@<TRIPOS>MOLECULE
3R540
247   249    1
SMALL
USER_CHARGES


@<TRIPOS>ATOM
      1 CA          4.1865  -10.2272  -46.8628 C.3       0 UNK        -0.1800 
      2 C           3.3121  -11.3523  -46.3312 C.2       0 UNK         0.5000 
      3 O           3.3023  -11.5993  -45.1247 O.2       0 UNK        -0.5000 
      4 N           2.5550  -12.0139  -47.2163 N.am      1 UNK        -0.5000 
      5 CA          1.6617  -13.1574  -46.9625 C.3       1 UNK         0.1400 
      6 C6          1.3676  -13.9394  -48.2708 C.3       23 UNK        -0.0398 
      7 S7          0.6225  -12.9176  -49.5959 S.3       23 UNK        -0.2404 
      8 C8          1.3257  -13.6721  -51.0965 C.3       23 UNK        -0.0205 
      9 C9          0.8505  -15.1049  -51.2838 C.ar      23 UNK        -0.0193 
     10 C10        -0.4288  -15.3649  -51.7868 C.ar      23 UNK        -0.1150 
     11 C11        -0.8740  -16.6808  -51.9457 C.ar      23 UNK        -0.0193 
     12 C12        -0.0277  -17.7374  -51.6037 C.ar      23 UNK        -0.1150 
     13 C13         1.2440  -17.4902  -51.0801 C.ar      23 UNK        -0.0193 
     14 C14         1.6845  -16.1722  -50.9383 C.ar      23 UNK        -0.1150 
     15 C15         2.1226  -18.6469  -50.6265 C.3       23 UNK        -0.0205 
     16 S16         2.2227  -18.7515  -48.8079 S.3       23 UNK        -0.2404 
     17 C17         0.4793  -19.0306  -48.3402 C.3       23 UNK        -0.0398 
     18 CA          0.2035  -20.4938  -47.9247 C.3       11 UNK         0.1400 
     19 N           0.7158  -20.7853  -46.5846 N.am      11 UNK        -0.5000 
     20 C           0.8172  -22.0077  -46.0485 C.2       10 UNK         0.5000 
     21 O           0.5417  -23.0437  -46.6522 O.2       10 UNK        -0.5000 
     22 CA          1.2737  -22.0852  -44.5794 C.3       10 UNK         0.1400 
     23 CB          2.8045  -22.0108  -44.4766 C.3       10 UNK        -0.1800 
     24 N           0.6707  -21.0465  -43.7412 N.am      10 UNK        -0.5000 
     25 C          -0.6407  -20.9594  -43.4736 C.2       9 UNK         0.5000 
     26 O          -1.4763  -21.7667  -43.8788 O.2       9 UNK        -0.5000 
     27 CA         -1.1069  -19.7511  -42.6421 C.3       9 UNK         0.1400 
     28 CB         -0.8629  -19.9941  -41.1453 C.3       9 UNK        -0.1800 
     29 N          -0.4698  -18.4981  -43.0460 N.am      9 UNK        -0.5000 
     30 C          -0.5988  -17.9293  -44.2535 C.2       8 UNK         0.5000 
     31 O          -1.2893  -18.3914  -45.1606 O.2       8 UNK        -0.5000 
     32 CA          0.2366  -16.6628  -44.5110 C.3       8 UNK         0.1400 
     33 CB         -0.3701  -15.4536  -43.7832 C.3       8 UNK        -0.1800 
     34 N           1.6328  -16.8290  -44.1075 N.am      8 UNK        -0.5000 
     35 C           2.4621  -17.7756  -44.5705 C.2       7 UNK         0.5000 
     36 O           2.1523  -18.6004  -45.4269 O.2       7 UNK        -0.5000 
     37 CA          3.8511  -17.8539  -43.9197 C.3       7 UNK         0.1400 
     38 CB          4.8001  -16.8064  -44.5207 C.3       7 UNK        -0.1800 
     39 N           3.7706  -17.6871  -42.4690 N.am      7 UNK        -0.5000 
     40 C           3.2348  -18.5919  -41.6367 C.2       6 UNK         0.5000 
     41 O           2.7959  -19.6830  -42.0015 O.2       6 UNK        -0.5000 
     42 CA          3.1358  -18.1886  -40.1541 C.3       6 UNK         0.1400 
     43 CB          4.4770  -18.4101  -39.4390 C.3       6 UNK        -0.1800 
     44 N           2.7144  -16.7974  -39.9797 N.am      6 UNK        -0.5000 
     45 C           1.5002  -16.3325  -40.3052 C.2       5 UNK         0.5000 
     46 O           0.5964  -17.0397  -40.7494 O.2       5 UNK        -0.5000 
     47 CA          1.2677  -14.8176  -40.1482 C.3       5 UNK         0.1400 
     48 CB          0.7855  -14.4901  -38.7277 C.3       5 UNK        -0.1800 
     49 N           2.4368  -13.9913  -40.4641 N.am      5 UNK        -0.5000 
     50 C           3.0760  -13.9777  -41.6406 C.2       4 UNK         0.5000 
     51 O           2.7917  -14.7203  -42.5809 O.2       4 UNK        -0.5000 
     52 CA          4.1744  -12.9164  -41.8056 C.3       4 UNK         0.1400 
     53 CB          5.2357  -13.3274  -42.8408 C.3       4 UNK        -0.1800 
     54 N           3.5425  -11.6758  -42.2369 N.am      4 UNK        -0.5000 
     55 C           2.9913  -10.7732  -41.4151 C.2       3 UNK         0.5000 
     56 O           3.0829  -10.8182  -40.1874 O.2       3 UNK        -0.5000 
     57 CA          2.1583   -9.6628  -42.0797 C.3       3 UNK         0.1400 
     58 CB          3.0700   -8.5773  -42.6728 C.3       3 UNK        -0.1800 
     59 N           1.2836  -10.1864  -43.1304 N.am      3 UNK        -0.5000 
     60 C           0.2268  -10.9884  -42.9234 C.2       2 UNK         0.5000 
     61 O          -0.1752  -11.3244  -41.8096 O.2       2 UNK        -0.5000 
     62 CA         -0.4707  -11.5330  -44.1774 C.3       2 UNK         0.1400 
     63 CB         -1.4094  -10.4829  -44.7979 C.3       2 UNK        -0.1800 
     64 N           0.5411  -11.9595  -45.1375 N.am      2 UNK        -0.5000 
     65 C           0.3808  -12.8000  -46.1608 C.2       1 UNK         0.5000 
     66 O          -0.7062  -13.2976  -46.4579 O.2       1 UNK        -0.5000 
     67 C          -1.3007  -20.8095  -48.0531 C.2       11 UNK         0.5000 
     68 O          -1.7103  -21.3707  -49.0683 O.2       11 UNK        -0.5000 
     69 N          -2.0944  -20.4335  -47.0407 N.am      12 UNK        -0.5000 
     70 CA         -3.5497  -20.5988  -47.0190 C.3       12 UNK         0.1400 
     71 CB         -4.1414  -19.6698  -45.9483 C.3       12 UNK        -0.1800 
     72 C          -4.0199  -22.0460  -46.7807 C.2       12 UNK         0.5000 
     73 O          -5.1819  -22.3442  -47.0667 O.2       12 UNK        -0.5000 
     74 N          -3.1344  -22.9038  -46.2537 N.am      13 UNK        -0.5000 
     75 CA         -3.3879  -24.2981  -45.8837 C.3       13 UNK         0.1400 
     76 CB         -2.0704  -24.9479  -45.4356 C.3       13 UNK        -0.1800 
     77 C          -4.0338  -25.1332  -47.0053 C.2       13 UNK         0.5000 
     78 O          -3.6601  -24.9936  -48.1726 O.2       13 UNK        -0.5000 
     79 N          -4.9966  -25.9817  -46.6165 N.am      14 UNK        -0.5000 
     80 CA         -5.7953  -26.8605  -47.4792 C.3       14 UNK         0.1400 
     81 CB         -4.9209  -27.9972  -48.0497 C.3       14 UNK        -0.1800 
     82 C          -6.5704  -26.0907  -48.5706 C.2       14 UNK         0.5000 
     83 O          -6.6401  -26.5489  -49.7107 O.2       14 UNK        -0.5000 
     84 N          -7.1145  -24.9201  -48.2019 N.am      15 UNK        -0.5000 
     85 CA         -7.8265  -23.9687  -49.0638 C.3       15 UNK         0.1400 
     86 CB         -9.1656  -24.5627  -49.5500 C.3       15 UNK        -0.1800 
     87 C          -6.9340  -23.4676  -50.2166 C.2       15 UNK         0.5000 
     88 O          -7.2714  -23.6396  -51.3892 O.2       15 UNK        -0.5000 
     89 N          -5.7796  -22.8978  -49.8443 N.am      16 UNK        -0.5000 
     90 CA         -4.7116  -22.4136  -50.7253 C.3       16 UNK         0.1400 
     91 CB         -5.1752  -21.1674  -51.5099 C.3       16 UNK        -0.1800 
     92 C          -4.1467  -23.5300  -51.6277 C.2       16 UNK         0.5000 
     93 O          -3.9992  -23.3360  -52.8369 O.2       16 UNK        -0.5000 
     94 N          -3.8801  -24.6940  -51.0157 N.am      17 UNK        -0.5000 
     95 CA         -3.4406  -25.9450  -51.6398 C.3       17 UNK         0.1400 
     96 CB         -1.9966  -25.8013  -52.1655 C.3       17 UNK        -0.1800 
     97 C          -4.4306  -26.4407  -52.7152 C.2       17 UNK         0.5000 
     98 O          -4.0239  -26.7340  -53.8381 O.2       17 UNK        -0.5000 
     99 N          -5.7240  -26.4772  -52.3636 N.am      18 UNK        -0.5000 
    100 CA        -6.8716  -26.7563  -53.2349 C.3       18 UNK         0.1400 
    101 CB        -6.8786  -28.2350  -53.6743 C.3       18 UNK        -0.1800 
    102 C         -6.9607  -25.7656  -54.4168 C.2       18 UNK         0.5000 
    103 O         -7.1746  -26.1717  -55.5606 O.2       18 UNK        -0.5000 
    104 N         -6.7611  -24.4786  -54.1008 N.am      19 UNK        -0.5000 
    105 CA        -6.6978  -23.3231  -54.9996 C.3       19 UNK         0.1400 
    106 CB        -8.0732  -23.0607  -55.6467 C.3       19 UNK        -0.1800 
    107 C         -5.5497  -23.3766  -56.0341 C.2       19 UNK         0.5000 
    108 O         -5.6355  -22.7164  -57.0711 O.2       19 UNK        -0.5000 
    109 N         -4.4894  -24.1458  -55.7489 N.am      20 UNK        -0.5000 
    110 CA        -3.2951  -24.2291  -56.5897 C.3       20 UNK         0.1400 
    111 CB        -2.6180  -25.5948  -56.4091 C.3       20 UNK        -0.1800 
    112 C         -2.2955  -23.0989  -56.2946 C.2       20 UNK         0.5000 
    113 O         -1.5704  -22.6966  -57.2056 O.2       20 UNK        -0.5000 
    114 N         -2.2554  -22.6110  -55.0442 N.am      21 UNK        -0.5000 
    115 CA        -1.3631  -21.5265  -54.6293 C.3       21 UNK         0.1400 
    116 CB        -1.2126  -21.5201  -53.0995 C.3       21 UNK        -0.1800 
    117 C         -1.8527  -20.1676  -55.1590 C.2       21 UNK         0.5000 
    118 O         -1.0681  -19.4325  -55.7590 O.2       21 UNK        -0.5000 
    119 N         -3.1496  -19.8966  -54.9724 N.am      22 UNK        -0.5000 
    120 CA        -3.8881  -18.7651  -55.5462 C.3       22 UNK         0.1400 
    121 C         -5.2997  -19.2550  -55.9523 C.2       22 UNK         0.5000 
    122 N         -5.7777  -18.8960  -57.1354 N.am      22 UNK        -0.7600 
    123 O         -5.9811  -19.9270  -55.1815 O.2       22 UNK        -0.5000 
    124 C124       -4.0027  -17.5521  -54.5840 C.3       23 UNK        -0.0398 
    125 S125       -2.4061  -16.7364  -54.2451 S.3       23 UNK        -0.2404 
    126 C126       -2.2789  -16.9698  -52.4485 C.3       23 UNK        -0.0205 
    127 H127        5.2337  -10.4321  -46.6410 H         1 UNK         0.0600 
    128 H128        3.9145   -9.2850  -46.3871 H         1 UNK         0.0600 
    129 H129        4.0830  -10.1078  -47.9415 H         1 UNK         0.0600 
    130 H130        2.5755  -11.7169  -48.1818 H         1 UNK         0.3000 
    131 H131        2.2115  -13.8426  -46.3130 H         1 UNK         0.0600 
    132 H132        0.7221  -14.7992  -48.0814 H         1 UNK         0.0800 
    133 H133        2.3040  -14.3588  -48.6401 H         1 UNK         0.0800 
    134 H134        1.0309  -13.0773  -51.9622 H         1 UNK         0.0800 
    135 H135        2.4151  -13.6267  -51.0530 H         1 UNK         0.0800 
    136 H136       -1.0822  -14.5429  -52.0440 H         1 UNK         0.1150 
    137 H137       -0.3750  -18.7547  -51.7095 H         1 UNK         0.1150 
    138 H138        2.6677  -15.9807  -50.5320 H         1 UNK         0.1150 
    139 H139        1.7530  -19.5948  -51.0211 H         1 UNK         0.0800 
    140 H140        3.1275  -18.5171  -51.0307 H         1 UNK         0.0800 
    141 H141       -0.1668  -18.7357  -49.1647 H         1 UNK         0.0800 
    142 H142        0.2303  -18.3485  -47.5259 H         1 UNK         0.0800 
    143 H143        0.7199  -21.1521  -48.6270 H         1 UNK         0.0600 
    144 H144        1.0435  -19.9867  -46.0459 H         1 UNK         0.3000 
    145 H145        0.9566  -23.0536  -44.1867 H         1 UNK         0.0600 
    146 H146        3.2740  -22.7961  -45.0700 H         1 UNK         0.0600 
    147 H147        3.1873  -21.0553  -44.8352 H         1 UNK         0.0600 
    148 H148        3.1368  -22.1384  -43.4462 H         1 UNK         0.0600 
    149 H149        1.3008  -20.3590  -43.3431 H         1 UNK         0.3000 
    150 H150       -2.1820  -19.6396  -42.7966 H         1 UNK         0.0600 
    151 H151       -1.3337  -20.9216  -40.8171 H         1 UNK         0.0600 
    152 H152       -1.2798  -19.1868  -40.5429 H         1 UNK         0.0600 
    153 H153        0.2011  -20.0652  -40.9171 H         1 UNK         0.0600 
    154 H154        0.0927  -18.0294  -42.3412 H         1 UNK         0.3000 
    155 H155        0.2295  -16.4585  -45.5836 H         1 UNK         0.0600 
    156 H156        0.2838  -14.5848  -43.8419 H         1 UNK         0.0600 
    157 H157       -0.5484  -15.6581  -42.7284 H         1 UNK         0.0600 
    158 H158       -1.3270  -15.1765  -44.2267 H         1 UNK         0.0600 
    159 H159        1.9949  -16.1633  -43.4285 H         1 UNK         0.3000 
    160 H160        4.2657  -18.8429  -44.1263 H         1 UNK         0.0600 
    161 H161        4.4190  -15.7936  -44.3946 H         1 UNK         0.0600 
    162 H162        4.9299  -16.9726  -45.5908 H         1 UNK         0.0600 
    163 H163        5.7873  -16.8552  -44.0612 H         1 UNK         0.0600 
    164 H164        4.0418  -16.7875  -42.1006 H         1 UNK         0.3000 
    165 H165        2.3886  -18.8318  -39.6840 H         1 UNK         0.0600 
    166 H166        4.3939  -18.2010  -38.3723 H         1 UNK         0.0600 
    167 H167        4.8068  -19.4448  -39.5415 H         1 UNK         0.0600 
    168 H168        5.2631  -17.7730  -39.8462 H         1 UNK         0.0600 
    169 H169        3.3995  -16.1488  -39.6209 H         1 UNK         0.3000 
    170 H170        0.4768  -14.5347  -40.8452 H         1 UNK         0.0600 
    171 H171       -0.0996  -15.0739  -38.4709 H         1 UNK         0.0600 
    172 H172        1.5511  -14.7077  -37.9820 H         1 UNK         0.0600 
    173 H173        0.5162  -13.4375  -38.6365 H         1 UNK         0.0600 
    174 H174        2.7046  -13.3087  -39.7682 H         1 UNK         0.3000 
    175 H175        4.6760  -12.7739  -40.8461 H         1 UNK         0.0600 
    176 H176        6.0225  -12.5767  -42.9136 H         1 UNK         0.0600 
    177 H177        5.7082  -14.2701  -42.5627 H         1 UNK         0.0600 
    178 H178        4.8070  -13.4541  -43.8353 H         1 UNK         0.0600 
    179 H179        3.4061  -11.5783  -43.2399 H         1 UNK         0.3000 
    180 H180        1.5333   -9.2040  -41.3106 H         1 UNK         0.0600 
    181 H181        3.6999   -8.9706  -43.4720 H         1 UNK         0.0600 
    182 H182        3.7289   -8.1618  -41.9093 H         1 UNK         0.0600 
    183 H183        2.4862   -7.7522  -43.0811 H         1 UNK         0.0600 
    184 H184        1.5294   -9.9377  -44.0767 H         1 UNK         0.3000 
    185 H185       -1.0605  -12.4023  -43.8795 H         1 UNK         0.0600 
    186 H186       -2.1404  -10.1338  -44.0676 H         1 UNK         0.0600 
    187 H187       -0.8592   -9.6123  -45.1566 H         1 UNK         0.0600 
    188 H188       -1.9653  -10.8962  -45.6394 H         1 UNK         0.0600 
    189 H189        1.4986  -11.6826  -44.9351 H         1 UNK         0.3000 
    190 H190       -1.6902  -19.9189  -46.2623 H         1 UNK         0.3000 
    191 H191       -3.9429  -20.2882  -47.9894 H         1 UNK         0.0600 
    192 H192       -3.9000  -18.6269  -46.1544 H         1 UNK         0.0600 
    193 H193       -5.2287  -19.7494  -45.9140 H         1 UNK         0.0600 
    194 H194       -3.7613  -19.9121  -44.9549 H         1 UNK         0.0600 
    195 H195       -2.2155  -22.5466  -46.0300 H         1 UNK         0.3000 
    196 H196       -4.0676  -24.2760  -45.0298 H         1 UNK         0.0600 
    197 H197       -2.2327  -25.9732  -45.1009 H         1 UNK         0.0600 
    198 H198       -1.6191  -24.4038  -44.6060 H         1 UNK         0.0600 
    199 H199       -1.3454  -24.9803  -46.2498 H         1 UNK         0.0600 
    200 H200       -5.2302  -26.0188  -45.6338 H         1 UNK         0.3000 
    201 H201       -6.5520  -27.3181  -46.8404 H         1 UNK         0.0600 
    202 H202       -4.4204  -28.5459  -47.2520 H         1 UNK         0.0600 
    203 H203       -4.1547  -27.6198  -48.7264 H         1 UNK         0.0600 
    204 H204       -5.5242  -28.7156  -48.6061 H         1 UNK         0.0600 
    205 H205       -6.9579  -24.6105  -47.2528 H         1 UNK         0.3000 
    206 H206       -8.0558  -23.0983  -48.4471 H         1 UNK         0.0600 
    207 H207       -9.7834  -24.8804  -48.7102 H         1 UNK         0.0600 
    208 H208       -9.7365  -23.8227  -50.1119 H         1 UNK         0.0600 
    209 H209       -9.0194  -25.4237  -50.2029 H         1 UNK         0.0600 
    210 H210       -5.5883  -22.8262  -48.8477 H         1 UNK         0.3000 
    211 H211       -3.8967  -22.1084  -50.0728 H         1 UNK         0.0600 
    212 H212       -5.9757  -21.4017  -52.2116 H         1 UNK         0.0600 
    213 H213       -4.3572  -20.7341  -52.0844 H         1 UNK         0.0600 
    214 H214       -5.5391  -20.3927  -50.8353 H         1 UNK         0.0600 
    215 H215       -3.9957  -24.7389  -50.0051 H         1 UNK         0.3000 
    216 H216       -3.4345  -26.6998  -50.8532 H         1 UNK         0.0600 
    217 H217       -1.6241  -26.7516  -52.5495 H         1 UNK         0.0600 
    218 H218       -1.3202  -25.4843  -51.3718 H         1 UNK         0.0600 
    219 H219       -1.9272  -25.0725  -52.9734 H         1 UNK         0.0600 
    220 H220       -5.9685  -26.2648  -51.3980 H         1 UNK         0.3000 
    221 H221       -7.7616  -26.5877  -52.6267 H         1 UNK         0.0600 
    222 H222       -6.0363  -28.4696  -54.3258 H         1 UNK         0.0600 
    223 H223       -6.8323  -28.9009  -52.8126 H         1 UNK         0.0600 
    224 H224       -7.7912  -28.4747  -54.2209 H         1 UNK         0.0600 
    225 H225       -6.6461  -24.2534  -53.1156 H         1 UNK         0.3000 
    226 H226       -6.4729  -22.4716  -54.3572 H         1 UNK         0.0600 
    227 H227       -8.8593  -23.0098  -54.8934 H         1 UNK         0.0600 
    228 H228       -8.0776  -22.1099  -56.1810 H         1 UNK         0.0600 
    229 H229       -8.3399  -23.8398  -56.3612 H         1 UNK         0.0600 
    230 H230       -4.4768  -24.6606  -54.8770 H         1 UNK         0.3000 
    231 H231       -3.5917  -24.1481  -57.6377 H         1 UNK         0.0600 
    232 H232       -2.1978  -25.7075  -55.4096 H         1 UNK         0.0600 
    233 H233       -1.8000  -25.7187  -57.1197 H         1 UNK         0.0600 
    234 H234       -3.3207  -26.4115  -56.5754 H         1 UNK         0.0600 
    235 H235       -2.8957  -22.9755  -54.3425 H         1 UNK         0.3000 
    236 H236       -0.3747  -21.7170  -55.0535 H         1 UNK         0.0600 
    237 H237       -0.9136  -22.5000  -52.7269 H         1 UNK         0.0600 
    238 H238       -0.4451  -20.8101  -52.7926 H         1 UNK         0.0600 
    239 H239       -2.1373  -21.2411  -52.5966 H         1 UNK         0.0600 
    240 H240       -3.7314  -20.5873  -54.5185 H         1 UNK         0.3000 
    241 H241       -3.3776  -18.4378  -56.4544 H         1 UNK         0.0600 
    242 H242       -6.6989  -19.2073  -57.4013 H         1 UNK         0.3800 
    243 H243       -5.2403  -18.3364  -57.7796 H         1 UNK         0.3800 
    244 H244       -4.6564  -16.7921  -55.0158 H         1 UNK         0.0800 
    245 H245       -4.4766  -17.8543  -53.6485 H         1 UNK         0.0800 
    246 H246       -2.5634  -17.9927  -52.1954 H         1 UNK         0.0800 
    247 H247       -2.9933  -16.3159  -51.9460 H         1 UNK         0.0800 
@<TRIPOS>BOND
     1    1    2 1    
     2    1  127 1    
     3    1  128 1    
     4    1  129 1    
     5    2    3 2    
     6    2    4 am   BACKBONE|DICT|INTERRES
     7    4    5 1    
     8    4  130 1    
     9    5    6 1    
    10    5   65 1    
    11    5  131 1    
    12    6    7 1    
    13    6  132 1    
    14    6  133 1    
    15    7    8 1    
    16    8    9 1    
    17    8  134 1    
    18    8  135 1    
    19    9   10 ar   
    20    9   14 ar   
    21   10   11 ar   
    22   10  136 1    
    23   11   12 ar   
    24   11  126 1    
    25   12   13 ar   
    26   12  137 1    
    27   13   14 ar   
    28   13   15 1    
    29   14  138 1    
    30   15   16 1    
    31   15  139 1    
    32   15  140 1    
    33   16   17 1    
    34   17   18 1    
    35   17  141 1    
    36   17  142 1    
    37   18   19 1    
    38   18   67 1    
    39   18  143 1    
    40   19   20 am   BACKBONE|DICT|INTERRES
    41   19  144 1    
    42   20   21 2    
    43   20   22 1    
    44   22   23 1    
    45   22   24 1    
    46   22  145 1    
    47   23  146 1    
    48   23  147 1    
    49   23  148 1    
    50   24   25 am   BACKBONE|DICT|INTERRES
    51   24  149 1    
    52   25   26 2    
    53   25   27 1    
    54   27   28 1    
    55   27   29 1    
    56   27  150 1    
    57   28  151 1    
    58   28  152 1    
    59   28  153 1    
    60   29   30 am   BACKBONE|DICT|INTERRES
    61   29  154 1    
    62   30   31 2    
    63   30   32 1    
    64   32   33 1    
    65   32   34 1    
    66   32  155 1    
    67   33  156 1    
    68   33  157 1    
    69   33  158 1    
    70   34   35 am   BACKBONE|DICT|INTERRES
    71   34  159 1    
    72   35   36 2    
    73   35   37 1    
    74   37   38 1    
    75   37   39 1    
    76   37  160 1    
    77   38  161 1    
    78   38  162 1    
    79   38  163 1    
    80   39   40 am   BACKBONE|DICT|INTERRES
    81   39  164 1    
    82   40   41 2    
    83   40   42 1    
    84   42   43 1    
    85   42   44 1    
    86   42  165 1    
    87   43  166 1    
    88   43  167 1    
    89   43  168 1    
    90   44   45 am   BACKBONE|DICT|INTERRES
    91   44  169 1    
    92   45   46 2    
    93   45   47 1    
    94   47   48 1    
    95   47   49 1    
    96   47  170 1    
    97   48  171 1    
    98   48  172 1    
    99   48  173 1    
   100   49   50 am   BACKBONE|DICT|INTERRES
   101   49  174 1    
   102   50   51 2    
   103   50   52 1    
   104   52   53 1    
   105   52   54 1    
   106   52  175 1    
   107   53  176 1    
   108   53  177 1    
   109   53  178 1    
   110   54   55 am   BACKBONE|DICT|INTERRES
   111   54  179 1    
   112   55   56 2    
   113   55   57 1    
   114   57   58 1    
   115   57   59 1    
   116   57  180 1    
   117   58  181 1    
   118   58  182 1    
   119   58  183 1    
   120   59   60 am   BACKBONE|DICT|INTERRES
   121   59  184 1    
   122   60   61 2    
   123   60   62 1    
   124   62   63 1    
   125   62   64 1    
   126   62  185 1    
   127   63  186 1    
   128   63  187 1    
   129   63  188 1    
   130   64   65 am   BACKBONE|DICT|INTERRES
   131   64  189 1    
   132   65   66 2    
   133   67   68 2    
   134   67   69 am   BACKBONE|DICT|INTERRES
   135   69   70 1    
   136   69  190 1    
   137   70   71 1    
   138   70   72 1    
   139   70  191 1    
   140   71  192 1    
   141   71  193 1    
   142   71  194 1    
   143   72   73 2    
   144   72   74 am   BACKBONE|DICT|INTERRES
   145   74   75 1    
   146   74  195 1    
   147   75   76 1    
   148   75   77 1    
   149   75  196 1    
   150   76  197 1    
   151   76  198 1    
   152   76  199 1    
   153   77   78 2    
   154   77   79 am   BACKBONE|DICT|INTERRES
   155   79   80 1    
   156   79  200 1    
   157   80   81 1    
   158   80   82 1    
   159   80  201 1    
   160   81  202 1    
   161   81  203 1    
   162   81  204 1    
   163   82   83 2    
   164   82   84 am   BACKBONE|DICT|INTERRES
   165   84   85 1    
   166   84  205 1    
   167   85   86 1    
   168   85   87 1    
   169   85  206 1    
   170   86  207 1    
   171   86  208 1    
   172   86  209 1    
   173   87   88 2    
   174   87   89 am   BACKBONE|DICT|INTERRES
   175   89   90 1    
   176   89  210 1    
   177   90   91 1    
   178   90   92 1    
   179   90  211 1    
   180   91  212 1    
   181   91  213 1    
   182   91  214 1    
   183   92   93 2    
   184   92   94 am   BACKBONE|DICT|INTERRES
   185   94   95 1    
   186   94  215 1    
   187   95   96 1    
   188   95   97 1    
   189   95  216 1    
   190   96  217 1    
   191   96  218 1    
   192   96  219 1    
   193   97   98 2    
   194   97   99 am   BACKBONE|DICT|INTERRES
   195   99  100 1    
   196   99  220 1    
   197  100  101 1    
   198  100  102 1    
   199  100  221 1    
   200  101  222 1    
   201  101  223 1    
   202  101  224 1    
   203  102  103 2    
   204  102  104 am   BACKBONE|DICT|INTERRES
   205  104  105 1    
   206  104  225 1    
   207  105  106 1    
   208  105  107 1    
   209  105  226 1    
   210  106  227 1    
   211  106  228 1    
   212  106  229 1    
   213  107  108 2    
   214  107  109 am   BACKBONE|DICT|INTERRES
   215  109  110 1    
   216  109  230 1    
   217  110  111 1    
   218  110  112 1    
   219  110  231 1    
   220  111  232 1    
   221  111  233 1    
   222  111  234 1    
   223  112  113 2    
   224  112  114 am   BACKBONE|DICT|INTERRES
   225  114  115 1    
   226  114  235 1    
   227  115  116 1    
   228  115  117 1    
   229  115  236 1    
   230  116  237 1    
   231  116  238 1    
   232  116  239 1    
   233  117  118 2    
   234  117  119 am   BACKBONE|DICT|INTERRES
   235  119  120 1    
   236  119  240 1    
   237  120  121 1    
   238  120  124 1    
   239  120  241 1    
   240  121  122 am   BACKBONE|DICT|INTERRES
   241  121  123 2    
   242  122  242 1    
   243  122  243 1    
   244  124  125 1    
   245  124  244 1    
   246  124  245 1    
   247  125  126 1    
   248  126  246 1    
   249  126  247 1    
@<TRIPOS>SUBSTRUCTURE
     1 UNK         1 GROUP             0       ****    0 ROOT    
