@<TRIPOS>MOLECULE
3R540
247   249    1
SMALL
USER_CHARGES


@<TRIPOS>ATOM
      1 CA          2.2033  -10.8381  -50.1361 C.3       0 UNK        -0.1800 
      2 C           2.8861  -12.1969  -50.2000 C.2       0 UNK         0.5000 
      3 O           4.1037  -12.2636  -50.3701 O.2       0 UNK        -0.5000 
      4 N           2.1075  -13.2781  -50.0657 N.am      1 UNK        -0.5000 
      5 CA          2.5823  -14.6688  -50.0911 C.3       1 UNK         0.1400 
      6 C6          1.4148  -15.6737  -50.2207 C.3       23 UNK        -0.0398 
      7 S7          0.4747  -15.4782  -51.7729 S.3       23 UNK        -0.2404 
      8 C8          0.6596  -17.1301  -52.5244 C.3       23 UNK        -0.0205 
      9 C9          0.1351  -18.2409  -51.6233 C.ar      23 UNK        -0.0193 
     10 C10        -1.2020  -18.2432  -51.2164 C.ar      23 UNK        -0.1150 
     11 C11        -1.6876  -19.2528  -50.3835 C.ar      23 UNK        -0.0193 
     12 C12        -0.8282  -20.2654  -49.9566 C.ar      23 UNK        -0.1150 
     13 C13         0.5037  -20.2935  -50.3778 C.ar      23 UNK        -0.0193 
     14 C14         0.9823  -19.2732  -51.2050 C.ar      23 UNK        -0.1150 
     15 C15         1.4054  -21.4556  -49.9867 C.3       23 UNK        -0.0205 
     16 S16         2.4789  -21.0963  -48.5579 S.3       23 UNK        -0.2404 
     17 C17         1.3027  -20.8207  -47.1896 C.3       23 UNK        -0.0398 
     18 CA          0.9085  -22.1146  -46.4283 C.3       11 UNK         0.1400 
     19 N           0.6621  -21.8579  -45.0042 N.am      11 UNK        -0.5000 
     20 C           0.4247  -22.7978  -44.0774 C.2       10 UNK         0.5000 
     21 O           0.4627  -24.0043  -44.3070 O.2       10 UNK        -0.5000 
     22 CA          0.0039  -22.3142  -42.6767 C.3       10 UNK         0.1400 
     23 CB          1.2267  -21.9659  -41.8158 C.3       10 UNK        -0.1800 
     24 N          -0.9145  -21.1757  -42.7391 N.am      10 UNK        -0.5000 
     25 C          -2.1464  -21.2390  -43.2652 C.2       9 UNK         0.5000 
     26 O          -2.6598  -22.2857  -43.6595 O.2       9 UNK        -0.5000 
     27 CA         -2.9114  -19.9128  -43.4326 C.3       9 UNK         0.1400 
     28 CB         -3.6552  -19.5429  -42.1414 C.3       9 UNK        -0.1800 
     29 N          -2.0431  -18.8068  -43.8417 N.am      9 UNK        -0.5000 
     30 C          -1.3946  -18.7410  -45.0136 C.2       8 UNK         0.5000 
     31 O          -1.5149  -19.5830  -45.9028 O.2       8 UNK        -0.5000 
     32 CA         -0.3971  -17.5798  -45.1986 C.3       8 UNK         0.1400 
     33 CB         -1.1122  -16.2967  -45.6446 C.3       8 UNK        -0.1800 
     34 N           0.3830  -17.3211  -43.9858 N.am      8 UNK        -0.5000 
     35 C           1.2649  -18.1862  -43.4644 C.2       7 UNK         0.5000 
     36 O           1.5674  -19.2497  -44.0039 O.2       7 UNK        -0.5000 
     37 CA          1.8573  -17.8442  -42.0848 C.3       7 UNK         0.1400 
     38 CB          3.1052  -16.9579  -42.1988 C.3       7 UNK        -0.1800 
     39 N           0.8759  -17.1975  -41.2163 N.am      7 UNK        -0.5000 
     40 C          -0.1472  -17.8370  -40.6337 C.2       6 UNK         0.5000 
     41 O          -0.3406  -19.0477  -40.7368 O.2       6 UNK        -0.5000 
     42 CA         -1.1409  -16.9700  -39.8382 C.3       6 UNK         0.1400 
     43 CB         -0.6431  -16.7586  -38.4008 C.3       6 UNK        -0.1800 
     44 N          -1.3765  -15.6681  -40.4654 N.am      6 UNK        -0.5000 
     45 C          -1.9858  -15.4962  -41.6472 C.2       5 UNK         0.5000 
     46 O          -2.4602  -16.4180  -42.3083 O.2       5 UNK        -0.5000 
     47 CA         -2.0234  -14.0633  -42.2101 C.3       5 UNK         0.1400 
     48 CB         -3.2804  -13.3264  -41.7253 C.3       5 UNK        -0.1800 
     49 N          -0.8350  -13.2782  -41.8650 N.am      5 UNK        -0.5000 
     50 C           0.4112  -13.5692  -42.2592 C.2       4 UNK         0.5000 
     51 O           0.7014  -14.5395  -42.9649 O.2       4 UNK        -0.5000 
     52 CA          1.5188  -12.6586  -41.7190 C.3       4 UNK         0.1400 
     53 CB          1.9003  -13.0645  -40.2839 C.3       4 UNK        -0.1800 
     54 N           2.6916  -12.7567  -42.5800 N.am      4 UNK        -0.5000 
     55 C           3.5988  -11.7895  -42.7570 C.2       3 UNK         0.5000 
     56 O           3.5363  -10.6920  -42.2005 O.2       3 UNK        -0.5000 
     57 CA          4.7894  -12.0849  -43.6924 C.3       3 UNK         0.1400 
     58 CB          6.0729  -12.2897  -42.8715 C.3       3 UNK        -0.1800 
     59 N           4.6050  -13.2486  -44.5636 N.am      3 UNK        -0.5000 
     60 C           3.8027  -13.2854  -45.6336 C.2       2 UNK         0.5000 
     61 O           3.0718  -12.3533  -45.9807 O.2       2 UNK        -0.5000 
     62 CA          3.8272  -14.5889  -46.4437 C.3       2 UNK         0.1400 
     63 CB          3.1206  -15.7313  -45.6945 C.3       2 UNK        -0.1800 
     64 N           3.1688  -14.3680  -47.7233 N.am      2 UNK        -0.5000 
     65 C           3.4269  -15.0353  -48.8528 C.2       1 UNK         0.5000 
     66 O           4.2763  -15.9231  -48.9423 O.2       1 UNK        -0.5000 
     67 C          -0.2942  -22.8200  -47.0951 C.2       11 UNK         0.5000 
     68 O          -0.1056  -23.7968  -47.8244 O.2       11 UNK        -0.5000 
     69 N          -1.5109  -22.3326  -46.8061 N.am      12 UNK        -0.5000 
     70 CA         -2.7804  -22.9033  -47.2632 C.3       12 UNK         0.1400 
     71 CB         -3.9461  -21.9881  -46.8582 C.3       12 UNK        -0.1800 
     72 C          -3.0086  -24.3398  -46.7606 C.2       12 UNK         0.5000 
     73 O          -3.4616  -25.1874  -47.5289 O.2       12 UNK        -0.5000 
     74 N          -2.6648  -24.5940  -45.4918 N.am      13 UNK        -0.5000 
     75 CA         -2.7059  -25.9209  -44.8799 C.3       13 UNK         0.1400 
     76 CB         -2.5547  -25.7841  -43.3571 C.3       13 UNK        -0.1800 
     77 C          -1.6389  -26.8729  -45.4544 C.2       13 UNK         0.5000 
     78 O          -1.9283  -28.0525  -45.6594 O.2       13 UNK        -0.5000 
     79 N          -0.4292  -26.3490  -45.6949 N.am      14 UNK        -0.5000 
     80 CA          0.7214  -27.1001  -46.1919 C.3       14 UNK         0.1400 
     81 CB          2.0014  -26.2698  -46.0079 C.3       14 UNK        -0.1800 
     82 C           0.5826  -27.5499  -47.6557 C.2       14 UNK         0.5000 
     83 O           0.9187  -28.6963  -47.9585 O.2       14 UNK        -0.5000 
     84 N           0.1184  -26.6538  -48.5378 N.am      15 UNK        -0.5000 
     85 CA          0.0493  -26.9154  -49.9785 C.3       15 UNK         0.1400 
     86 CB          1.4389  -26.7222  -50.6157 C.3       15 UNK        -0.1800 
     87 C          -0.9947  -26.0646  -50.7156 C.2       15 UNK         0.5000 
     88 O          -1.6322  -26.5821  -51.6343 O.2       15 UNK        -0.5000 
     89 N          -1.1362  -24.7891  -50.3246 N.am      16 UNK        -0.5000 
     90 CA         -1.9312  -23.7442  -50.9848 C.3       16 UNK         0.1400 
     91 CB         -3.4286  -24.1235  -51.0372 C.3       16 UNK        -0.1800 
     92 C          -1.3963  -23.3312  -52.3736 C.2       16 UNK         0.5000 
     93 O          -0.4424  -23.9175  -52.8901 O.2       16 UNK        -0.5000 
     94 N          -2.0318  -22.3049  -52.9481 N.am      17 UNK        -0.5000 
     95 CA         -1.7778  -21.7900  -54.2948 C.3       17 UNK         0.1400 
     96 CB         -0.9879  -20.4739  -54.1950 C.3       17 UNK        -0.1800 
     97 C          -3.1022  -21.6451  -55.0715 C.2       17 UNK         0.5000 
     98 O          -3.2139  -20.7807  -55.9418 O.2       17 UNK        -0.5000 
     99 N          -4.0730  -22.5101  -54.7343 N.am      18 UNK        -0.5000 
    100 CA        -5.4580  -22.5763  -55.2150 C.3       18 UNK         0.1400 
    101 CB        -5.5169  -22.7127  -56.7510 C.3       18 UNK        -0.1800 
    102 C         -6.3342  -21.4101  -54.7167 C.2       18 UNK         0.5000 
    103 O         -5.8326  -20.4072  -54.2033 O.2       18 UNK        -0.5000 
    104 N         -7.6544  -21.5605  -54.8907 N.am      19 UNK        -0.5000 
    105 CA        -8.6817  -20.6005  -54.4689 C.3       19 UNK         0.1400 
    106 CB       -10.0695  -21.2048  -54.7292 C.3       19 UNK        -0.1800 
    107 C         -8.5646  -19.2138  -55.1325 C.2       19 UNK         0.5000 
    108 O         -9.0221  -18.2279  -54.5549 O.2       19 UNK        -0.5000 
    109 N         -7.9167  -19.1524  -56.3042 N.am      20 UNK        -0.5000 
    110 CA        -7.5692  -17.9179  -57.0093 C.3       20 UNK         0.1400 
    111 CB        -6.9641  -18.2786  -58.3747 C.3       20 UNK        -0.1800 
    112 C         -6.6076  -17.0079  -56.2166 C.2       20 UNK         0.5000 
    113 O         -6.6636  -15.7888  -56.3837 O.2       20 UNK        -0.5000 
    114 N         -5.7621  -17.6077  -55.3674 N.am      21 UNK        -0.5000 
    115 CA        -4.8599  -16.9045  -54.4601 C.3       21 UNK         0.1400 
    116 CB        -3.4780  -17.5746  -54.5024 C.3       21 UNK        -0.1800 
    117 C         -5.4104  -16.9137  -53.0258 C.2       21 UNK         0.5000 
    118 O         -5.4028  -15.8721  -52.3686 O.2       21 UNK        -0.5000 
    119 N         -5.8542  -18.0881  -52.5599 N.am      22 UNK        -0.5000 
    120 CA        -6.2146  -18.3405  -51.1555 C.3       22 UNK         0.1400 
    121 C         -7.6873  -18.0114  -50.7810 C.2       22 UNK         0.5000 
    122 N         -8.5683  -17.6842  -51.7169 N.am      22 UNK        -0.7600 
    123 O         -8.0385  -18.0390  -49.6048 O.2       22 UNK        -0.5000 
    124 C124       -5.8286  -19.7766  -50.7049 C.3       23 UNK        -0.0398 
    125 S125       -4.1208  -20.2558  -51.1424 S.3       23 UNK        -0.2404 
    126 C126       -3.1470  -19.2636  -49.9713 C.3       23 UNK        -0.0205 
    127 H127        2.3878  -10.2814  -51.0548 H         1 UNK         0.0600 
    128 H128        1.1248  -10.9317  -50.0061 H         1 UNK         0.0600 
    129 H129        2.5975  -10.2601  -49.3001 H         1 UNK         0.0600 
    130 H130        1.1102  -13.1601  -49.9560 H         1 UNK         0.3000 
    131 H131        3.2289  -14.7851  -50.9638 H         1 UNK         0.0600 
    132 H132        0.7185  -15.5677  -49.3867 H         1 UNK         0.0800 
    133 H133        1.7968  -16.6940  -50.1606 H         1 UNK         0.0800 
    134 H134        0.1137  -17.1541  -53.4685 H         1 UNK         0.0800 
    135 H135        1.7102  -17.2914  -52.7708 H         1 UNK         0.0800 
    136 H136       -1.8652  -17.4581  -51.5512 H         1 UNK         0.1150 
    137 H137       -1.2062  -21.0390  -49.3071 H         1 UNK         0.1150 
    138 H138        2.0130  -19.2909  -51.5302 H         1 UNK         0.1150 
    139 H139        0.8134  -22.3484  -49.7914 H         1 UNK         0.0800 
    140 H140        2.0412  -21.7120  -50.8354 H         1 UNK         0.0800 
    141 H141        0.4351  -20.2595  -47.5348 H         1 UNK         0.0800 
    142 H142        1.8175  -20.1424  -46.5085 H         1 UNK         0.0800 
    143 H143        1.7520  -22.8068  -46.4666 H         1 UNK         0.0600 
    144 H144        0.6704  -20.8867  -44.7096 H         1 UNK         0.3000 
    145 H145       -0.5230  -23.1365  -42.1880 H         1 UNK         0.0600 
    146 H146        0.9283  -21.6441  -40.8179 H         1 UNK         0.0600 
    147 H147        1.8758  -22.8343  -41.6974 H         1 UNK         0.0600 
    148 H148        1.8253  -21.1717  -42.2591 H         1 UNK         0.0600 
    149 H149       -0.5846  -20.2942  -42.3624 H         1 UNK         0.3000 
    150 H150       -3.6547  -20.0579  -44.2191 H         1 UNK         0.0600 
    151 H151       -4.3338  -20.3418  -41.8400 H         1 UNK         0.0600 
    152 H152       -4.2533  -18.6414  -42.2758 H         1 UNK         0.0600 
    153 H153       -2.9673  -19.3675  -41.3147 H         1 UNK         0.0600 
    154 H154       -1.9554  -18.0322  -43.1899 H         1 UNK         0.3000 
    155 H155        0.3007  -17.8650  -45.9888 H         1 UNK         0.0600 
    156 H156       -1.8521  -15.9714  -44.9140 H         1 UNK         0.0600 
    157 H157       -1.6329  -16.4526  -46.5902 H         1 UNK         0.0600 
    158 H158       -0.4051  -15.4802  -45.7923 H         1 UNK         0.0600 
    159 H159        0.2297  -16.4362  -43.5144 H         1 UNK         0.3000 
    160 H160        2.1623  -18.7830  -41.6179 H         1 UNK         0.0600 
    161 H161        3.5674  -16.8062  -41.2233 H         1 UNK         0.0600 
    162 H162        2.8716  -15.9768  -42.6095 H         1 UNK         0.0600 
    163 H163        3.8540  -17.4215  -42.8421 H         1 UNK         0.0600 
    164 H164        0.9361  -16.1941  -41.1303 H         1 UNK         0.3000 
    165 H165       -2.0918  -17.5052  -39.7963 H         1 UNK         0.0600 
    166 H166       -1.3739  -16.2090  -37.8074 H         1 UNK         0.0600 
    167 H167       -0.4741  -17.7142  -37.9024 H         1 UNK         0.0600 
    168 H168        0.2960  -16.2042  -38.3755 H         1 UNK         0.0600 
    169 H169       -1.0225  -14.8558  -39.9827 H         1 UNK         0.3000 
    170 H170       -2.0699  -14.1369  -43.2983 H         1 UNK         0.0600 
    171 H171       -4.1829  -13.8799  -41.9887 H         1 UNK         0.0600 
    172 H172       -3.2797  -13.1958  -40.6424 H         1 UNK         0.0600 
    173 H173       -3.3610  -12.3404  -42.1832 H         1 UNK         0.0600 
    174 H174       -0.9875  -12.4693  -41.2797 H         1 UNK         0.3000 
    175 H175        1.1447  -11.6325  -41.7238 H         1 UNK         0.0600 
    176 H176        2.2829  -14.0853  -40.2436 H         1 UNK         0.0600 
    177 H177        2.6684  -12.4054  -39.8788 H         1 UNK         0.0600 
    178 H178        1.0416  -13.0068  -39.6140 H         1 UNK         0.0600 
    179 H179        2.7573  -13.6116  -43.1156 H         1 UNK         0.3000 
    180 H180        4.9279  -11.2049  -44.3242 H         1 UNK         0.0600 
    181 H181        6.0008  -13.1650  -42.2246 H         1 UNK         0.0600 
    182 H182        6.2734  -11.4271  -42.2345 H         1 UNK         0.0600 
    183 H183        6.9401  -12.4197  -43.5193 H         1 UNK         0.0600 
    184 H184        5.1662  -14.0593  -44.3449 H         1 UNK         0.3000 
    185 H185        4.8716  -14.8569  -46.6177 H         1 UNK         0.0600 
    186 H186        3.6838  -16.0089  -44.8060 H         1 UNK         0.0600 
    187 H187        2.1160  -15.4461  -45.3804 H         1 UNK         0.0600 
    188 H188        3.0370  -16.6274  -46.3098 H         1 UNK         0.0600 
    189 H189        2.5156  -13.5949  -47.7340 H         1 UNK         0.3000 
    190 H190       -1.5699  -21.4883  -46.2434 H         1 UNK         0.3000 
    191 H191       -2.7527  -22.9330  -48.3499 H         1 UNK         0.0600 
    192 H192       -4.1271  -22.0089  -45.7845 H         1 UNK         0.0600 
    193 H193       -4.8689  -22.3009  -47.3479 H         1 UNK         0.0600 
    194 H194       -3.7612  -20.9532  -47.1411 H         1 UNK         0.0600 
    195 H195       -2.3648  -23.8227  -44.9036 H         1 UNK         0.3000 
    196 H196       -3.6861  -26.3573  -45.0834 H         1 UNK         0.0600 
    197 H197       -1.5954  -25.3439  -43.0843 H         1 UNK         0.0600 
    198 H198       -2.6199  -26.7575  -42.8695 H         1 UNK         0.0600 
    199 H199       -3.3409  -25.1558  -42.9381 H         1 UNK         0.0600 
    200 H200       -0.2549  -25.3842  -45.4277 H         1 UNK         0.3000 
    201 H201        0.8195  -27.9996  -45.5804 H         1 UNK         0.0600 
    202 H202        1.9486  -25.3238  -46.5475 H         1 UNK         0.0600 
    203 H203        2.8752  -26.8094  -46.3754 H         1 UNK         0.0600 
    204 H204        2.1783  -26.0467  -44.9558 H         1 UNK         0.0600 
    205 H205       -0.1418  -25.7281  -48.2114 H         1 UNK         0.3000 
    206 H206       -0.2517  -27.9549  -50.1280 H         1 UNK         0.0600 
    207 H207        1.4010  -26.8796  -51.6945 H         1 UNK         0.0600 
    208 H208        1.8191  -25.7144  -50.4442 H         1 UNK         0.0600 
    209 H209        2.1653  -27.4277  -50.2126 H         1 UNK         0.0600 
    210 H210       -0.5719  -24.4622  -49.5467 H         1 UNK         0.3000 
    211 H211       -1.8329  -22.8635  -50.3578 H         1 UNK         0.0600 
    212 H212       -3.6276  -24.9001  -51.7758 H         1 UNK         0.0600 
    213 H213       -4.0490  -23.2664  -51.2976 H         1 UNK         0.0600 
    214 H214       -3.7810  -24.4869  -50.0731 H         1 UNK         0.0600 
    215 H215       -2.7754  -21.8369  -52.4438 H         1 UNK         0.3000 
    216 H216       -1.1768  -22.5020  -54.8636 H         1 UNK         0.0600 
    217 H217       -0.7709  -20.0617  -55.1809 H         1 UNK         0.0600 
    218 H218       -0.0339  -20.6285  -53.6914 H         1 UNK         0.0600 
    219 H219       -1.5410  -19.7216  -53.6348 H         1 UNK         0.0600 
    220 H220       -3.8494  -23.1693  -54.0036 H         1 UNK         0.3000 
    221 H221       -5.8730  -23.4879  -54.7825 H         1 UNK         0.0600 
    222 H222       -5.2335  -21.7887  -57.2558 H         1 UNK         0.0600 
    223 H223       -4.8540  -23.5034  -57.1025 H         1 UNK         0.0600 
    224 H224       -6.5231  -22.9661  -57.0860 H         1 UNK         0.0600 
    225 H225       -7.9933  -22.4081  -55.3227 H         1 UNK         0.3000 
    226 H226       -8.5701  -20.4514  -53.3927 H         1 UNK         0.0600 
    227 H227      -10.2010  -22.1410  -54.1865 H         1 UNK         0.0600 
    228 H228      -10.8589  -20.5275  -54.4002 H         1 UNK         0.0600 
    229 H229      -10.2287  -21.4043  -55.7897 H         1 UNK         0.0600 
    230 H230       -7.5774  -20.0139  -56.7049 H         1 UNK         0.3000 
    231 H231       -8.4910  -17.3574  -57.1777 H         1 UNK         0.0600 
    232 H232       -7.6651  -18.8561  -58.9777 H         1 UNK         0.0600 
    233 H233       -6.0501  -18.8643  -58.2669 H         1 UNK         0.0600 
    234 H234       -6.7137  -17.3803  -58.9405 H         1 UNK         0.0600 
    235 H235       -5.7986  -18.6158  -55.2672 H         1 UNK         0.3000 
    236 H236       -4.7368  -15.8645  -54.7694 H         1 UNK         0.0600 
    237 H237       -2.7700  -17.0570  -53.8544 H         1 UNK         0.0600 
    238 H238       -3.5301  -18.6120  -54.1715 H         1 UNK         0.0600 
    239 H239       -3.0645  -17.5677  -55.5109 H         1 UNK         0.0600 
    240 H240       -5.8091  -18.9109  -53.1568 H         1 UNK         0.3000 
    241 H241       -5.6271  -17.6565  -50.5420 H         1 UNK         0.0600 
    242 H242       -9.5127  -17.4656  -51.4428 H         1 UNK         0.3800 
    243 H243       -8.3309  -17.6872  -52.7012 H         1 UNK         0.3800 
    244 H244       -5.9536  -19.8901  -49.6266 H         1 UNK         0.0800 
    245 H245       -6.4979  -20.5036  -51.1680 H         1 UNK         0.0800 
    246 H246       -3.2539  -19.6660  -48.9646 H         1 UNK         0.0800 
    247 H247       -3.5205  -18.2403  -49.9375 H         1 UNK         0.0800 
@<TRIPOS>BOND
     1    1    2 1    
     2    1  127 1    
     3    1  128 1    
     4    1  129 1    
     5    2    3 2    
     6    2    4 am   BACKBONE|DICT|INTERRES
     7    4    5 1    
     8    4  130 1    
     9    5    6 1    
    10    5   65 1    
    11    5  131 1    
    12    6    7 1    
    13    6  132 1    
    14    6  133 1    
    15    7    8 1    
    16    8    9 1    
    17    8  134 1    
    18    8  135 1    
    19    9   10 ar   
    20    9   14 ar   
    21   10   11 ar   
    22   10  136 1    
    23   11   12 ar   
    24   11  126 1    
    25   12   13 ar   
    26   12  137 1    
    27   13   14 ar   
    28   13   15 1    
    29   14  138 1    
    30   15   16 1    
    31   15  139 1    
    32   15  140 1    
    33   16   17 1    
    34   17   18 1    
    35   17  141 1    
    36   17  142 1    
    37   18   19 1    
    38   18   67 1    
    39   18  143 1    
    40   19   20 am   BACKBONE|DICT|INTERRES
    41   19  144 1    
    42   20   21 2    
    43   20   22 1    
    44   22   23 1    
    45   22   24 1    
    46   22  145 1    
    47   23  146 1    
    48   23  147 1    
    49   23  148 1    
    50   24   25 am   BACKBONE|DICT|INTERRES
    51   24  149 1    
    52   25   26 2    
    53   25   27 1    
    54   27   28 1    
    55   27   29 1    
    56   27  150 1    
    57   28  151 1    
    58   28  152 1    
    59   28  153 1    
    60   29   30 am   BACKBONE|DICT|INTERRES
    61   29  154 1    
    62   30   31 2    
    63   30   32 1    
    64   32   33 1    
    65   32   34 1    
    66   32  155 1    
    67   33  156 1    
    68   33  157 1    
    69   33  158 1    
    70   34   35 am   BACKBONE|DICT|INTERRES
    71   34  159 1    
    72   35   36 2    
    73   35   37 1    
    74   37   38 1    
    75   37   39 1    
    76   37  160 1    
    77   38  161 1    
    78   38  162 1    
    79   38  163 1    
    80   39   40 am   BACKBONE|DICT|INTERRES
    81   39  164 1    
    82   40   41 2    
    83   40   42 1    
    84   42   43 1    
    85   42   44 1    
    86   42  165 1    
    87   43  166 1    
    88   43  167 1    
    89   43  168 1    
    90   44   45 am   BACKBONE|DICT|INTERRES
    91   44  169 1    
    92   45   46 2    
    93   45   47 1    
    94   47   48 1    
    95   47   49 1    
    96   47  170 1    
    97   48  171 1    
    98   48  172 1    
    99   48  173 1    
   100   49   50 am   BACKBONE|DICT|INTERRES
   101   49  174 1    
   102   50   51 2    
   103   50   52 1    
   104   52   53 1    
   105   52   54 1    
   106   52  175 1    
   107   53  176 1    
   108   53  177 1    
   109   53  178 1    
   110   54   55 am   BACKBONE|DICT|INTERRES
   111   54  179 1    
   112   55   56 2    
   113   55   57 1    
   114   57   58 1    
   115   57   59 1    
   116   57  180 1    
   117   58  181 1    
   118   58  182 1    
   119   58  183 1    
   120   59   60 am   BACKBONE|DICT|INTERRES
   121   59  184 1    
   122   60   61 2    
   123   60   62 1    
   124   62   63 1    
   125   62   64 1    
   126   62  185 1    
   127   63  186 1    
   128   63  187 1    
   129   63  188 1    
   130   64   65 am   BACKBONE|DICT|INTERRES
   131   64  189 1    
   132   65   66 2    
   133   67   68 2    
   134   67   69 am   BACKBONE|DICT|INTERRES
   135   69   70 1    
   136   69  190 1    
   137   70   71 1    
   138   70   72 1    
   139   70  191 1    
   140   71  192 1    
   141   71  193 1    
   142   71  194 1    
   143   72   73 2    
   144   72   74 am   BACKBONE|DICT|INTERRES
   145   74   75 1    
   146   74  195 1    
   147   75   76 1    
   148   75   77 1    
   149   75  196 1    
   150   76  197 1    
   151   76  198 1    
   152   76  199 1    
   153   77   78 2    
   154   77   79 am   BACKBONE|DICT|INTERRES
   155   79   80 1    
   156   79  200 1    
   157   80   81 1    
   158   80   82 1    
   159   80  201 1    
   160   81  202 1    
   161   81  203 1    
   162   81  204 1    
   163   82   83 2    
   164   82   84 am   BACKBONE|DICT|INTERRES
   165   84   85 1    
   166   84  205 1    
   167   85   86 1    
   168   85   87 1    
   169   85  206 1    
   170   86  207 1    
   171   86  208 1    
   172   86  209 1    
   173   87   88 2    
   174   87   89 am   BACKBONE|DICT|INTERRES
   175   89   90 1    
   176   89  210 1    
   177   90   91 1    
   178   90   92 1    
   179   90  211 1    
   180   91  212 1    
   181   91  213 1    
   182   91  214 1    
   183   92   93 2    
   184   92   94 am   BACKBONE|DICT|INTERRES
   185   94   95 1    
   186   94  215 1    
   187   95   96 1    
   188   95   97 1    
   189   95  216 1    
   190   96  217 1    
   191   96  218 1    
   192   96  219 1    
   193   97   98 2    
   194   97   99 am   BACKBONE|DICT|INTERRES
   195   99  100 1    
   196   99  220 1    
   197  100  101 1    
   198  100  102 1    
   199  100  221 1    
   200  101  222 1    
   201  101  223 1    
   202  101  224 1    
   203  102  103 2    
   204  102  104 am   BACKBONE|DICT|INTERRES
   205  104  105 1    
   206  104  225 1    
   207  105  106 1    
   208  105  107 1    
   209  105  226 1    
   210  106  227 1    
   211  106  228 1    
   212  106  229 1    
   213  107  108 2    
   214  107  109 am   BACKBONE|DICT|INTERRES
   215  109  110 1    
   216  109  230 1    
   217  110  111 1    
   218  110  112 1    
   219  110  231 1    
   220  111  232 1    
   221  111  233 1    
   222  111  234 1    
   223  112  113 2    
   224  112  114 am   BACKBONE|DICT|INTERRES
   225  114  115 1    
   226  114  235 1    
   227  115  116 1    
   228  115  117 1    
   229  115  236 1    
   230  116  237 1    
   231  116  238 1    
   232  116  239 1    
   233  117  118 2    
   234  117  119 am   BACKBONE|DICT|INTERRES
   235  119  120 1    
   236  119  240 1    
   237  120  121 1    
   238  120  124 1    
   239  120  241 1    
   240  121  122 am   BACKBONE|DICT|INTERRES
   241  121  123 2    
   242  122  242 1    
   243  122  243 1    
   244  124  125 1    
   245  124  244 1    
   246  124  245 1    
   247  125  126 1    
   248  126  246 1    
   249  126  247 1    
@<TRIPOS>SUBSTRUCTURE
     1 UNK         1 GROUP             0       ****    0 ROOT    
