@<TRIPOS>MOLECULE
3R540
247   249    1
SMALL
USER_CHARGES


@<TRIPOS>ATOM
      1 CA         -1.0457  -14.7906  -51.0932 C.3       0 UNK        -0.1800 
      2 C          -0.3531  -14.6612  -49.7442 C.2       0 UNK         0.5000 
      3 O          -0.8234  -15.2256  -48.7599 O.2       0 UNK        -0.5000 
      4 N           0.7553  -13.9094  -49.6977 N.am      1 UNK        -0.5000 
      5 CA          1.6158  -13.6712  -48.5232 C.3       1 UNK         0.1400 
      6 C6          2.1932  -14.9652  -47.8779 C.3       23 UNK        -0.0398 
      7 S7          2.9823  -16.1046  -49.0696 S.3       23 UNK        -0.2404 
      8 C8          1.9526  -17.5823  -48.8203 C.3       23 UNK        -0.0205 
      9 C9          2.3946  -18.7466  -49.6897 C.ar      23 UNK        -0.0193 
     10 C10         1.6637  -19.0965  -50.8289 C.ar      23 UNK        -0.1150 
     11 C11         2.0455  -20.1942  -51.6064 C.ar      23 UNK        -0.0193 
     12 C12         3.1702  -20.9383  -51.2405 C.ar      23 UNK        -0.1150 
     13 C13         3.9080  -20.5994  -50.1030 C.ar      23 UNK        -0.0193 
     14 C14         3.5172  -19.4993  -49.3342 C.ar      23 UNK        -0.1150 
     15 C15         5.1175  -21.4346  -49.7019 C.3       23 UNK        -0.0205 
     16 S16         4.9244  -22.2245  -48.0700 S.3       23 UNK        -0.2404 
     17 C17         3.2586  -22.9600  -48.2082 C.3       23 UNK        -0.0398 
     18 CA          3.0012  -24.0617  -47.1530 C.3       11 UNK         0.1400 
     19 N           3.0910  -23.5429  -45.7824 N.am      11 UNK        -0.5000 
     20 C           3.3701  -24.2905  -44.7071 C.2       10 UNK         0.5000 
     21 O           3.5857  -25.5022  -44.7546 O.2       10 UNK        -0.5000 
     22 CA          3.3924  -23.5711  -43.3470 C.3       10 UNK         0.1400 
     23 CB          4.7235  -22.8288  -43.1534 C.3       10 UNK        -0.1800 
     24 N           2.2778  -22.6393  -43.1585 N.am      10 UNK        -0.5000 
     25 C           0.9848  -22.9889  -43.0902 C.2       9 UNK         0.5000 
     26 O           0.5802  -24.1442  -43.2203 O.2       9 UNK        -0.5000 
     27 CA         -0.0333  -21.8538  -42.8670 C.3       9 UNK         0.1400 
     28 CB         -0.0314  -21.3830  -41.4046 C.3       9 UNK        -0.1800 
     29 N           0.2050  -20.7137  -43.7493 N.am      9 UNK        -0.5000 
     30 C           0.0579  -20.7497  -45.0805 C.2       8 UNK         0.5000 
     31 O          -0.3675  -21.7258  -45.6987 O.2       8 UNK        -0.5000 
     32 CA          0.5160  -19.5042  -45.8569 C.3       8 UNK         0.1400 
     33 CB         -0.5922  -18.4408  -45.9151 C.3       8 UNK        -0.1800 
     34 N           1.7357  -18.9222  -45.2956 N.am      8 UNK        -0.5000 
     35 C           2.9298  -19.5325  -45.3103 C.2       7 UNK         0.5000 
     36 O           3.1186  -20.6475  -45.7908 O.2       7 UNK        -0.5000 
     37 CA          4.0939  -18.7918  -44.6307 C.3       7 UNK         0.1400 
     38 CB          4.6615  -17.7103  -45.5630 C.3       7 UNK        -0.1800 
     39 N           3.7003  -18.1817  -43.3605 N.am      7 UNK        -0.5000 
     40 C           3.2792  -18.8616  -42.2834 C.2       6 UNK         0.5000 
     41 O           3.2259  -20.0886  -42.2262 O.2       6 UNK        -0.5000 
     42 CA          2.7795  -18.0264  -41.0907 C.3       6 UNK         0.1400 
     43 CB          3.9381  -17.6934  -40.1394 C.3       6 UNK        -0.1800 
     44 N           2.1188  -16.7874  -41.5087 N.am      6 UNK        -0.5000 
     45 C           0.9818  -16.7396  -42.2149 C.2       5 UNK         0.5000 
     46 O           0.3543  -17.7398  -42.5738 O.2       5 UNK        -0.5000 
     47 CA          0.5196  -15.3418  -42.6581 C.3       5 UNK         0.1400 
     48 CB          0.9954  -15.0606  -44.0898 C.3       5 UNK        -0.1800 
     49 N          -0.9325  -15.1939  -42.6042 N.am      5 UNK        -0.5000 
     50 C          -1.6518  -15.1484  -41.4749 C.2       4 UNK         0.5000 
     51 O          -1.1495  -15.2117  -40.3507 O.2       4 UNK        -0.5000 
     52 CA         -3.1838  -15.0082  -41.6268 C.3       4 UNK         0.1400 
     53 CB         -3.8493  -14.3666  -40.3906 C.3       4 UNK        -0.1800 
     54 N          -3.6098  -14.3213  -42.8544 N.am      4 UNK        -0.5000 
     55 C          -3.3215  -13.0654  -43.2268 C.2       3 UNK         0.5000 
     56 O          -2.6201  -12.2863  -42.5772 O.2       3 UNK        -0.5000 
     57 CA         -3.9600  -12.5951  -44.5472 C.3       3 UNK         0.1400 
     58 CB         -5.1835  -11.7082  -44.2681 C.3       3 UNK        -0.1800 
     59 N          -3.0221  -11.8620  -45.3981 N.am      3 UNK        -0.5000 
     60 C          -1.9290  -12.3919  -45.9617 C.2       2 UNK         0.5000 
     61 O          -1.5876  -13.5657  -45.7997 O.2       2 UNK        -0.5000 
     62 CA         -1.1311  -11.4495  -46.8888 C.3       2 UNK         0.1400 
     63 CB         -0.4405  -10.3137  -46.1048 C.3       2 UNK        -0.1800 
     64 N          -0.1983  -12.1738  -47.7627 N.am      2 UNK        -0.5000 
     65 C           0.9695  -12.7578  -47.4503 C.2       1 UNK         0.5000 
     66 O           1.5571  -12.5900  -46.3814 O.2       1 UNK        -0.5000 
     67 C           1.6549  -24.7657  -47.4347 C.2       11 UNK         0.5000 
     68 O           1.5245  -25.3886  -48.4893 O.2       11 UNK        -0.5000 
     69 N           0.6848  -24.6465  -46.5125 N.am      12 UNK        -0.5000 
     70 CA         -0.6957  -25.1340  -46.6032 C.3       12 UNK         0.1400 
     71 CB         -0.7398  -26.6759  -46.5890 C.3       12 UNK        -0.1800 
     72 C          -1.4347  -24.5103  -47.8043 C.2       12 UNK         0.5000 
     73 O          -2.0146  -25.2188  -48.6274 O.2       12 UNK        -0.5000 
     74 N          -1.3597  -23.1768  -47.8893 N.am      13 UNK        -0.5000 
     75 CA         -1.8607  -22.3708  -49.0000 C.3       13 UNK         0.1400 
     76 CB         -1.1236  -21.0247  -48.9956 C.3       13 UNK        -0.1800 
     77 C          -3.3853  -22.1627  -48.9942 C.2       13 UNK         0.5000 
     78 O          -3.9217  -21.6993  -50.0009 O.2       13 UNK        -0.5000 
     79 N          -4.0510  -22.5083  -47.8823 N.am      14 UNK        -0.5000 
     80 CA         -5.4798  -22.3286  -47.6121 C.3       14 UNK         0.1400 
     81 CB         -6.3484  -23.2013  -48.5449 C.3       14 UNK        -0.1800 
     82 C          -5.8497  -20.8337  -47.6113 C.2       14 UNK         0.5000 
     83 O          -5.4084  -20.1176  -46.7109 O.2       14 UNK        -0.5000 
     84 N          -6.6295  -20.3801  -48.6020 N.am      15 UNK        -0.5000 
     85 CA         -6.9857  -18.9702  -48.7690 C.3       15 UNK         0.1400 
     86 CB         -8.2463  -18.8606  -49.6353 C.3       15 UNK        -0.1800 
     87 C          -5.8369  -18.1408  -49.3722 C.2       15 UNK         0.5000 
     88 O          -5.8160  -16.9248  -49.1787 O.2       15 UNK        -0.5000 
     89 N          -4.9123  -18.8078  -50.0812 N.am      16 UNK        -0.5000 
     90 CA         -3.6557  -18.3208  -50.6629 C.3       16 UNK         0.1400 
     91 CB         -2.7138  -17.7999  -49.5630 C.3       16 UNK        -0.1800 
     92 C          -3.8149  -17.2896  -51.7973 C.2       16 UNK         0.5000 
     93 O          -3.2335  -17.4744  -52.8651 O.2       16 UNK        -0.5000 
     94 N          -4.5845  -16.2241  -51.5532 N.am      17 UNK        -0.5000 
     95 CA         -4.8677  -15.1539  -52.5096 C.3       17 UNK         0.1400 
     96 CB         -5.2157  -13.8743  -51.7335 C.3       17 UNK        -0.1800 
     97 C          -6.0065  -15.5193  -53.4793 C.2       17 UNK         0.5000 
     98 O          -6.0140  -15.0358  -54.6120 O.2       17 UNK        -0.5000 
     99 N          -6.9453  -16.3523  -53.0128 N.am      18 UNK        -0.5000 
    100 CA        -8.0860  -16.8551  -53.7729 C.3       18 UNK         0.1400 
    101 CB        -9.3724  -16.6344  -52.9517 C.3       18 UNK        -0.1800 
    102 C         -7.8158  -18.3272  -54.1227 C.2       18 UNK         0.5000 
    103 O         -7.0897  -18.5956  -55.0809 O.2       18 UNK        -0.5000 
    104 N         -8.3778  -19.2534  -53.3346 N.am      19 UNK        -0.5000 
    105 CA        -8.1206  -20.6912  -53.3970 C.3       19 UNK         0.1400 
    106 CB        -9.2102  -21.4329  -52.6028 C.3       19 UNK        -0.1800 
    107 C         -6.7070  -21.0105  -52.8742 C.2       19 UNK         0.5000 
    108 O         -6.5270  -21.2474  -51.6779 O.2       19 UNK        -0.5000 
    109 N         -5.7279  -20.9560  -53.7819 N.am      20 UNK        -0.5000 
    110 CA        -4.3210  -21.2429  -53.5349 C.3       20 UNK         0.1400 
    111 CB        -3.4796  -20.5158  -54.5984 C.3       20 UNK        -0.1800 
    112 C         -4.0813  -22.7616  -53.5521 C.2       20 UNK         0.5000 
    113 O         -3.7045  -23.3172  -54.5867 O.2       20 UNK        -0.5000 
    114 N         -4.2980  -23.4169  -52.4047 N.am      21 UNK        -0.5000 
    115 CA        -4.0807  -24.8590  -52.2182 C.3       21 UNK         0.1400 
    116 CB        -4.6969  -25.2995  -50.8842 C.3       21 UNK        -0.1800 
    117 C         -2.5975  -25.2802  -52.3178 C.2       21 UNK         0.5000 
    118 O         -2.3081  -26.4596  -52.5217 O.2       21 UNK        -0.5000 
    119 N         -1.6966  -24.2969  -52.2210 N.am      22 UNK        -0.5000 
    120 CA        -0.2672  -24.3834  -52.5414 C.3       22 UNK         0.1400 
    121 C          0.0496  -24.5733  -54.0567 C.2       22 UNK         0.5000 
    122 N         -0.8923  -24.3793  -54.9746 N.am      22 UNK        -0.7600 
    123 O          1.1762  -24.9154  -54.4054 O.2       22 UNK        -0.5000 
    124 C124        0.5049  -23.1744  -51.9483 C.3       23 UNK        -0.0398 
    125 S125       -0.2261  -21.5565  -52.4070 S.3       23 UNK        -0.2404 
    126 C126        1.2421  -20.5754  -52.8404 C.3       23 UNK        -0.0205 
    127 H127       -0.9318  -15.8040  -51.4777 H         1 UNK         0.0600 
    128 H128       -0.6353  -14.0988  -51.8288 H         1 UNK         0.0600 
    129 H129       -2.1100  -14.5826  -50.9890 H         1 UNK         0.0600 
    130 H130        1.0791  -13.4732  -50.5499 H         1 UNK         0.3000 
    131 H131        2.4646  -13.1027  -48.9059 H         1 UNK         0.0600 
    132 H132        2.9504  -14.7081  -47.1354 H         1 UNK         0.0800 
    133 H133        1.4119  -15.4921  -47.3275 H         1 UNK         0.0800 
    134 H134        2.0137  -17.8750  -47.7743 H         1 UNK         0.0800 
    135 H135        0.9068  -17.3403  -49.0131 H         1 UNK         0.0800 
    136 H136        0.7893  -18.5240  -51.1053 H         1 UNK         0.1150 
    137 H137        3.4681  -21.7869  -51.8396 H         1 UNK         0.1150 
    138 H138        4.0786  -19.2410  -48.4479 H         1 UNK         0.1150 
    139 H139        5.3142  -22.2106  -50.4432 H         1 UNK         0.0800 
    140 H140        6.0018  -20.7964  -49.6840 H         1 UNK         0.0800 
    141 H141        2.5170  -22.1639  -48.1160 H         1 UNK         0.0800 
    142 H142        3.1549  -23.3641  -49.2171 H         1 UNK         0.0800 
    143 H143        3.7754  -24.8215  -47.2805 H         1 UNK         0.0600 
    144 H144        2.9885  -22.5355  -45.6777 H         1 UNK         0.3000 
    145 H145        3.3173  -24.3347  -42.5701 H         1 UNK         0.0600 
    146 H146        4.7955  -22.4034  -42.1524 H         1 UNK         0.0600 
    147 H147        4.8382  -22.0165  -43.8718 H         1 UNK         0.0600 
    148 H148        5.5710  -23.5034  -43.2812 H         1 UNK         0.0600 
    149 H149        2.5304  -21.6667  -43.0026 H         1 UNK         0.3000 
    150 H150       -1.0265  -22.2489  -43.0912 H         1 UNK         0.0600 
    151 H151       -0.2498  -22.2109  -40.7290 H         1 UNK         0.0600 
    152 H152       -0.7888  -20.6169  -41.2369 H         1 UNK         0.0600 
    153 H153        0.9328  -20.9675  -41.1122 H         1 UNK         0.0600 
    154 H154        0.5359  -19.8580  -43.3207 H         1 UNK         0.3000 
    155 H155        0.7365  -19.8209  -46.8784 H         1 UNK         0.0600 
    156 H156       -1.5130  -18.8549  -46.3269 H         1 UNK         0.0600 
    157 H157       -0.3047  -17.6016  -46.5489 H         1 UNK         0.0600 
    158 H158       -0.8304  -18.0480  -44.9268 H         1 UNK         0.0600 
    159 H159        1.6423  -18.0401  -44.8158 H         1 UNK         0.3000 
    160 H160        4.8821  -19.5196  -44.4271 H         1 UNK         0.0600 
    161 H161        3.9190  -16.9471  -45.8000 H         1 UNK         0.0600 
    162 H162        4.9963  -18.1449  -46.5055 H         1 UNK         0.0600 
    163 H163        5.5217  -17.2139  -45.1138 H         1 UNK         0.0600 
    164 H164        3.7207  -17.1743  -43.3126 H         1 UNK         0.3000 
    165 H165        2.0509  -18.6304  -40.5457 H         1 UNK         0.0600 
    166 H166        3.5822  -17.1672  -39.2535 H         1 UNK         0.0600 
    167 H167        4.4351  -18.6025  -39.7979 H         1 UNK         0.0600 
    168 H168        4.6911  -17.0692  -40.6221 H         1 UNK         0.0600 
    169 H169        2.5770  -15.9244  -41.2530 H         1 UNK         0.3000 
    170 H170        0.9611  -14.5953  -41.9945 H         1 UNK         0.0600 
    171 H171        2.0782  -15.1563  -44.1780 H         1 UNK         0.0600 
    172 H172        0.5407  -15.7405  -44.8112 H         1 UNK         0.0600 
    173 H173        0.7364  -14.0443  -44.3833 H         1 UNK         0.0600 
    174 H174       -1.4137  -15.1299  -43.4899 H         1 UNK         0.3000 
    175 H175       -3.5639  -16.0276  -41.7067 H         1 UNK         0.0600 
    176 H176       -3.4693  -13.3620  -40.2023 H         1 UNK         0.0600 
    177 H177       -4.9300  -14.2986  -40.5149 H         1 UNK         0.0600 
    178 H178       -3.6656  -14.9587  -39.4934 H         1 UNK         0.0600 
    179 H179       -4.1883  -14.8750  -43.4711 H         1 UNK         0.3000 
    180 H180       -4.2959  -13.4708  -45.1069 H         1 UNK         0.0600 
    181 H181       -5.6840  -11.4215  -45.1931 H         1 UNK         0.0600 
    182 H182       -4.9062  -10.7957  -43.7384 H         1 UNK         0.0600 
    183 H183       -5.9152  -12.2343  -43.6534 H         1 UNK         0.0600 
    184 H184       -3.2285  -10.8860  -45.5511 H         1 UNK         0.3000 
    185 H185       -1.8537  -10.9894  -47.5645 H         1 UNK         0.0600 
    186 H186        0.1858   -9.7050  -46.7569 H         1 UNK         0.0600 
    187 H187       -1.1769   -9.6491  -45.6521 H         1 UNK         0.0600 
    188 H188        0.1833  -10.6951  -45.2961 H         1 UNK         0.0600 
    189 H189       -0.5729  -12.4103  -48.6699 H         1 UNK         0.3000 
    190 H190        0.8960  -24.1053  -45.6848 H         1 UNK         0.3000 
    191 H191       -1.2062  -24.7805  -45.7061 H         1 UNK         0.0600 
    192 H192       -1.7689  -27.0344  -46.5473 H         1 UNK         0.0600 
    193 H193       -0.2206  -27.0754  -45.7178 H         1 UNK         0.0600 
    194 H194       -0.2811  -27.1061  -47.4796 H         1 UNK         0.0600 
    195 H195       -0.8961  -22.6700  -47.1361 H         1 UNK         0.3000 
    196 H196       -1.6192  -22.8865  -49.9273 H         1 UNK         0.0600 
    197 H197       -1.3520  -20.4513  -48.0988 H         1 UNK         0.0600 
    198 H198       -1.4075  -20.4196  -49.8562 H         1 UNK         0.0600 
    199 H199       -0.0430  -21.1630  -49.0439 H         1 UNK         0.0600 
    200 H200       -3.5012  -22.8516  -47.1085 H         1 UNK         0.3000 
    201 H201       -5.6469  -22.6810  -46.5932 H         1 UNK         0.0600 
    202 H202       -6.2113  -22.9557  -49.5975 H         1 UNK         0.0600 
    203 H203       -7.4082  -23.0858  -48.3150 H         1 UNK         0.0600 
    204 H204       -6.1093  -24.2568  -48.4174 H         1 UNK         0.0600 
    205 H205       -6.8904  -21.0098  -49.3509 H         1 UNK         0.3000 
    206 H206       -7.2171  -18.5483  -47.7886 H         1 UNK         0.0600 
    207 H207       -9.0705  -19.4351  -49.2122 H         1 UNK         0.0600 
    208 H208       -8.5766  -17.8241  -49.7118 H         1 UNK         0.0600 
    209 H209       -8.0631  -19.2252  -50.6429 H         1 UNK         0.0600 
    210 H210       -5.0515  -19.8081  -50.1840 H         1 UNK         0.3000 
    211 H211       -3.1809  -19.1991  -51.1013 H         1 UNK         0.0600 
    212 H212       -3.0526  -16.8481  -49.1526 H         1 UNK         0.0600 
    213 H213       -1.7069  -17.6500  -49.9530 H         1 UNK         0.0600 
    214 H214       -2.6410  -18.5047  -48.7359 H         1 UNK         0.0600 
    215 H215       -5.0351  -16.1741  -50.6416 H         1 UNK         0.3000 
    216 H216       -3.9714  -14.9591  -53.1025 H         1 UNK         0.0600 
    217 H217       -4.3951  -13.5700  -51.0838 H         1 UNK         0.0600 
    218 H218       -6.1018  -14.0093  -51.1118 H         1 UNK         0.0600 
    219 H219       -5.4146  -13.0460  -52.4147 H         1 UNK         0.0600 
    220 H220       -6.8254  -16.7201  -52.0811 H         1 UNK         0.3000 
    221 H221       -8.1955  -16.3150  -54.7156 H         1 UNK         0.0600 
    222 H222      -10.2404  -17.0585  -53.4584 H         1 UNK         0.0600 
    223 H223       -9.3139  -17.0767  -51.9573 H         1 UNK         0.0600 
    224 H224       -9.5670  -15.5696  -52.8221 H         1 UNK         0.0600 
    225 H225       -8.9702  -18.9421  -52.5799 H         1 UNK         0.3000 
    226 H226       -8.1873  -21.0168  -54.4373 H         1 UNK         0.0600 
    227 H227      -10.1985  -21.2477  -53.0238 H         1 UNK         0.0600 
    228 H228       -9.0430  -22.5104  -52.6295 H         1 UNK         0.0600 
    229 H229       -9.2320  -21.1330  -51.5549 H         1 UNK         0.0600 
    230 H230       -5.9686  -20.6928  -54.7278 H         1 UNK         0.3000 
    231 H231       -4.0364  -20.8550  -52.5560 H         1 UNK         0.0600 
    232 H232       -2.4143  -20.6768  -54.4305 H         1 UNK         0.0600 
    233 H233       -3.6547  -19.4410  -54.5719 H         1 UNK         0.0600 
    234 H234       -3.7102  -20.8603  -55.6073 H         1 UNK         0.0600 
    235 H235       -4.5889  -22.8820  -51.5913 H         1 UNK         0.3000 
    236 H236       -4.6110  -25.3802  -53.0179 H         1 UNK         0.0600 
    237 H237       -4.2436  -24.7786  -50.0423 H         1 UNK         0.0600 
    238 H238       -5.7695  -25.1072  -50.8648 H         1 UNK         0.0600 
    239 H239       -4.5558  -26.3684  -50.7203 H         1 UNK         0.0600 
    240 H240       -2.0435  -23.3608  -52.0764 H         1 UNK         0.3000 
    241 H241        0.1122  -25.2804  -52.0485 H         1 UNK         0.0600 
    242 H242       -0.6641  -24.5132  -55.9466 H         1 UNK         0.3800 
    243 H243       -1.8270  -24.0796  -54.7210 H         1 UNK         0.3800 
    244 H244        1.5537  -23.2110  -52.2456 H         1 UNK         0.0800 
    245 H245        0.5152  -23.2437  -50.8600 H         1 UNK         0.0800 
    246 H246        0.9182  -19.6700  -53.3558 H         1 UNK         0.0800 
    247 H247        1.8579  -21.1265  -53.5529 H         1 UNK         0.0800 
@<TRIPOS>BOND
     1    1    2 1    
     2    1  127 1    
     3    1  128 1    
     4    1  129 1    
     5    2    3 2    
     6    2    4 am   BACKBONE|DICT|INTERRES
     7    4    5 1    
     8    4  130 1    
     9    5    6 1    
    10    5   65 1    
    11    5  131 1    
    12    6    7 1    
    13    6  132 1    
    14    6  133 1    
    15    7    8 1    
    16    8    9 1    
    17    8  134 1    
    18    8  135 1    
    19    9   10 ar   
    20    9   14 ar   
    21   10   11 ar   
    22   10  136 1    
    23   11   12 ar   
    24   11  126 1    
    25   12   13 ar   
    26   12  137 1    
    27   13   14 ar   
    28   13   15 1    
    29   14  138 1    
    30   15   16 1    
    31   15  139 1    
    32   15  140 1    
    33   16   17 1    
    34   17   18 1    
    35   17  141 1    
    36   17  142 1    
    37   18   19 1    
    38   18   67 1    
    39   18  143 1    
    40   19   20 am   BACKBONE|DICT|INTERRES
    41   19  144 1    
    42   20   21 2    
    43   20   22 1    
    44   22   23 1    
    45   22   24 1    
    46   22  145 1    
    47   23  146 1    
    48   23  147 1    
    49   23  148 1    
    50   24   25 am   BACKBONE|DICT|INTERRES
    51   24  149 1    
    52   25   26 2    
    53   25   27 1    
    54   27   28 1    
    55   27   29 1    
    56   27  150 1    
    57   28  151 1    
    58   28  152 1    
    59   28  153 1    
    60   29   30 am   BACKBONE|DICT|INTERRES
    61   29  154 1    
    62   30   31 2    
    63   30   32 1    
    64   32   33 1    
    65   32   34 1    
    66   32  155 1    
    67   33  156 1    
    68   33  157 1    
    69   33  158 1    
    70   34   35 am   BACKBONE|DICT|INTERRES
    71   34  159 1    
    72   35   36 2    
    73   35   37 1    
    74   37   38 1    
    75   37   39 1    
    76   37  160 1    
    77   38  161 1    
    78   38  162 1    
    79   38  163 1    
    80   39   40 am   BACKBONE|DICT|INTERRES
    81   39  164 1    
    82   40   41 2    
    83   40   42 1    
    84   42   43 1    
    85   42   44 1    
    86   42  165 1    
    87   43  166 1    
    88   43  167 1    
    89   43  168 1    
    90   44   45 am   BACKBONE|DICT|INTERRES
    91   44  169 1    
    92   45   46 2    
    93   45   47 1    
    94   47   48 1    
    95   47   49 1    
    96   47  170 1    
    97   48  171 1    
    98   48  172 1    
    99   48  173 1    
   100   49   50 am   BACKBONE|DICT|INTERRES
   101   49  174 1    
   102   50   51 2    
   103   50   52 1    
   104   52   53 1    
   105   52   54 1    
   106   52  175 1    
   107   53  176 1    
   108   53  177 1    
   109   53  178 1    
   110   54   55 am   BACKBONE|DICT|INTERRES
   111   54  179 1    
   112   55   56 2    
   113   55   57 1    
   114   57   58 1    
   115   57   59 1    
   116   57  180 1    
   117   58  181 1    
   118   58  182 1    
   119   58  183 1    
   120   59   60 am   BACKBONE|DICT|INTERRES
   121   59  184 1    
   122   60   61 2    
   123   60   62 1    
   124   62   63 1    
   125   62   64 1    
   126   62  185 1    
   127   63  186 1    
   128   63  187 1    
   129   63  188 1    
   130   64   65 am   BACKBONE|DICT|INTERRES
   131   64  189 1    
   132   65   66 2    
   133   67   68 2    
   134   67   69 am   BACKBONE|DICT|INTERRES
   135   69   70 1    
   136   69  190 1    
   137   70   71 1    
   138   70   72 1    
   139   70  191 1    
   140   71  192 1    
   141   71  193 1    
   142   71  194 1    
   143   72   73 2    
   144   72   74 am   BACKBONE|DICT|INTERRES
   145   74   75 1    
   146   74  195 1    
   147   75   76 1    
   148   75   77 1    
   149   75  196 1    
   150   76  197 1    
   151   76  198 1    
   152   76  199 1    
   153   77   78 2    
   154   77   79 am   BACKBONE|DICT|INTERRES
   155   79   80 1    
   156   79  200 1    
   157   80   81 1    
   158   80   82 1    
   159   80  201 1    
   160   81  202 1    
   161   81  203 1    
   162   81  204 1    
   163   82   83 2    
   164   82   84 am   BACKBONE|DICT|INTERRES
   165   84   85 1    
   166   84  205 1    
   167   85   86 1    
   168   85   87 1    
   169   85  206 1    
   170   86  207 1    
   171   86  208 1    
   172   86  209 1    
   173   87   88 2    
   174   87   89 am   BACKBONE|DICT|INTERRES
   175   89   90 1    
   176   89  210 1    
   177   90   91 1    
   178   90   92 1    
   179   90  211 1    
   180   91  212 1    
   181   91  213 1    
   182   91  214 1    
   183   92   93 2    
   184   92   94 am   BACKBONE|DICT|INTERRES
   185   94   95 1    
   186   94  215 1    
   187   95   96 1    
   188   95   97 1    
   189   95  216 1    
   190   96  217 1    
   191   96  218 1    
   192   96  219 1    
   193   97   98 2    
   194   97   99 am   BACKBONE|DICT|INTERRES
   195   99  100 1    
   196   99  220 1    
   197  100  101 1    
   198  100  102 1    
   199  100  221 1    
   200  101  222 1    
   201  101  223 1    
   202  101  224 1    
   203  102  103 2    
   204  102  104 am   BACKBONE|DICT|INTERRES
   205  104  105 1    
   206  104  225 1    
   207  105  106 1    
   208  105  107 1    
   209  105  226 1    
   210  106  227 1    
   211  106  228 1    
   212  106  229 1    
   213  107  108 2    
   214  107  109 am   BACKBONE|DICT|INTERRES
   215  109  110 1    
   216  109  230 1    
   217  110  111 1    
   218  110  112 1    
   219  110  231 1    
   220  111  232 1    
   221  111  233 1    
   222  111  234 1    
   223  112  113 2    
   224  112  114 am   BACKBONE|DICT|INTERRES
   225  114  115 1    
   226  114  235 1    
   227  115  116 1    
   228  115  117 1    
   229  115  236 1    
   230  116  237 1    
   231  116  238 1    
   232  116  239 1    
   233  117  118 2    
   234  117  119 am   BACKBONE|DICT|INTERRES
   235  119  120 1    
   236  119  240 1    
   237  120  121 1    
   238  120  124 1    
   239  120  241 1    
   240  121  122 am   BACKBONE|DICT|INTERRES
   241  121  123 2    
   242  122  242 1    
   243  122  243 1    
   244  124  125 1    
   245  124  244 1    
   246  124  245 1    
   247  125  126 1    
   248  126  246 1    
   249  126  247 1    
@<TRIPOS>SUBSTRUCTURE
     1 UNK         1 GROUP             0       ****    0 ROOT    
