@<TRIPOS>MOLECULE
3R540
247   249    1
SMALL
USER_CHARGES


@<TRIPOS>ATOM
      1 CA          4.0323  -10.6244  -49.6361 C.3       0 UNK        -0.1800 
      2 C           2.8392  -11.4064  -49.1086 C.2       0 UNK         0.5000 
      3 O           3.0073  -12.2795  -48.2582 O.2       0 UNK        -0.5000 
      4 N           1.6321  -11.0885  -49.5934 N.am      1 UNK        -0.5000 
      5 CA          0.3713  -11.7595  -49.2434 C.3       1 UNK         0.1400 
      6 C6         -0.8260  -11.2461  -50.0825 C.3       23 UNK        -0.0398 
      7 S7         -0.5008  -11.2653  -51.8797 S.3       23 UNK        -0.2404 
      8 C8         -1.5004  -12.6833  -52.4374 C.3       23 UNK        -0.0205 
      9 C9         -1.0380  -14.0149  -51.8579 C.ar      23 UNK        -0.0193 
     10 C10         0.2963  -14.4190  -51.9700 C.ar      23 UNK        -0.1150 
     11 C11         0.7131  -15.6523  -51.4612 C.ar      23 UNK        -0.0193 
     12 C12        -0.2209  -16.4939  -50.8518 C.ar      23 UNK        -0.1150 
     13 C13        -1.5620  -16.1125  -50.7530 C.ar      23 UNK        -0.0193 
     14 C14        -1.9611  -14.8676  -51.2464 C.ar      23 UNK        -0.1150 
     15 C15        -2.5970  -17.0654  -50.1763 C.3       23 UNK        -0.0205 
     16 S16        -2.9787  -16.7284  -48.4315 S.3       23 UNK        -0.2404 
     17 C17        -1.5460  -17.4822  -47.5941 C.3       23 UNK        -0.0398 
     18 CA         -1.6006  -19.0258  -47.4526 C.3       11 UNK         0.1400 
     19 N          -0.3149  -19.5867  -47.0332 N.am      11 UNK        -0.5000 
     20 C           0.7106  -19.7392  -47.8843 C.2       10 UNK         0.5000 
     21 O           0.6362  -19.4776  -49.0833 O.2       10 UNK        -0.5000 
     22 CA          2.0371  -20.2785  -47.3300 C.3       10 UNK         0.1400 
     23 CB          2.8167  -19.1829  -46.5947 C.3       10 UNK        -0.1800 
     24 N           1.8218  -21.4140  -46.4405 N.am      10 UNK        -0.5000 
     25 C           1.7279  -22.6813  -46.8639 C.2       9 UNK         0.5000 
     26 O           1.8804  -23.0230  -48.0367 O.2       9 UNK        -0.5000 
     27 CA          1.4231  -23.7587  -45.8067 C.3       9 UNK         0.1400 
     28 CB          2.6962  -24.5456  -45.4589 C.3       9 UNK        -0.1800 
     29 N           0.8465  -23.2284  -44.5709 N.am      9 UNK        -0.5000 
     30 C          -0.3938  -22.7401  -44.4553 C.2       8 UNK         0.5000 
     31 O          -1.1841  -22.6120  -45.3923 O.2       8 UNK        -0.5000 
     32 CA         -0.7998  -22.2772  -43.0494 C.3       8 UNK         0.1400 
     33 CB         -0.9699  -23.4726  -42.0993 C.3       8 UNK        -0.1800 
     34 N           0.1404  -21.3200  -42.4642 N.am      8 UNK        -0.5000 
     35 C           0.4553  -20.1193  -42.9692 C.2       7 UNK         0.5000 
     36 O           0.0213  -19.6880  -44.0409 O.2       7 UNK        -0.5000 
     37 CA          1.4443  -19.2892  -42.1393 C.3       7 UNK         0.1400 
     38 CB          2.8727  -19.4169  -42.6899 C.3       7 UNK        -0.1800 
     39 N           1.0617  -17.8770  -42.1156 N.am      7 UNK        -0.5000 
     40 C           0.9537  -17.1467  -40.9938 C.2       6 UNK         0.5000 
     41 O           1.1067  -17.6182  -39.8655 O.2       6 UNK        -0.5000 
     42 CA          0.6525  -15.6377  -41.1132 C.3       6 UNK         0.1400 
     43 CB          1.8828  -14.8112  -40.7060 C.3       6 UNK        -0.1800 
     44 N           0.2317  -15.2296  -42.4511 N.am      6 UNK        -0.5000 
     45 C          -1.0194  -15.3439  -42.9158 C.2       5 UNK         0.5000 
     46 O          -1.9581  -15.7467  -42.2287 O.2       5 UNK        -0.5000 
     47 CA         -1.2852  -14.9540  -44.3861 C.3       5 UNK         0.1400 
     48 CB         -2.1014  -13.6544  -44.4593 C.3       5 UNK        -0.1800 
     49 N          -0.0876  -14.8104  -45.2217 N.am      5 UNK        -0.5000 
     50 C           0.8128  -15.7710  -45.4726 C.2       4 UNK         0.5000 
     51 O           0.7201  -16.9126  -45.0282 O.2       4 UNK        -0.5000 
     52 CA          2.0497  -15.3767  -46.3009 C.3       4 UNK         0.1400 
     53 CB          1.7715  -15.5029  -47.8061 C.3       4 UNK        -0.1800 
     54 N           2.5216  -14.0237  -46.0037 N.am      4 UNK        -0.5000 
     55 C           2.9741  -13.6176  -44.8082 C.2       3 UNK         0.5000 
     56 O           3.0669  -14.3544  -43.8272 O.2       3 UNK        -0.5000 
     57 CA          3.3359  -12.1296  -44.6756 C.3       3 UNK         0.1400 
     58 CB          4.7318  -11.8423  -45.2500 C.3       3 UNK        -0.1800 
     59 N           2.3412  -11.2885  -45.3395 N.am      3 UNK        -0.5000 
     60 C           1.1406  -10.9961  -44.8196 C.2       2 UNK         0.5000 
     61 O           0.7873  -11.3288  -43.6882 O.2       2 UNK        -0.5000 
     62 CA          0.1611  -10.2146  -45.7158 C.3       2 UNK         0.1400 
     63 CB          0.2980   -8.7040  -45.4734 C.3       2 UNK        -0.1800 
     64 N           0.3405  -10.4887  -47.1428 N.am      2 UNK        -0.5000 
     65 C           0.0486  -11.6544  -47.7382 C.2       1 UNK         0.5000 
     66 O          -0.4128  -12.6265  -47.1425 O.2       1 UNK        -0.5000 
     67 C          -2.7664  -19.4890  -46.5653 C.2       11 UNK         0.5000 
     68 O          -3.8012  -19.8686  -47.1129 O.2       11 UNK        -0.5000 
     69 N          -2.6106  -19.4438  -45.2329 N.am      12 UNK        -0.5000 
     70 CA         -3.7331  -19.5105  -44.2842 C.3       12 UNK         0.1400 
     71 CB         -3.2488  -19.1443  -42.8727 C.3       12 UNK        -0.1800 
     72 C          -4.5472  -20.8230  -44.2873 C.2       12 UNK         0.5000 
     73 O          -5.7041  -20.8062  -43.8649 O.2       12 UNK        -0.5000 
     74 N          -3.9559  -21.9134  -44.7886 N.am      13 UNK        -0.5000 
     75 CA         -4.6458  -23.1578  -45.1285 C.3       13 UNK         0.1400 
     76 CB         -4.0632  -24.3198  -44.3100 C.3       13 UNK        -0.1800 
     77 C          -4.5149  -23.4359  -46.6342 C.2       13 UNK         0.5000 
     78 O          -5.4878  -23.8595  -47.2568 O.2       13 UNK        -0.5000 
     79 N          -3.3270  -23.1658  -47.1982 N.am      14 UNK        -0.5000 
     80 CA         -2.9537  -23.3668  -48.5999 C.3       14 UNK         0.1400 
     81 CB         -1.5471  -22.7983  -48.8187 C.3       14 UNK        -0.1800 
     82 C          -3.9257  -22.7769  -49.6360 C.2       14 UNK         0.5000 
     83 O          -4.1438  -23.4017  -50.6771 O.2       14 UNK        -0.5000 
     84 N          -4.4892  -21.5973  -49.3430 N.am      15 UNK        -0.5000 
     85 CA         -5.4435  -20.8950  -50.2023 C.3       15 UNK         0.1400 
     86 CB         -5.6055  -19.4527  -49.7068 C.3       15 UNK        -0.1800 
     87 C          -6.8192  -21.5789  -50.2969 C.2       15 UNK         0.5000 
     88 O          -7.5191  -21.3732  -51.2883 O.2       15 UNK        -0.5000 
     89 N          -7.1818  -22.4053  -49.3051 N.am      16 UNK        -0.5000 
     90 CA         -8.4480  -23.1436  -49.2418 C.3       16 UNK         0.1400 
     91 CB         -8.8205  -23.3756  -47.7661 C.3       16 UNK        -0.1800 
     92 C          -8.3962  -24.4549  -50.0570 C.2       16 UNK         0.5000 
     93 O          -8.8875  -25.4882  -49.6010 O.2       16 UNK        -0.5000 
     94 N          -7.7703  -24.3884  -51.2414 N.am      17 UNK        -0.5000 
     95 CA         -7.5338  -25.4592  -52.2174 C.3       17 UNK         0.1400 
     96 CB         -8.8684  -26.0005  -52.7699 C.3       17 UNK        -0.1800 
     97 C          -6.6057  -26.5921  -51.7251 C.2       17 UNK         0.5000 
     98 O          -6.4756  -27.6033  -52.4166 O.2       17 UNK        -0.5000 
     99 N          -5.9585  -26.4117  -50.5643 N.am      18 UNK        -0.5000 
    100 CA        -5.0432  -27.3880  -49.9707 C.3       18 UNK         0.1400 
    101 CB        -4.8478  -27.0711  -48.4812 C.3       18 UNK        -0.1800 
    102 C         -3.6937  -27.4520  -50.7084 C.2       18 UNK         0.5000 
    103 O         -3.1157  -28.5344  -50.8149 O.2       18 UNK        -0.5000 
    104 N         -3.2342  -26.3042  -51.2243 N.am      19 UNK        -0.5000 
    105 CA        -2.0390  -26.1924  -52.0653 C.3       19 UNK         0.1400 
    106 CB        -0.8278  -25.8268  -51.1912 C.3       19 UNK        -0.1800 
    107 C         -2.2219  -25.1981  -53.2290 C.2       19 UNK         0.5000 
    108 O         -1.3312  -25.1073  -54.0741 O.2       19 UNK        -0.5000 
    109 N         -3.3634  -24.4900  -53.2644 N.am      20 UNK        -0.5000 
    110 CA        -3.7235  -23.4229  -54.2031 C.3       20 UNK         0.1400 
    111 CB        -3.8207  -23.9491  -55.6509 C.3       20 UNK        -0.1800 
    112 C         -2.8022  -22.1965  -54.0447 C.2       20 UNK         0.5000 
    113 O         -2.2098  -21.7305  -55.0195 O.2       20 UNK        -0.5000 
    114 N         -2.7153  -21.7121  -52.7965 N.am      21 UNK        -0.5000 
    115 CA        -1.8667  -20.6121  -52.3210 C.3       21 UNK         0.1400 
    116 CB        -2.2014  -19.2898  -53.0502 C.3       21 UNK        -0.1800 
    117 C         -0.3658  -20.9780  -52.3425 C.2       21 UNK         0.5000 
    118 O         -0.0276  -22.1633  -52.2990 O.2       21 UNK        -0.5000 
    119 N          0.5082  -19.9642  -52.3441 N.am      22 UNK        -0.5000 
    120 CA         1.9680  -20.1280  -52.3512 C.3       22 UNK         0.1400 
    121 C          2.5316  -20.6433  -53.7078 C.2       22 UNK         0.5000 
    122 N          3.6952  -21.2809  -53.6965 N.am      22 UNK        -0.7600 
    123 O          1.9473  -20.4494  -54.7720 O.2       22 UNK        -0.5000 
    124 C124        2.6966  -18.8507  -51.8554 C.3       23 UNK        -0.0398 
    125 S125        2.4064  -17.3469  -52.8579 S.3       23 UNK        -0.2404 
    126 C126        2.1702  -16.0715  -51.5773 C.3       23 UNK        -0.0205 
    127 H127        4.5415  -10.1197  -48.8150 H         1 UNK         0.0600 
    128 H128        3.7335   -9.8724  -50.3667 H         1 UNK         0.0600 
    129 H129        4.7407  -11.3013  -50.1134 H         1 UNK         0.0600 
    130 H130        1.5569  -10.3740  -50.3037 H         1 UNK         0.3000 
    131 H131        0.5048  -12.8200  -49.4665 H         1 UNK         0.0600 
    132 H132       -1.7188  -11.8378  -49.8711 H         1 UNK         0.0800 
    133 H133       -1.0731  -10.2190  -49.8079 H         1 UNK         0.0800 
    134 H134       -1.4455  -12.7421  -53.5251 H         1 UNK         0.0800 
    135 H135       -2.5469  -12.4933  -52.1938 H         1 UNK         0.0800 
    136 H136        1.0111  -13.7684  -52.4541 H         1 UNK         0.1150 
    137 H137        0.0954  -17.4550  -50.4759 H         1 UNK         0.1150 
    138 H138       -2.9994  -14.5755  -51.1742 H         1 UNK         0.1150 
    139 H139       -3.5186  -16.9838  -50.7546 H         1 UNK         0.0800 
    140 H140       -2.2670  -18.0981  -50.2849 H         1 UNK         0.0800 
    141 H141       -1.4654  -17.0294  -46.6098 H         1 UNK         0.0800 
    142 H142       -0.6509  -17.1793  -48.1327 H         1 UNK         0.0800 
    143 H143       -1.8209  -19.4362  -48.4398 H         1 UNK         0.0600 
    144 H144       -0.1938  -19.7951  -46.0474 H         1 UNK         0.3000 
    145 H145        2.6476  -20.5942  -48.1791 H         1 UNK         0.0600 
    146 H146        3.7657  -19.5592  -46.2127 H         1 UNK         0.0600 
    147 H147        3.0408  -18.3498  -47.2612 H         1 UNK         0.0600 
    148 H148        2.2475  -18.7913  -45.7553 H         1 UNK         0.0600 
    149 H149        1.6583  -21.2136  -45.4654 H         1 UNK         0.3000 
    150 H150        0.7025  -24.4507  -46.2480 H         1 UNK         0.0600 
    151 H151        3.1399  -24.9872  -46.3522 H         1 UNK         0.0600 
    152 H152        2.4799  -25.3616  -44.7691 H         1 UNK         0.0600 
    153 H153        3.4511  -23.9065  -44.9991 H         1 UNK         0.0600 
    154 H154        1.4277  -23.2720  -43.7466 H         1 UNK         0.3000 
    155 H155       -1.7685  -21.7917  -43.1395 H         1 UNK         0.0600 
    156 H156       -0.0208  -23.9694  -41.8952 H         1 UNK         0.0600 
    157 H157       -1.3933  -23.1575  -41.1454 H         1 UNK         0.0600 
    158 H158       -1.6446  -24.2189  -42.5191 H         1 UNK         0.0600 
    159 H159        0.5556  -21.5942  -41.5853 H         1 UNK         0.3000 
    160 H160        1.4421  -19.7022  -41.1286 H         1 UNK         0.0600 
    161 H161        2.9857  -18.9015  -43.6420 H         1 UNK         0.0600 
    162 H162        3.1520  -20.4607  -42.8394 H         1 UNK         0.0600 
    163 H163        3.5945  -18.9839  -41.9973 H         1 UNK         0.0600 
    164 H164        0.8697  -17.4588  -43.0215 H         1 UNK         0.3000 
    165 H165       -0.1481  -15.4083  -40.4067 H         1 UNK         0.0600 
    166 H166        1.6972  -13.7421  -40.8125 H         1 UNK         0.0600 
    167 H167        2.1463  -14.9930  -39.6634 H         1 UNK         0.0600 
    168 H168        2.7548  -15.0639  -41.3095 H         1 UNK         0.0600 
    169 H169        0.9600  -14.9026  -43.0735 H         1 UNK         0.3000 
    170 H170       -1.8945  -15.7531  -44.8092 H         1 UNK         0.0600 
    171 H171       -3.0090  -13.7236  -43.8582 H         1 UNK         0.0600 
    172 H172       -1.5295  -12.8013  -44.0941 H         1 UNK         0.0600 
    173 H173       -2.4102  -13.4402  -45.4825 H         1 UNK         0.0600 
    174 H174        0.0253  -13.9163  -45.6893 H         1 UNK         0.3000 
    175 H175        2.8551  -16.0674  -46.0438 H         1 UNK         0.0600 
    176 H176        0.9137  -14.9033  -48.1125 H         1 UNK         0.0600 
    177 H177        2.6305  -15.1804  -48.3945 H         1 UNK         0.0600 
    178 H178        1.5655  -16.5376  -48.0786 H         1 UNK         0.0600 
    179 H179        2.5262  -13.3625  -46.7762 H         1 UNK         0.3000 
    180 H180        3.3552  -11.8816  -43.6120 H         1 UNK         0.0600 
    181 H181        4.7953  -12.0814  -46.3116 H         1 UNK         0.0600 
    182 H182        5.4908  -12.4340  -44.7367 H         1 UNK         0.0600 
    183 H183        4.9998  -10.7929  -45.1265 H         1 UNK         0.0600 
    184 H184        2.5362  -11.0235  -46.2944 H         1 UNK         0.3000 
    185 H185       -0.8513  -10.5149  -45.4372 H         1 UNK         0.0600 
    186 H186        0.1447   -8.4622  -44.4208 H         1 UNK         0.0600 
    187 H187        1.2869   -8.3387  -45.7534 H         1 UNK         0.0600 
    188 H188       -0.4422   -8.1438  -46.0450 H         1 UNK         0.0600 
    189 H189        0.7353   -9.7471  -47.7030 H         1 UNK         0.3000 
    190 H190       -1.7033  -19.2126  -44.8392 H         1 UNK         0.3000 
    191 H191       -4.4328  -18.7289  -44.5881 H         1 UNK         0.0600 
    192 H192       -2.5436  -19.8663  -42.4699 H         1 UNK         0.0600 
    193 H193       -4.0864  -19.0870  -42.1765 H         1 UNK         0.0600 
    194 H194       -2.7605  -18.1711  -42.8690 H         1 UNK         0.0600 
    195 H195       -3.0024  -21.8274  -45.1197 H         1 UNK         0.3000 
    196 H196       -5.7117  -23.0828  -44.9034 H         1 UNK         0.0600 
    197 H197       -4.6037  -25.2451  -44.5130 H         1 UNK         0.0600 
    198 H198       -4.1411  -24.1249  -43.2404 H         1 UNK         0.0600 
    199 H199       -3.0140  -24.4977  -44.5455 H         1 UNK         0.0600 
    200 H200       -2.5660  -22.8795  -46.5890 H         1 UNK         0.3000 
    201 H201       -2.9074  -24.4410  -48.7787 H         1 UNK         0.0600 
    202 H202       -1.2719  -22.7839  -49.8729 H         1 UNK         0.0600 
    203 H203       -0.8046  -23.3997  -48.2966 H         1 UNK         0.0600 
    204 H204       -1.4666  -21.7772  -48.4528 H         1 UNK         0.0600 
    205 H205       -4.2617  -21.1424  -48.4617 H         1 UNK         0.3000 
    206 H206       -5.0279  -20.8589  -51.2111 H         1 UNK         0.0600 
    207 H207       -6.2558  -18.8787  -50.3680 H         1 UNK         0.0600 
    208 H208       -6.0372  -19.4172  -48.7057 H         1 UNK         0.0600 
    209 H209       -4.6448  -18.9436  -49.6726 H         1 UNK         0.0600 
    210 H210       -6.5184  -22.6016  -48.5634 H         1 UNK         0.3000 
    211 H211       -9.2360  -22.5296  -49.6826 H         1 UNK         0.0600 
    212 H212       -8.1213  -24.0519  -47.2741 H         1 UNK         0.0600 
    213 H213       -9.8151  -23.8143  -47.6786 H         1 UNK         0.0600 
    214 H214       -8.8304  -22.4390  -47.2085 H         1 UNK         0.0600 
    215 H215       -7.4305  -23.4730  -51.5124 H         1 UNK         0.3000 
    216 H216       -7.0055  -24.9883  -53.0476 H         1 UNK         0.0600 
    217 H217       -8.7008  -26.6780  -53.6079 H         1 UNK         0.0600 
    218 H218       -9.5025  -25.1915  -53.1324 H         1 UNK         0.0600 
    219 H219       -9.4271  -26.5522  -52.0134 H         1 UNK         0.0600 
    220 H220       -6.1261  -25.5616  -50.0463 H         1 UNK         0.3000 
    221 H221       -5.5043  -28.3756  -50.0420 H         1 UNK         0.0600 
    222 H222       -4.3989  -26.0916  -48.3322 H         1 UNK         0.0600 
    223 H223       -5.7980  -27.0855  -47.9470 H         1 UNK         0.0600 
    224 H224       -4.1962  -27.8062  -48.0074 H         1 UNK         0.0600 
    225 H225       -3.7470  -25.4511  -51.0428 H         1 UNK         0.3000 
    226 H226       -1.8374  -27.1569  -52.5363 H         1 UNK         0.0600 
    227 H227       -0.6667  -26.5663  -50.4068 H         1 UNK         0.0600 
    228 H228        0.0856  -25.7787  -51.7854 H         1 UNK         0.0600 
    229 H229       -0.9583  -24.8567  -50.7174 H         1 UNK         0.0600 
    230 H230       -4.0035  -24.5959  -52.4917 H         1 UNK         0.3000 
    231 H231       -4.7223  -23.0906  -53.9154 H         1 UNK         0.0600 
    232 H232       -4.2148  -23.1801  -56.3159 H         1 UNK         0.0600 
    233 H233       -4.4900  -24.8071  -55.7138 H         1 UNK         0.0600 
    234 H234       -2.8502  -24.2508  -56.0451 H         1 UNK         0.0600 
    235 H235       -3.1994  -22.2314  -52.0738 H         1 UNK         0.3000 
    236 H236       -2.1211  -20.4772  -51.2687 H         1 UNK         0.0600 
    237 H237       -3.2711  -19.0832  -53.0153 H         1 UNK         0.0600 
    238 H238       -1.6987  -18.4381  -52.5947 H         1 UNK         0.0600 
    239 H239       -1.8993  -19.3127  -54.0973 H         1 UNK         0.0600 
    240 H240        0.1746  -19.0150  -52.4127 H         1 UNK         0.3000 
    241 H241        2.1879  -20.9073  -51.6179 H         1 UNK         0.0600 
    242 H242        4.0786  -21.6105  -54.5689 H         1 UNK         0.3800 
    243 H243        4.1993  -21.4548  -52.8408 H         1 UNK         0.3800 
    244 H244        2.3965  -18.6593  -50.8258 H         1 UNK         0.0800 
    245 H245        3.7730  -19.0228  -51.8105 H         1 UNK         0.0800 
    246 H246        2.5348  -16.4152  -50.6092 H         1 UNK         0.0800 
    247 H247        2.7884  -15.2102  -51.8348 H         1 UNK         0.0800 
@<TRIPOS>BOND
     1    1    2 1    
     2    1  127 1    
     3    1  128 1    
     4    1  129 1    
     5    2    3 2    
     6    2    4 am   BACKBONE|DICT|INTERRES
     7    4    5 1    
     8    4  130 1    
     9    5    6 1    
    10    5   65 1    
    11    5  131 1    
    12    6    7 1    
    13    6  132 1    
    14    6  133 1    
    15    7    8 1    
    16    8    9 1    
    17    8  134 1    
    18    8  135 1    
    19    9   10 ar   
    20    9   14 ar   
    21   10   11 ar   
    22   10  136 1    
    23   11   12 ar   
    24   11  126 1    
    25   12   13 ar   
    26   12  137 1    
    27   13   14 ar   
    28   13   15 1    
    29   14  138 1    
    30   15   16 1    
    31   15  139 1    
    32   15  140 1    
    33   16   17 1    
    34   17   18 1    
    35   17  141 1    
    36   17  142 1    
    37   18   19 1    
    38   18   67 1    
    39   18  143 1    
    40   19   20 am   BACKBONE|DICT|INTERRES
    41   19  144 1    
    42   20   21 2    
    43   20   22 1    
    44   22   23 1    
    45   22   24 1    
    46   22  145 1    
    47   23  146 1    
    48   23  147 1    
    49   23  148 1    
    50   24   25 am   BACKBONE|DICT|INTERRES
    51   24  149 1    
    52   25   26 2    
    53   25   27 1    
    54   27   28 1    
    55   27   29 1    
    56   27  150 1    
    57   28  151 1    
    58   28  152 1    
    59   28  153 1    
    60   29   30 am   BACKBONE|DICT|INTERRES
    61   29  154 1    
    62   30   31 2    
    63   30   32 1    
    64   32   33 1    
    65   32   34 1    
    66   32  155 1    
    67   33  156 1    
    68   33  157 1    
    69   33  158 1    
    70   34   35 am   BACKBONE|DICT|INTERRES
    71   34  159 1    
    72   35   36 2    
    73   35   37 1    
    74   37   38 1    
    75   37   39 1    
    76   37  160 1    
    77   38  161 1    
    78   38  162 1    
    79   38  163 1    
    80   39   40 am   BACKBONE|DICT|INTERRES
    81   39  164 1    
    82   40   41 2    
    83   40   42 1    
    84   42   43 1    
    85   42   44 1    
    86   42  165 1    
    87   43  166 1    
    88   43  167 1    
    89   43  168 1    
    90   44   45 am   BACKBONE|DICT|INTERRES
    91   44  169 1    
    92   45   46 2    
    93   45   47 1    
    94   47   48 1    
    95   47   49 1    
    96   47  170 1    
    97   48  171 1    
    98   48  172 1    
    99   48  173 1    
   100   49   50 am   BACKBONE|DICT|INTERRES
   101   49  174 1    
   102   50   51 2    
   103   50   52 1    
   104   52   53 1    
   105   52   54 1    
   106   52  175 1    
   107   53  176 1    
   108   53  177 1    
   109   53  178 1    
   110   54   55 am   BACKBONE|DICT|INTERRES
   111   54  179 1    
   112   55   56 2    
   113   55   57 1    
   114   57   58 1    
   115   57   59 1    
   116   57  180 1    
   117   58  181 1    
   118   58  182 1    
   119   58  183 1    
   120   59   60 am   BACKBONE|DICT|INTERRES
   121   59  184 1    
   122   60   61 2    
   123   60   62 1    
   124   62   63 1    
   125   62   64 1    
   126   62  185 1    
   127   63  186 1    
   128   63  187 1    
   129   63  188 1    
   130   64   65 am   BACKBONE|DICT|INTERRES
   131   64  189 1    
   132   65   66 2    
   133   67   68 2    
   134   67   69 am   BACKBONE|DICT|INTERRES
   135   69   70 1    
   136   69  190 1    
   137   70   71 1    
   138   70   72 1    
   139   70  191 1    
   140   71  192 1    
   141   71  193 1    
   142   71  194 1    
   143   72   73 2    
   144   72   74 am   BACKBONE|DICT|INTERRES
   145   74   75 1    
   146   74  195 1    
   147   75   76 1    
   148   75   77 1    
   149   75  196 1    
   150   76  197 1    
   151   76  198 1    
   152   76  199 1    
   153   77   78 2    
   154   77   79 am   BACKBONE|DICT|INTERRES
   155   79   80 1    
   156   79  200 1    
   157   80   81 1    
   158   80   82 1    
   159   80  201 1    
   160   81  202 1    
   161   81  203 1    
   162   81  204 1    
   163   82   83 2    
   164   82   84 am   BACKBONE|DICT|INTERRES
   165   84   85 1    
   166   84  205 1    
   167   85   86 1    
   168   85   87 1    
   169   85  206 1    
   170   86  207 1    
   171   86  208 1    
   172   86  209 1    
   173   87   88 2    
   174   87   89 am   BACKBONE|DICT|INTERRES
   175   89   90 1    
   176   89  210 1    
   177   90   91 1    
   178   90   92 1    
   179   90  211 1    
   180   91  212 1    
   181   91  213 1    
   182   91  214 1    
   183   92   93 2    
   184   92   94 am   BACKBONE|DICT|INTERRES
   185   94   95 1    
   186   94  215 1    
   187   95   96 1    
   188   95   97 1    
   189   95  216 1    
   190   96  217 1    
   191   96  218 1    
   192   96  219 1    
   193   97   98 2    
   194   97   99 am   BACKBONE|DICT|INTERRES
   195   99  100 1    
   196   99  220 1    
   197  100  101 1    
   198  100  102 1    
   199  100  221 1    
   200  101  222 1    
   201  101  223 1    
   202  101  224 1    
   203  102  103 2    
   204  102  104 am   BACKBONE|DICT|INTERRES
   205  104  105 1    
   206  104  225 1    
   207  105  106 1    
   208  105  107 1    
   209  105  226 1    
   210  106  227 1    
   211  106  228 1    
   212  106  229 1    
   213  107  108 2    
   214  107  109 am   BACKBONE|DICT|INTERRES
   215  109  110 1    
   216  109  230 1    
   217  110  111 1    
   218  110  112 1    
   219  110  231 1    
   220  111  232 1    
   221  111  233 1    
   222  111  234 1    
   223  112  113 2    
   224  112  114 am   BACKBONE|DICT|INTERRES
   225  114  115 1    
   226  114  235 1    
   227  115  116 1    
   228  115  117 1    
   229  115  236 1    
   230  116  237 1    
   231  116  238 1    
   232  116  239 1    
   233  117  118 2    
   234  117  119 am   BACKBONE|DICT|INTERRES
   235  119  120 1    
   236  119  240 1    
   237  120  121 1    
   238  120  124 1    
   239  120  241 1    
   240  121  122 am   BACKBONE|DICT|INTERRES
   241  121  123 2    
   242  122  242 1    
   243  122  243 1    
   244  124  125 1    
   245  124  244 1    
   246  124  245 1    
   247  125  126 1    
   248  126  246 1    
   249  126  247 1    
@<TRIPOS>SUBSTRUCTURE
     1 UNK         1 GROUP             0       ****    0 ROOT    
