@<TRIPOS>MOLECULE
3R540
247   249    1
SMALL
USER_CHARGES


@<TRIPOS>ATOM
      1 CA         -2.6624  -17.3043  -46.1059 C.3       0 UNK        -0.1800 
      2 C          -2.7646  -15.9038  -46.6970 C.2       0 UNK         0.5000 
      3 O          -3.7186  -15.1834  -46.4033 O.2       0 UNK        -0.5000 
      4 N          -1.7890  -15.5242  -47.5321 N.am      1 UNK        -0.5000 
      5 CA         -1.6437  -14.1960  -48.1378 C.3       1 UNK         0.1400 
      6 C6         -0.4924  -14.1747  -49.1793 C.3       23 UNK        -0.0398 
      7 S7         -1.0260  -14.7777  -50.8152 S.3       23 UNK        -0.2404 
      8 C8         -0.0617  -16.3157  -51.0112 C.3       23 UNK        -0.0205 
      9 C9         -0.6211  -17.5263  -50.2679 C.ar      23 UNK        -0.0193 
     10 C10        -1.9932  -17.6826  -50.0329 C.ar      23 UNK        -0.1150 
     11 C11        -2.4838  -18.8153  -49.3787 C.ar      23 UNK        -0.0193 
     12 C12        -1.5904  -19.8105  -48.9753 C.ar      23 UNK        -0.1150 
     13 C13        -0.2213  -19.6805  -49.2193 C.ar      23 UNK        -0.0193 
     14 C14         0.2572  -18.5342  -49.8581 C.ar      23 UNK        -0.1150 
     15 C15         0.7312  -20.7908  -48.8095 C.3       23 UNK        -0.0205 
     16 S16         1.2729  -20.5930  -47.0879 S.3       23 UNK        -0.2404 
     17 C17         1.8367  -22.2833  -46.6890 C.3       23 UNK        -0.0398 
     18 CA          0.8343  -23.0923  -45.8283 C.3       11 UNK         0.1400 
     19 N           0.5254  -22.4277  -44.5551 N.am      11 UNK        -0.5000 
     20 C          -0.1388  -22.9855  -43.5312 C.2       10 UNK         0.5000 
     21 O          -0.6410  -24.1103  -43.5785 O.2       10 UNK        -0.5000 
     22 CA         -0.2568  -22.1301  -42.2541 C.3       10 UNK         0.1400 
     23 CB         -0.7243  -22.9319  -41.0222 C.3       10 UNK        -0.1800 
     24 N           0.9779  -21.3956  -41.9677 N.am      10 UNK        -0.5000 
     25 C           2.1948  -21.8965  -41.7063 C.2       9 UNK         0.5000 
     26 O           2.4454  -23.0983  -41.6104 O.2       9 UNK        -0.5000 
     27 CA          3.3355  -20.8740  -41.5405 C.3       9 UNK         0.1400 
     28 CB          4.0970  -20.7191  -42.8664 C.3       9 UNK        -0.1800 
     29 N           2.8654  -19.5580  -41.1013 N.am      9 UNK        -0.5000 
     30 C           2.3966  -19.2870  -39.8747 C.2       8 UNK         0.5000 
     31 O           2.3912  -20.0995  -38.9491 O.2       8 UNK        -0.5000 
     32 CA          1.8027  -17.8830  -39.6550 C.3       8 UNK         0.1400 
     33 CB          2.9125  -16.8554  -39.3873 C.3       8 UNK        -0.1800 
     34 N           0.9825  -17.4342  -40.7815 N.am      8 UNK        -0.5000 
     35 C          -0.1747  -17.9949  -41.1615 C.2       7 UNK         0.5000 
     36 O          -0.7054  -18.9383  -40.5760 O.2       7 UNK        -0.5000 
     37 CA         -0.8319  -17.4335  -42.4346 C.3       7 UNK         0.1400 
     38 CB         -1.6699  -16.1843  -42.1206 C.3       7 UNK        -0.1800 
     39 N           0.1514  -17.1165  -43.4696 N.am      7 UNK        -0.5000 
     40 C           0.8408  -18.0311  -44.1656 C.2       6 UNK         0.5000 
     41 O           0.7034  -19.2469  -44.0216 O.2       6 UNK        -0.5000 
     42 CA          1.8828  -17.4852  -45.1610 C.3       6 UNK         0.1400 
     43 CB          1.2015  -17.0024  -46.4512 C.3       6 UNK        -0.1800 
     44 N           2.6638  -16.3779  -44.6105 N.am      6 UNK        -0.5000 
     45 C           3.4867  -16.4548  -43.5556 C.2       5 UNK         0.5000 
     46 O           3.7271  -17.4951  -42.9458 O.2       5 UNK        -0.5000 
     47 CA          4.0889  -15.1242  -43.0643 C.3       5 UNK         0.1400 
     48 CB          5.3697  -14.7882  -43.8417 C.3       5 UNK        -0.1800 
     49 N           3.1490  -14.0053  -43.1735 N.am      5 UNK        -0.5000 
     50 C           1.9598  -13.9353  -42.5619 C.2       4 UNK         0.5000 
     51 O           1.5497  -14.8003  -41.7890 O.2       4 UNK        -0.5000 
     52 CA          1.0370  -12.7536  -42.9066 C.3       4 UNK         0.1400 
     53 CB          1.0768  -11.6729  -41.8102 C.3       4 UNK        -0.1800 
     54 N           1.2364  -12.1802  -44.2445 N.am      4 UNK        -0.5000 
     55 C           2.2491  -11.4272  -44.7043 C.2       3 UNK         0.5000 
     56 O           3.2731  -11.1975  -44.0614 O.2       3 UNK        -0.5000 
     57 CA          2.1145  -10.8507  -46.1320 C.3       3 UNK         0.1400 
     58 CB          3.0332  -11.6122  -47.1008 C.3       3 UNK        -0.1800 
     59 N           0.7475  -10.8928  -46.6565 N.am      3 UNK        -0.5000 
     60 C          -0.3025  -10.2232  -46.1604 C.2       2 UNK         0.5000 
     61 O          -0.2037   -9.3531  -45.2946 O.2       2 UNK        -0.5000 
     62 CA         -1.7028  -10.6132  -46.6827 C.3       2 UNK         0.1400 
     63 CB         -2.3047   -9.4671  -47.5114 C.3       2 UNK        -0.1800 
     64 N          -1.7658  -11.8475  -47.4785 N.am      2 UNK        -0.5000 
     65 C          -1.4323  -13.0855  -47.0822 C.2       1 UNK         0.5000 
     66 O          -0.9289  -13.3435  -45.9843 O.2       1 UNK        -0.5000 
     67 C          -0.4209  -23.4919  -46.6332 C.2       11 UNK         0.5000 
     68 O          -0.3632  -24.4470  -47.4081 O.2       11 UNK        -0.5000 
     69 N          -1.5401  -22.7893  -46.4027 N.am      12 UNK        -0.5000 
     70 CA         -2.8607  -23.0281  -46.9905 C.3       12 UNK         0.1400 
     71 CB         -3.8449  -22.0022  -46.4093 C.3       12 UNK        -0.1800 
     72 C          -3.3997  -24.4566  -46.7808 C.2       12 UNK         0.5000 
     73 O          -4.1549  -24.9424  -47.6217 O.2       12 UNK        -0.5000 
     74 N          -2.9732  -25.1205  -45.6961 N.am      13 UNK        -0.5000 
     75 CA         -3.2988  -26.5152  -45.3930 C.3       13 UNK         0.1400 
     76 CB         -2.8027  -26.8460  -43.9774 C.3       13 UNK        -0.1800 
     77 C          -2.7245  -27.5195  -46.4141 C.2       13 UNK         0.5000 
     78 O          -3.3043  -28.5918  -46.5904 O.2       13 UNK        -0.5000 
     79 N          -1.6118  -27.1567  -47.0666 N.am      14 UNK        -0.5000 
     80 CA         -0.9629  -27.9442  -48.1134 C.3       14 UNK         0.1400 
     81 CB          0.5460  -28.0074  -47.8271 C.3       14 UNK        -0.1800 
     82 C          -1.2181  -27.3407  -49.5044 C.2       14 UNK         0.5000 
     83 O          -1.4564  -28.0862  -50.4550 O.2       14 UNK        -0.5000 
     84 N          -1.1513  -26.0061  -49.6045 N.am      15 UNK        -0.5000 
     85 CA         -1.2441  -25.2566  -50.8573 C.3       15 UNK         0.1400 
     86 CB         -0.6505  -23.8582  -50.6352 C.3       15 UNK        -0.1800 
     87 C          -2.6721  -25.1421  -51.4200 C.2       15 UNK         0.5000 
     88 O          -2.8175  -24.8763  -52.6145 O.2       15 UNK        -0.5000 
     89 N          -3.6923  -25.3164  -50.5657 N.am      16 UNK        -0.5000 
     90 CA         -5.1210  -25.1761  -50.8595 C.3       16 UNK         0.1400 
     91 CB         -5.6019  -26.3079  -51.7959 C.3       16 UNK        -0.1800 
     92 C          -5.4459  -23.7540  -51.3617 C.2       16 UNK         0.5000 
     93 O          -5.4093  -22.8174  -50.5647 O.2       16 UNK        -0.5000 
     94 N          -5.7290  -23.6141  -52.6640 N.am      17 UNK        -0.5000 
     95 CA         -5.9721  -22.3377  -53.3408 C.3       17 UNK         0.1400 
     96 CB         -6.7355  -22.6118  -54.6465 C.3       17 UNK        -0.1800 
     97 C          -4.6884  -21.5338  -53.6353 C.2       17 UNK         0.5000 
     98 O          -4.7967  -20.3699  -54.0343 O.2       17 UNK        -0.5000 
     99 N          -3.5158  -22.1685  -53.4734 N.am      18 UNK        -0.5000 
    100 CA        -2.1691  -21.6126  -53.6326 C.3       18 UNK         0.1400 
    101 CB        -1.8725  -20.6081  -52.5020 C.3       18 UNK        -0.1800 
    102 C         -1.9240  -21.0393  -55.0402 C.2       18 UNK         0.5000 
    103 O         -1.4809  -19.9002  -55.1790 O.2       18 UNK        -0.5000 
    104 N         -2.2700  -21.8340  -56.0649 N.am      19 UNK        -0.5000 
    105 CA        -2.2239  -21.4868  -57.4933 C.3       19 UNK         0.1400 
    106 CB        -0.7663  -21.3229  -57.9733 C.3       19 UNK        -0.1800 
    107 C         -3.1162  -20.2726  -57.8377 C.2       19 UNK         0.5000 
    108 O         -2.7506  -19.4448  -58.6737 O.2       19 UNK        -0.5000 
    109 N         -4.2700  -20.2000  -57.1582 N.am      20 UNK        -0.5000 
    110 CA        -5.2852  -19.1452  -57.2093 C.3       20 UNK         0.1400 
    111 CB        -5.8662  -18.9839  -58.6302 C.3       20 UNK        -0.1800 
    112 C         -4.8368  -17.8070  -56.5827 C.2       20 UNK         0.5000 
    113 O         -5.4558  -16.7778  -56.8590 O.2       20 UNK        -0.5000 
    114 N         -3.8094  -17.8310  -55.7181 N.am      21 UNK        -0.5000 
    115 CA        -3.4100  -16.6809  -54.9006 C.3       21 UNK         0.1400 
    116 CB        -2.0004  -16.8933  -54.3327 C.3       21 UNK        -0.1800 
    117 C         -4.4106  -16.3968  -53.7643 C.2       21 UNK         0.5000 
    118 O         -4.5609  -15.2383  -53.3733 O.2       21 UNK        -0.5000 
    119 N         -5.0937  -17.4419  -53.2807 N.am      22 UNK        -0.5000 
    120 CA        -6.1815  -17.3481  -52.2958 C.3       22 UNK         0.1400 
    121 C         -7.4386  -18.1896  -52.6559 C.2       22 UNK         0.5000 
    122 N         -7.3828  -19.1044  -53.6163 N.am      22 UNK        -0.7600 
    123 O         -8.5008  -17.9820  -52.0754 O.2       22 UNK        -0.5000 
    124 C124       -5.6883  -17.5954  -50.8489 C.3       23 UNK        -0.0398 
    125 S125       -4.9526  -19.2474  -50.5863 S.3       23 UNK        -0.2404 
    126 C126       -3.9708  -18.9571  -49.0848 C.3       23 UNK        -0.0205 
    127 H127       -2.4334  -17.2446  -45.0430 H         1 UNK         0.0600 
    128 H128       -3.6077  -17.8344  -46.2187 H         1 UNK         0.0600 
    129 H129       -1.8838  -17.8948  -46.5883 H         1 UNK         0.0600 
    130 H130       -1.0603  -16.1833  -47.7601 H         1 UNK         0.3000 
    131 H131       -2.5852  -13.9707  -48.6438 H         1 UNK         0.0600 
    132 H132        0.3702  -14.7399  -48.8221 H         1 UNK         0.0800 
    133 H133       -0.1242  -13.1616  -49.3517 H         1 UNK         0.0800 
    134 H134        0.9702  -16.1269  -50.7110 H         1 UNK         0.0800 
    135 H135       -0.0261  -16.5651  -52.0717 H         1 UNK         0.0800 
    136 H136       -2.6871  -16.9232  -50.3590 H         1 UNK         0.1150 
    137 H137       -1.9586  -20.6927  -48.4752 H         1 UNK         0.1150 
    138 H138        1.3165  -18.4350  -50.0493 H         1 UNK         0.1150 
    139 H139        0.2337  -21.7516  -48.9291 H         1 UNK         0.0800 
    140 H140        1.6028  -20.8111  -49.4653 H         1 UNK         0.0800 
    141 H141        2.7789  -22.1921  -46.1471 H         1 UNK         0.0800 
    142 H142        2.0829  -22.8210  -47.6067 H         1 UNK         0.0800 
    143 H143        1.3278  -24.0314  -45.5693 H         1 UNK         0.0600 
    144 H144        0.8556  -21.4745  -44.4540 H         1 UNK         0.3000 
    145 H145       -1.0159  -21.3749  -42.4627 H         1 UNK         0.0600 
    146 H146       -0.8000  -22.2913  -40.1434 H         1 UNK         0.0600 
    147 H147       -1.7094  -23.3681  -41.1917 H         1 UNK         0.0600 
    148 H148       -0.0423  -23.7489  -40.7853 H         1 UNK         0.0600 
    149 H149        0.9094  -20.3919  -42.0753 H         1 UNK         0.3000 
    150 H150        4.0264  -21.2626  -40.7895 H         1 UNK         0.0600 
    151 H151        4.4767  -21.6801  -43.2159 H         1 UNK         0.0600 
    152 H152        4.9527  -20.0532  -42.7540 H         1 UNK         0.0600 
    153 H153        3.4576  -20.3129  -43.6516 H         1 UNK         0.0600 
    154 H154        2.9116  -18.8096  -41.7876 H         1 UNK         0.3000 
    155 H155        1.1610  -17.9267  -38.7725 H         1 UNK         0.0600 
    156 H156        3.5912  -16.7660  -40.2355 H         1 UNK         0.0600 
    157 H157        3.5078  -17.1414  -38.5194 H         1 UNK         0.0600 
    158 H158        2.4963  -15.8679  -39.1867 H         1 UNK         0.0600 
    159 H159        1.3102  -16.6137  -41.2844 H         1 UNK         0.3000 
    160 H160       -1.5029  -18.2002  -42.8281 H         1 UNK         0.0600 
    161 H161       -2.1597  -15.7993  -43.0151 H         1 UNK         0.0600 
    162 H162       -1.0632  -15.3820  -41.7005 H         1 UNK         0.0600 
    163 H163       -2.4518  -16.4147  -41.3959 H         1 UNK         0.0600 
    164 H164        0.3626  -16.1403  -43.6095 H         1 UNK         0.3000 
    165 H165        2.5668  -18.2996  -45.4081 H         1 UNK         0.0600 
    166 H166        1.9370  -16.7743  -47.2228 H         1 UNK         0.0600 
    167 H167        0.5344  -17.7626  -46.8569 H         1 UNK         0.0600 
    168 H168        0.6105  -16.1035  -46.2752 H         1 UNK         0.0600 
    169 H169        2.5317  -15.4745  -45.0394 H         1 UNK         0.3000 
    170 H170        4.3469  -15.2429  -42.0104 H         1 UNK         0.0600 
    171 H171        6.0967  -15.5978  -43.7648 H         1 UNK         0.0600 
    172 H172        5.1681  -14.6260  -44.9014 H         1 UNK         0.0600 
    173 H173        5.8436  -13.8882  -43.4494 H         1 UNK         0.0600 
    174 H174        3.4304  -13.2117  -43.7371 H         1 UNK         0.3000 
    175 H175        0.0241  -13.1591  -42.9217 H         1 UNK         0.0600 
    176 H176        0.3842  -10.8609  -42.0320 H         1 UNK         0.0600 
    177 H177        0.7897  -12.0908  -40.8444 H         1 UNK         0.0600 
    178 H178        2.0724  -11.2442  -41.6934 H         1 UNK         0.0600 
    179 H179        0.4813  -12.3799  -44.8939 H         1 UNK         0.3000 
    180 H180        2.4336   -9.8073  -46.0960 H         1 UNK         0.0600 
    181 H181        2.7496  -12.6623  -47.1834 H         1 UNK         0.0600 
    182 H182        4.0709  -11.5778  -46.7660 H         1 UNK         0.0600 
    183 H183        3.0024  -11.1758  -48.0994 H         1 UNK         0.0600 
    184 H184        0.5651  -11.5788  -47.3723 H         1 UNK         0.3000 
    185 H185       -2.3323  -10.7643  -45.8037 H         1 UNK         0.0600 
    186 H186       -1.7325   -9.2875  -48.4225 H         1 UNK         0.0600 
    187 H187       -3.3342   -9.6836  -47.7972 H         1 UNK         0.0600 
    188 H188       -2.3184   -8.5355  -46.9439 H         1 UNK         0.0600 
    189 H189       -2.1476  -11.7348  -48.4070 H         1 UNK         0.3000 
    190 H190       -1.4757  -22.0263  -45.7451 H         1 UNK         0.3000 
    191 H191       -2.7800  -22.8644  -48.0663 H         1 UNK         0.0600 
    192 H192       -4.0223  -22.1744  -45.3469 H         1 UNK         0.0600 
    193 H193       -4.8086  -22.0569  -46.9177 H         1 UNK         0.0600 
    194 H194       -3.4733  -20.9840  -46.5196 H         1 UNK         0.0600 
    195 H195       -2.3334  -24.6588  -45.0613 H         1 UNK         0.3000 
    196 H196       -4.3860  -26.6164  -45.4076 H         1 UNK         0.0600 
    197 H197       -3.0628  -27.8684  -43.7001 H         1 UNK         0.0600 
    198 H198       -3.2512  -26.1840  -43.2364 H         1 UNK         0.0600 
    199 H199       -1.7189  -26.7496  -43.8995 H         1 UNK         0.0600 
    200 H200       -1.2180  -26.2413  -46.8833 H         1 UNK         0.3000 
    201 H201       -1.3460  -28.9668  -48.1190 H         1 UNK         0.0600 
    202 H202        0.7432  -28.4865  -46.8680 H         1 UNK         0.0600 
    203 H203        0.9960  -27.0139  -47.8029 H         1 UNK         0.0600 
    204 H204        1.0652  -28.5857  -48.5924 H         1 UNK         0.0600 
    205 H205       -0.9101  -25.4630  -48.7784 H         1 UNK         0.3000 
    206 H206       -0.6356  -25.7679  -51.6062 H         1 UNK         0.0600 
    207 H207        0.3530  -23.9165  -50.2132 H         1 UNK         0.0600 
    208 H208       -0.5718  -23.3114  -51.5736 H         1 UNK         0.0600 
    209 H209       -1.2684  -23.2659  -49.9600 H         1 UNK         0.0600 
    210 H210       -3.4768  -25.4684  -49.5877 H         1 UNK         0.3000 
    211 H211       -5.6470  -25.2924  -49.9110 H         1 UNK         0.0600 
    212 H212       -5.0885  -26.3049  -52.7577 H         1 UNK         0.0600 
    213 H213       -6.6723  -26.2279  -51.9894 H         1 UNK         0.0600 
    214 H214       -5.4318  -27.2831  -51.3395 H         1 UNK         0.0600 
    215 H215       -5.7121  -24.4385  -53.2469 H         1 UNK         0.3000 
    216 H216       -6.6002  -21.7187  -52.6971 H         1 UNK         0.0600 
    217 H217       -6.9685  -21.6848  -55.1716 H         1 UNK         0.0600 
    218 H218       -7.6818  -23.1161  -54.4502 H         1 UNK         0.0600 
    219 H219       -6.1569  -23.2371  -55.3276 H         1 UNK         0.0600 
    220 H220       -3.5392  -23.1393  -53.1750 H         1 UNK         0.3000 
    221 H221       -1.4751  -22.4462  -53.5271 H         1 UNK         0.0600 
    222 H222       -2.5366  -19.7447  -52.5409 H         1 UNK         0.0600 
    223 H223       -1.9991  -21.0749  -51.5258 H         1 UNK         0.0600 
    224 H224       -0.8481  -20.2382  -52.5551 H         1 UNK         0.0600 
    225 H225       -2.6389  -22.7493  -55.8469 H         1 UNK         0.3000 
    226 H226       -2.6509  -22.3356  -58.0292 H         1 UNK         0.0600 
    227 H227       -0.1673  -22.1977  -57.7206 H         1 UNK         0.0600 
    228 H228       -0.7230  -21.2033  -59.0564 H         1 UNK         0.0600 
    229 H229       -0.2879  -20.4491  -57.5298 H         1 UNK         0.0600 
    230 H230       -4.4342  -20.9105  -56.4595 H         1 UNK         0.3000 
    231 H231       -6.0981  -19.4993  -56.5740 H         1 UNK         0.0600 
    232 H232       -6.1719  -19.9449  -59.0438 H         1 UNK         0.0600 
    233 H233       -5.1474  -18.5348  -59.3158 H         1 UNK         0.0600 
    234 H234       -6.7481  -18.3424  -58.6207 H         1 UNK         0.0600 
    235 H235       -3.3249  -18.7035  -55.5438 H         1 UNK         0.3000 
    236 H236       -3.3786  -15.7993  -55.5443 H         1 UNK         0.0600 
    237 H237       -1.6599  -16.0000  -53.8083 H         1 UNK         0.0600 
    238 H238       -1.9706  -17.7192  -53.6222 H         1 UNK         0.0600 
    239 H239       -1.2800  -17.1009  -55.1239 H         1 UNK         0.0600 
    240 H240       -4.8777  -18.3733  -53.6175 H         1 UNK         0.3000 
    241 H241       -6.5591  -16.3241  -52.3179 H         1 UNK         0.0600 
    242 H242       -8.2204  -19.6128  -53.8494 H         1 UNK         0.3800 
    243 H243       -6.4969  -19.3717  -54.0234 H         1 UNK         0.3800 
    244 H244       -4.9529  -16.8329  -50.5934 H         1 UNK         0.0800 
    245 H245       -6.5061  -17.4641  -50.1384 H         1 UNK         0.0800 
    246 H246       -4.3294  -18.0683  -48.5650 H         1 UNK         0.0800 
    247 H247       -4.1460  -19.7923  -48.4078 H         1 UNK         0.0800 
@<TRIPOS>BOND
     1    1    2 1    
     2    1  127 1    
     3    1  128 1    
     4    1  129 1    
     5    2    3 2    
     6    2    4 am   BACKBONE|DICT|INTERRES
     7    4    5 1    
     8    4  130 1    
     9    5    6 1    
    10    5   65 1    
    11    5  131 1    
    12    6    7 1    
    13    6  132 1    
    14    6  133 1    
    15    7    8 1    
    16    8    9 1    
    17    8  134 1    
    18    8  135 1    
    19    9   10 ar   
    20    9   14 ar   
    21   10   11 ar   
    22   10  136 1    
    23   11   12 ar   
    24   11  126 1    
    25   12   13 ar   
    26   12  137 1    
    27   13   14 ar   
    28   13   15 1    
    29   14  138 1    
    30   15   16 1    
    31   15  139 1    
    32   15  140 1    
    33   16   17 1    
    34   17   18 1    
    35   17  141 1    
    36   17  142 1    
    37   18   19 1    
    38   18   67 1    
    39   18  143 1    
    40   19   20 am   BACKBONE|DICT|INTERRES
    41   19  144 1    
    42   20   21 2    
    43   20   22 1    
    44   22   23 1    
    45   22   24 1    
    46   22  145 1    
    47   23  146 1    
    48   23  147 1    
    49   23  148 1    
    50   24   25 am   BACKBONE|DICT|INTERRES
    51   24  149 1    
    52   25   26 2    
    53   25   27 1    
    54   27   28 1    
    55   27   29 1    
    56   27  150 1    
    57   28  151 1    
    58   28  152 1    
    59   28  153 1    
    60   29   30 am   BACKBONE|DICT|INTERRES
    61   29  154 1    
    62   30   31 2    
    63   30   32 1    
    64   32   33 1    
    65   32   34 1    
    66   32  155 1    
    67   33  156 1    
    68   33  157 1    
    69   33  158 1    
    70   34   35 am   BACKBONE|DICT|INTERRES
    71   34  159 1    
    72   35   36 2    
    73   35   37 1    
    74   37   38 1    
    75   37   39 1    
    76   37  160 1    
    77   38  161 1    
    78   38  162 1    
    79   38  163 1    
    80   39   40 am   BACKBONE|DICT|INTERRES
    81   39  164 1    
    82   40   41 2    
    83   40   42 1    
    84   42   43 1    
    85   42   44 1    
    86   42  165 1    
    87   43  166 1    
    88   43  167 1    
    89   43  168 1    
    90   44   45 am   BACKBONE|DICT|INTERRES
    91   44  169 1    
    92   45   46 2    
    93   45   47 1    
    94   47   48 1    
    95   47   49 1    
    96   47  170 1    
    97   48  171 1    
    98   48  172 1    
    99   48  173 1    
   100   49   50 am   BACKBONE|DICT|INTERRES
   101   49  174 1    
   102   50   51 2    
   103   50   52 1    
   104   52   53 1    
   105   52   54 1    
   106   52  175 1    
   107   53  176 1    
   108   53  177 1    
   109   53  178 1    
   110   54   55 am   BACKBONE|DICT|INTERRES
   111   54  179 1    
   112   55   56 2    
   113   55   57 1    
   114   57   58 1    
   115   57   59 1    
   116   57  180 1    
   117   58  181 1    
   118   58  182 1    
   119   58  183 1    
   120   59   60 am   BACKBONE|DICT|INTERRES
   121   59  184 1    
   122   60   61 2    
   123   60   62 1    
   124   62   63 1    
   125   62   64 1    
   126   62  185 1    
   127   63  186 1    
   128   63  187 1    
   129   63  188 1    
   130   64   65 am   BACKBONE|DICT|INTERRES
   131   64  189 1    
   132   65   66 2    
   133   67   68 2    
   134   67   69 am   BACKBONE|DICT|INTERRES
   135   69   70 1    
   136   69  190 1    
   137   70   71 1    
   138   70   72 1    
   139   70  191 1    
   140   71  192 1    
   141   71  193 1    
   142   71  194 1    
   143   72   73 2    
   144   72   74 am   BACKBONE|DICT|INTERRES
   145   74   75 1    
   146   74  195 1    
   147   75   76 1    
   148   75   77 1    
   149   75  196 1    
   150   76  197 1    
   151   76  198 1    
   152   76  199 1    
   153   77   78 2    
   154   77   79 am   BACKBONE|DICT|INTERRES
   155   79   80 1    
   156   79  200 1    
   157   80   81 1    
   158   80   82 1    
   159   80  201 1    
   160   81  202 1    
   161   81  203 1    
   162   81  204 1    
   163   82   83 2    
   164   82   84 am   BACKBONE|DICT|INTERRES
   165   84   85 1    
   166   84  205 1    
   167   85   86 1    
   168   85   87 1    
   169   85  206 1    
   170   86  207 1    
   171   86  208 1    
   172   86  209 1    
   173   87   88 2    
   174   87   89 am   BACKBONE|DICT|INTERRES
   175   89   90 1    
   176   89  210 1    
   177   90   91 1    
   178   90   92 1    
   179   90  211 1    
   180   91  212 1    
   181   91  213 1    
   182   91  214 1    
   183   92   93 2    
   184   92   94 am   BACKBONE|DICT|INTERRES
   185   94   95 1    
   186   94  215 1    
   187   95   96 1    
   188   95   97 1    
   189   95  216 1    
   190   96  217 1    
   191   96  218 1    
   192   96  219 1    
   193   97   98 2    
   194   97   99 am   BACKBONE|DICT|INTERRES
   195   99  100 1    
   196   99  220 1    
   197  100  101 1    
   198  100  102 1    
   199  100  221 1    
   200  101  222 1    
   201  101  223 1    
   202  101  224 1    
   203  102  103 2    
   204  102  104 am   BACKBONE|DICT|INTERRES
   205  104  105 1    
   206  104  225 1    
   207  105  106 1    
   208  105  107 1    
   209  105  226 1    
   210  106  227 1    
   211  106  228 1    
   212  106  229 1    
   213  107  108 2    
   214  107  109 am   BACKBONE|DICT|INTERRES
   215  109  110 1    
   216  109  230 1    
   217  110  111 1    
   218  110  112 1    
   219  110  231 1    
   220  111  232 1    
   221  111  233 1    
   222  111  234 1    
   223  112  113 2    
   224  112  114 am   BACKBONE|DICT|INTERRES
   225  114  115 1    
   226  114  235 1    
   227  115  116 1    
   228  115  117 1    
   229  115  236 1    
   230  116  237 1    
   231  116  238 1    
   232  116  239 1    
   233  117  118 2    
   234  117  119 am   BACKBONE|DICT|INTERRES
   235  119  120 1    
   236  119  240 1    
   237  120  121 1    
   238  120  124 1    
   239  120  241 1    
   240  121  122 am   BACKBONE|DICT|INTERRES
   241  121  123 2    
   242  122  242 1    
   243  122  243 1    
   244  124  125 1    
   245  124  244 1    
   246  124  245 1    
   247  125  126 1    
   248  126  246 1    
   249  126  247 1    
@<TRIPOS>SUBSTRUCTURE
     1 UNK         1 GROUP             0       ****    0 ROOT    
