@<TRIPOS>MOLECULE
3R540
247   249    1
SMALL
USER_CHARGES


@<TRIPOS>ATOM
      1 CA          2.4311  -10.9109  -50.3313 C.3       0 UNK        -0.1800 
      2 C           2.0636  -12.1722  -49.5630 C.2       0 UNK         0.5000 
      3 O           2.6930  -13.2136  -49.7539 O.2       0 UNK        -0.5000 
      4 N           1.0552  -12.0854  -48.6862 N.am      1 UNK        -0.5000 
      5 CA          0.5529  -13.1791  -47.8481 C.3       1 UNK         0.1400 
      6 C6         -0.9342  -12.9405  -47.4672 C.3       23 UNK        -0.0398 
      7 S7         -1.7464  -14.3465  -46.6234 S.3       23 UNK        -0.2404 
      8 C8         -2.7405  -15.1106  -47.9497 C.3       23 UNK        -0.0205 
      9 C9         -1.9542  -15.9296  -48.9729 C.ar      23 UNK        -0.0193 
     10 C10        -2.5333  -16.1648  -50.2241 C.ar      23 UNK        -0.1150 
     11 C11        -1.8554  -16.9003  -51.1992 C.ar      23 UNK        -0.0193 
     12 C12        -0.5762  -17.3879  -50.9239 C.ar      23 UNK        -0.1150 
     13 C13         0.0107  -17.1794  -49.6755 C.ar      23 UNK        -0.0193 
     14 C14        -0.6900  -16.4696  -48.6974 C.ar      23 UNK        -0.1150 
     15 C15         1.4140  -17.6991  -49.4058 C.3       23 UNK        -0.0205 
     16 S16         1.4270  -19.4886  -49.0823 S.3       23 UNK        -0.2404 
     17 C17         0.8527  -19.5344  -47.3537 C.3       23 UNK        -0.0398 
     18 CA         -0.0830  -20.7264  -47.0496 C.3       11 UNK         0.1400 
     19 N          -0.1334  -21.0007  -45.6121 N.am      11 UNK        -0.5000 
     20 C          -0.6764  -22.0885  -45.0515 C.2       10 UNK         0.5000 
     21 O          -1.2074  -22.9943  -45.6922 O.2       10 UNK        -0.5000 
     22 CA         -0.6542  -22.1594  -43.5140 C.3       10 UNK         0.1400 
     23 CB          0.7413  -22.5468  -43.0024 C.3       10 UNK        -0.1800 
     24 N          -1.0811  -20.9098  -42.8834 N.am      10 UNK        -0.5000 
     25 C          -2.3097  -20.3863  -43.0042 C.2       9 UNK         0.5000 
     26 O          -3.2180  -20.9114  -43.6479 O.2       9 UNK        -0.5000 
     27 CA         -2.5558  -19.0263  -42.3285 C.3       9 UNK         0.1400 
     28 CB         -2.7536  -19.1949  -40.8148 C.3       9 UNK        -0.1800 
     29 N          -1.4810  -18.0676  -42.5775 N.am      9 UNK        -0.5000 
     30 C          -1.1163  -17.6267  -43.7905 C.2       8 UNK         0.5000 
     31 O          -1.6551  -17.9685  -44.8424 O.2       8 UNK        -0.5000 
     32 CA          0.1039  -16.6967  -43.8361 C.3       8 UNK         0.1400 
     33 CB         -0.2498  -15.3046  -43.2913 C.3       8 UNK        -0.1800 
     34 N           1.2355  -17.2387  -43.0851 N.am      8 UNK        -0.5000 
     35 C           1.8356  -18.4140  -43.3187 C.2       7 UNK         0.5000 
     36 O           1.5192  -19.1788  -44.2269 O.2       7 UNK        -0.5000 
     37 CA          2.9469  -18.8286  -42.3423 C.3       7 UNK         0.1400 
     38 CB          4.2804  -18.1634  -42.7104 C.3       7 UNK        -0.1800 
     39 N           2.6001  -18.5069  -40.9600 N.am      7 UNK        -0.5000 
     40 C           1.6315  -19.1170  -40.2629 C.2       6 UNK         0.5000 
     41 O           0.9489  -20.0448  -40.6996 O.2       6 UNK        -0.5000 
     42 CA          1.3570  -18.5602  -38.8550 C.3       6 UNK         0.1400 
     43 CB          2.3800  -19.1007  -37.8446 C.3       6 UNK        -0.1800 
     44 N           1.3680  -17.0958  -38.8261 N.am      6 UNK        -0.5000 
     45 C           0.4481  -16.3303  -39.4287 C.2       5 UNK         0.5000 
     46 O          -0.5114  -16.7820  -40.0547 O.2       5 UNK        -0.5000 
     47 CA          0.6459  -14.8055  -39.3402 C.3       5 UNK         0.1400 
     48 CB          0.0561  -14.2633  -38.0296 C.3       5 UNK        -0.1800 
     49 N           2.0377  -14.3579  -39.4667 N.am      5 UNK        -0.5000 
     50 C           2.8214  -14.5751  -40.5312 C.2       4 UNK         0.5000 
     51 O           2.5142  -15.3086  -41.4713 O.2       4 UNK        -0.5000 
     52 CA          4.1783  -13.8521  -40.5606 C.3       4 UNK         0.1400 
     53 CB          5.3377  -14.8530  -40.4449 C.3       4 UNK        -0.1800 
     54 N           4.3143  -13.0965  -41.8052 N.am      4 UNK        -0.5000 
     55 C           3.6724  -11.9538  -42.0776 C.2       3 UNK         0.5000 
     56 O           2.9812  -11.3534  -41.2533 O.2       3 UNK        -0.5000 
     57 CA          3.7978  -11.3865  -43.5059 C.3       3 UNK         0.1400 
     58 CB          5.1196  -10.6188  -43.6998 C.3       3 UNK        -0.1800 
     59 N           3.5744  -12.3803  -44.5636 N.am      3 UNK        -0.5000 
     60 C           4.3342  -13.4141  -44.9421 C.2       2 UNK         0.5000 
     61 O           5.4291  -13.6665  -44.4375 O.2       2 UNK        -0.5000 
     62 CA          3.7945  -14.3545  -46.0454 C.3       2 UNK         0.1400 
     63 CB          3.3580  -15.6882  -45.4203 C.3       2 UNK        -0.1800 
     64 N           2.7274  -13.8491  -46.9270 N.am      2 UNK        -0.5000 
     65 C           1.4900  -13.4189  -46.6387 C.2       1 UNK         0.5000 
     66 O           1.1006  -13.1815  -45.4965 O.2       1 UNK        -0.5000 
     67 C          -1.4903  -20.5417  -47.6564 C.2       11 UNK         0.5000 
     68 O          -1.7543  -21.0686  -48.7390 O.2       11 UNK        -0.5000 
     69 N          -2.3798  -19.8526  -46.9255 N.am      12 UNK        -0.5000 
     70 CA         -3.7891  -19.6844  -47.2750 C.3       12 UNK         0.1400 
     71 CB         -4.4417  -18.6648  -46.3298 C.3       12 UNK        -0.1800 
     72 C          -4.5621  -21.0143  -47.2475 C.2       12 UNK         0.5000 
     73 O          -5.2973  -21.3010  -48.1917 O.2       12 UNK        -0.5000 
     74 N          -4.3604  -21.8165  -46.1907 N.am      13 UNK        -0.5000 
     75 CA         -4.9685  -23.1399  -46.0209 C.3       13 UNK         0.1400 
     76 CB         -4.6771  -23.6661  -44.6076 C.3       13 UNK        -0.1800 
     77 C          -4.5077  -24.1539  -47.0840 C.2       13 UNK         0.5000 
     78 O          -5.3214  -24.9404  -47.5694 O.2       13 UNK        -0.5000 
     79 N          -3.2216  -24.0910  -47.4523 N.am      14 UNK        -0.5000 
     80 CA         -2.6226  -24.8671  -48.5382 C.3       14 UNK         0.1400 
     81 CB         -1.0943  -24.8550  -48.3707 C.3       14 UNK        -0.1800 
     82 C          -3.0000  -24.3522  -49.9413 C.2       14 UNK         0.5000 
     83 O          -2.7133  -25.0415  -50.9202 O.2       14 UNK        -0.5000 
     84 N          -3.5810  -23.1445  -50.0246 N.am      15 UNK        -0.5000 
     85 CA         -3.9220  -22.3969  -51.2397 C.3       15 UNK         0.1400 
     86 CB         -5.1274  -23.0442  -51.9461 C.3       15 UNK        -0.1800 
     87 C          -2.7028  -22.2124  -52.1652 C.2       15 UNK         0.5000 
     88 O          -2.7804  -22.4837  -53.3647 O.2       15 UNK        -0.5000 
     89 N          -1.5675  -21.8327  -51.5577 N.am      16 UNK        -0.5000 
     90 CA         -0.2366  -21.6837  -52.1629 C.3       16 UNK         0.1400 
     91 CB         -0.2536  -20.5576  -53.2171 C.3       16 UNK        -0.1800 
     92 C           0.3464  -22.9879  -52.7567 C.2       16 UNK         0.5000 
     93 O           1.3331  -22.9222  -53.4913 O.2       16 UNK        -0.5000 
     94 N          -0.2827  -24.1378  -52.4625 N.am      17 UNK        -0.5000 
     95 CA         -0.0893  -25.4462  -53.0961 C.3       17 UNK         0.1400 
     96 CB          1.3144  -26.0117  -52.7942 C.3       17 UNK        -0.1800 
     97 C          -0.4369  -25.4415  -54.6040 C.2       17 UNK         0.5000 
     98 O           0.1181  -26.2402  -55.3614 O.2       17 UNK        -0.5000 
     99 N          -1.3422  -24.5402  -55.0127 N.am      18 UNK        -0.5000 
    100 CA        -1.8217  -24.3773  -56.3811 C.3       18 UNK         0.1400 
    101 CB        -1.9101  -22.8684  -56.6948 C.3       18 UNK        -0.1800 
    102 C         -3.1505  -25.1409  -56.5528 C.2       18 UNK         0.5000 
    103 O         -3.1691  -26.3640  -56.3971 O.2       18 UNK        -0.5000 
    104 N         -4.2306  -24.4230  -56.8858 N.am      19 UNK        -0.5000 
    105 CA        -5.5902  -24.9454  -57.0232 C.3       19 UNK         0.1400 
    106 CB        -6.3355  -24.0842  -58.0620 C.3       19 UNK        -0.1800 
    107 C         -6.3122  -24.9972  -55.6575 C.2       19 UNK         0.5000 
    108 O         -5.6630  -25.0341  -54.6116 O.2       19 UNK        -0.5000 
    109 N         -7.6523  -24.9970  -55.6798 N.am      20 UNK        -0.5000 
    110 CA        -8.5070  -24.9700  -54.4867 C.3       20 UNK         0.1400 
    111 CB        -9.9428  -25.3313  -54.8987 C.3       20 UNK        -0.1800 
    112 C         -8.4851  -23.6189  -53.7389 C.2       20 UNK         0.5000 
    113 O         -8.8518  -23.5699  -52.5643 O.2       20 UNK        -0.5000 
    114 N         -8.0603  -22.5550  -54.4273 N.am      21 UNK        -0.5000 
    115 CA        -7.8715  -21.2049  -53.9140 C.3       21 UNK         0.1400 
    116 CB        -9.1970  -20.4281  -54.0001 C.3       21 UNK        -0.1800 
    117 C         -6.7701  -20.5303  -54.7460 C.2       21 UNK         0.5000 
    118 O         -6.4518  -21.0094  -55.8390 O.2       21 UNK        -0.5000 
    119 N         -6.2200  -19.4309  -54.2232 N.am      22 UNK        -0.5000 
    120 CA        -5.1545  -18.6396  -54.8625 C.3       22 UNK         0.1400 
    121 C         -5.4443  -17.1108  -54.9125 C.2       22 UNK         0.5000 
    122 N         -6.6362  -16.6472  -54.5546 N.am      22 UNK        -0.7600 
    123 O         -4.5846  -16.3289  -55.3091 O.2       22 UNK        -0.5000 
    124 C124       -3.7556  -18.9857  -54.2876 C.3       23 UNK        -0.0398 
    125 S125       -3.5620  -18.6354  -52.5027 S.3       23 UNK        -0.2404 
    126 C126       -2.4951  -17.1609  -52.5526 C.3       23 UNK        -0.0205 
    127 H127        2.3313  -11.0826  -51.4030 H         1 UNK         0.0600 
    128 H128        3.4646  -10.6335  -50.1241 H         1 UNK         0.0600 
    129 H129        1.7920  -10.0700  -50.0606 H         1 UNK         0.0600 
    130 H130        0.6018  -11.1924  -48.5528 H         1 UNK         0.3000 
    131 H131        0.5846  -14.0876  -48.4503 H         1 UNK         0.0600 
    132 H132       -1.0223  -12.0652  -46.8216 H         1 UNK         0.0800 
    133 H133       -1.5071  -12.7032  -48.3646 H         1 UNK         0.0800 
    134 H134       -3.3080  -14.3276  -48.4549 H         1 UNK         0.0800 
    135 H135       -3.4773  -15.7656  -47.4870 H         1 UNK         0.0800 
    136 H136       -3.5188  -15.7771  -50.4418 H         1 UNK         0.1150 
    137 H137       -0.0305  -17.9344  -51.6783 H         1 UNK         0.1150 
    138 H138       -0.2344  -16.3250  -47.7291 H         1 UNK         0.1150 
    139 H139        2.0427  -17.4967  -50.2741 H         1 UNK         0.0800 
    140 H140        1.8739  -17.1680  -48.5708 H         1 UNK         0.0800 
    141 H141        0.3833  -18.5923  -47.0678 H         1 UNK         0.0800 
    142 H142        1.7560  -19.6116  -46.7482 H         1 UNK         0.0800 
    143 H143        0.3495  -21.6155  -47.5136 H         1 UNK         0.0600 
    144 H144        0.3099  -20.3095  -45.0099 H         1 UNK         0.3000 
    145 H145       -1.3538  -22.9406  -43.2097 H         1 UNK         0.0600 
    146 H146        0.7402  -22.6809  -41.9206 H         1 UNK         0.0600 
    147 H147        1.0735  -23.4858  -43.4468 H         1 UNK         0.0600 
    148 H148        1.4853  -21.7872  -43.2431 H         1 UNK         0.0600 
    149 H149       -0.3923  -20.4239  -42.3198 H         1 UNK         0.3000 
    150 H150       -3.4737  -18.6096  -42.7482 H         1 UNK         0.0600 
    151 H151       -3.5550  -19.9032  -40.6009 H         1 UNK         0.0600 
    152 H152       -3.0219  -18.2481  -40.3457 H         1 UNK         0.0600 
    153 H153       -1.8491  -19.5625  -40.3285 H         1 UNK         0.0600 
    154 H154       -0.9874  -17.7174  -41.7618 H         1 UNK         0.3000 
    155 H155        0.4089  -16.5925  -44.8792 H         1 UNK         0.0600 
    156 H156       -1.0565  -14.8510  -43.8650 H         1 UNK         0.0600 
    157 H157        0.6047  -14.6305  -43.3409 H         1 UNK         0.0600 
    158 H158       -0.5788  -15.3450  -42.2548 H         1 UNK         0.0600 
    159 H159        1.6098  -16.6439  -42.3491 H         1 UNK         0.3000 
    160 H160        3.0747  -19.9105  -42.4185 H         1 UNK         0.0600 
    161 H161        4.2126  -17.0767  -42.6678 H         1 UNK         0.0600 
    162 H162        4.5820  -18.4338  -43.7231 H         1 UNK         0.0600 
    163 H163        5.0788  -18.4776  -42.0381 H         1 UNK         0.0600 
    164 H164        3.0687  -17.7147  -40.5465 H         1 UNK         0.3000 
    165 H165        0.3648  -18.9005  -38.5505 H         1 UNK         0.0600 
    166 H166        2.1448  -18.7720  -36.8321 H         1 UNK         0.0600 
    167 H167        2.3825  -20.1916  -37.8386 H         1 UNK         0.0600 
    168 H168        3.3932  -18.7712  -38.0779 H         1 UNK         0.0600 
    169 H169        2.1264  -16.6469  -38.3341 H         1 UNK         0.3000 
    170 H170        0.0891  -14.3589  -40.1660 H         1 UNK         0.0600 
    171 H171       -0.9868  -14.5630  -37.9167 H         1 UNK         0.0600 
    172 H172        0.5999  -14.6327  -37.1593 H         1 UNK         0.0600 
    173 H173        0.0830  -13.1737  -38.0055 H         1 UNK         0.0600 
    174 H174        2.3742  -13.7475  -38.7360 H         1 UNK         0.3000 
    175 H175        4.2377  -13.1597  -39.7183 H         1 UNK         0.0600 
    176 H176        5.3685  -15.5366  -41.2932 H         1 UNK         0.0600 
    177 H177        6.2970  -14.3373  -40.3997 H         1 UNK         0.0600 
    178 H178        5.2483  -15.4540  -39.5391 H         1 UNK         0.0600 
    179 H179        4.8342  -13.5330  -42.5594 H         1 UNK         0.3000 
    180 H180        2.9886  -10.6637  -43.6223 H         1 UNK         0.0600 
    181 H181        5.9916  -11.2569  -43.5560 H         1 UNK         0.0600 
    182 H182        5.1983   -9.7999  -42.9838 H         1 UNK         0.0600 
    183 H183        5.1809  -10.1851  -44.6978 H         1 UNK         0.0600 
    184 H184        2.6382  -12.3717  -44.9622 H         1 UNK         0.3000 
    185 H185        4.6382  -14.5605  -46.7056 H         1 UNK         0.0600 
    186 H186        4.2004  -16.1842  -44.9387 H         1 UNK         0.0600 
    187 H187        2.5965  -15.5252  -44.6600 H         1 UNK         0.0600 
    188 H188        2.9570  -16.3757  -46.1652 H         1 UNK         0.0600 
    189 H189        2.9503  -13.8860  -47.9180 H         1 UNK         0.3000 
    190 H190       -2.0741  -19.4055  -46.0651 H         1 UNK         0.3000 
    191 H191       -3.8347  -19.2861  -48.2911 H         1 UNK         0.0600 
    192 H192       -4.4292  -19.0074  -45.2947 H         1 UNK         0.0600 
    193 H193       -5.4813  -18.4849  -46.6058 H         1 UNK         0.0600 
    194 H194       -3.9241  -17.7078  -46.3648 H         1 UNK         0.0600 
    195 H195       -3.7685  -21.4919  -45.4308 H         1 UNK         0.3000 
    196 H196       -6.0494  -23.0239  -46.1228 H         1 UNK         0.0600 
    197 H197       -5.1250  -24.6489  -44.4552 H         1 UNK         0.0600 
    198 H198       -5.0875  -23.0010  -43.8477 H         1 UNK         0.0600 
    199 H199       -3.6060  -23.7604  -44.4261 H         1 UNK         0.0600 
    200 H200       -2.5980  -23.4687  -46.9446 H         1 UNK         0.3000 
    201 H201       -2.9686  -25.8998  -48.4620 H         1 UNK         0.0600 
    202 H202       -0.8001  -25.2659  -47.4048 H         1 UNK         0.0600 
    203 H203       -0.6924  -23.8434  -48.4406 H         1 UNK         0.0600 
    204 H204       -0.6079  -25.4557  -49.1405 H         1 UNK         0.0600 
    205 H205       -3.7532  -22.6493  -49.1591 H         1 UNK         0.3000 
    206 H206       -4.2184  -21.3964  -50.9215 H         1 UNK         0.0600 
    207 H207       -6.0074  -23.0475  -51.3030 H         1 UNK         0.0600 
    208 H208       -5.3875  -22.5021  -52.8548 H         1 UNK         0.0600 
    209 H209       -4.9188  -24.0745  -52.2336 H         1 UNK         0.0600 
    210 H210       -1.6156  -21.6330  -50.5600 H         1 UNK         0.3000 
    211 H211        0.4302  -21.3817  -51.3546 H         1 UNK         0.0600 
    212 H212       -0.7667  -19.6752  -52.8436 H         1 UNK         0.0600 
    213 H213       -0.7597  -20.8676  -54.1321 H         1 UNK         0.0600 
    214 H214        0.7592  -20.2584  -53.4883 H         1 UNK         0.0600 
    215 H215       -1.0972  -24.0875  -51.8611 H         1 UNK         0.3000 
    216 H216       -0.8144  -26.1135  -52.6286 H         1 UNK         0.0600 
    217 H217        1.3944  -27.0496  -53.1191 H         1 UNK         0.0600 
    218 H218        1.5259  -25.9910  -51.7251 H         1 UNK         0.0600 
    219 H219        2.0982  -25.4510  -53.3036 H         1 UNK         0.0600 
    220 H220       -1.7771  -23.9337  -54.3231 H         1 UNK         0.3000 
    221 H221       -1.1095  -24.8163  -57.0825 H         1 UNK         0.0600 
    222 H222       -2.6155  -22.3516  -56.0430 H         1 UNK         0.0600 
    223 H223       -0.9389  -22.3897  -56.5666 H         1 UNK         0.0600 
    224 H224       -2.2159  -22.6961  -57.7275 H         1 UNK         0.0600 
    225 H225       -4.1343  -23.4199  -56.9453 H         1 UNK         0.3000 
    226 H226       -5.5444  -25.9678  -57.4036 H         1 UNK         0.0600 
    227 H227       -5.7703  -24.0170  -58.9919 H         1 UNK         0.0600 
    228 H228       -7.3065  -24.5099  -58.3166 H         1 UNK         0.0600 
    229 H229       -6.5001  -23.0682  -57.7011 H         1 UNK         0.0600 
    230 H230       -8.1249  -24.9736  -56.5718 H         1 UNK         0.3000 
    231 H231       -8.1494  -25.7327  -53.7917 H         1 UNK         0.0600 
    232 H232       -9.9846  -26.3170  -55.3627 H         1 UNK         0.0600 
    233 H233      -10.3526  -24.6083  -55.6051 H         1 UNK         0.0600 
    234 H234      -10.6044  -25.3540  -54.0317 H         1 UNK         0.0600 
    235 H235       -7.7197  -22.6824  -55.3718 H         1 UNK         0.3000 
    236 H236       -7.5396  -21.2516  -52.8748 H         1 UNK         0.0600 
    237 H237       -9.0864  -19.4149  -53.6127 H         1 UNK         0.0600 
    238 H238       -9.5502  -20.3514  -55.0292 H         1 UNK         0.0600 
    239 H239       -9.9778  -20.9137  -53.4145 H         1 UNK         0.0600 
    240 H240       -6.5148  -19.1052  -53.3137 H         1 UNK         0.3000 
    241 H241       -5.1203  -18.9081  -55.9198 H         1 UNK         0.0600 
    242 H242       -7.3776  -17.2695  -54.2778 H         1 UNK         0.3800 
    243 H243       -6.8112  -15.6555  -54.6018 H         1 UNK         0.3800 
    244 H244       -3.5648  -20.0496  -54.4339 H         1 UNK         0.0800 
    245 H245       -2.9751  -18.4790  -54.8567 H         1 UNK         0.0800 
    246 H246       -3.0837  -16.2966  -52.8636 H         1 UNK         0.0800 
    247 H247       -1.7160  -17.2903  -53.3051 H         1 UNK         0.0800 
@<TRIPOS>BOND
     1    1    2 1    
     2    1  127 1    
     3    1  128 1    
     4    1  129 1    
     5    2    3 2    
     6    2    4 am   BACKBONE|DICT|INTERRES
     7    4    5 1    
     8    4  130 1    
     9    5    6 1    
    10    5   65 1    
    11    5  131 1    
    12    6    7 1    
    13    6  132 1    
    14    6  133 1    
    15    7    8 1    
    16    8    9 1    
    17    8  134 1    
    18    8  135 1    
    19    9   10 ar   
    20    9   14 ar   
    21   10   11 ar   
    22   10  136 1    
    23   11   12 ar   
    24   11  126 1    
    25   12   13 ar   
    26   12  137 1    
    27   13   14 ar   
    28   13   15 1    
    29   14  138 1    
    30   15   16 1    
    31   15  139 1    
    32   15  140 1    
    33   16   17 1    
    34   17   18 1    
    35   17  141 1    
    36   17  142 1    
    37   18   19 1    
    38   18   67 1    
    39   18  143 1    
    40   19   20 am   BACKBONE|DICT|INTERRES
    41   19  144 1    
    42   20   21 2    
    43   20   22 1    
    44   22   23 1    
    45   22   24 1    
    46   22  145 1    
    47   23  146 1    
    48   23  147 1    
    49   23  148 1    
    50   24   25 am   BACKBONE|DICT|INTERRES
    51   24  149 1    
    52   25   26 2    
    53   25   27 1    
    54   27   28 1    
    55   27   29 1    
    56   27  150 1    
    57   28  151 1    
    58   28  152 1    
    59   28  153 1    
    60   29   30 am   BACKBONE|DICT|INTERRES
    61   29  154 1    
    62   30   31 2    
    63   30   32 1    
    64   32   33 1    
    65   32   34 1    
    66   32  155 1    
    67   33  156 1    
    68   33  157 1    
    69   33  158 1    
    70   34   35 am   BACKBONE|DICT|INTERRES
    71   34  159 1    
    72   35   36 2    
    73   35   37 1    
    74   37   38 1    
    75   37   39 1    
    76   37  160 1    
    77   38  161 1    
    78   38  162 1    
    79   38  163 1    
    80   39   40 am   BACKBONE|DICT|INTERRES
    81   39  164 1    
    82   40   41 2    
    83   40   42 1    
    84   42   43 1    
    85   42   44 1    
    86   42  165 1    
    87   43  166 1    
    88   43  167 1    
    89   43  168 1    
    90   44   45 am   BACKBONE|DICT|INTERRES
    91   44  169 1    
    92   45   46 2    
    93   45   47 1    
    94   47   48 1    
    95   47   49 1    
    96   47  170 1    
    97   48  171 1    
    98   48  172 1    
    99   48  173 1    
   100   49   50 am   BACKBONE|DICT|INTERRES
   101   49  174 1    
   102   50   51 2    
   103   50   52 1    
   104   52   53 1    
   105   52   54 1    
   106   52  175 1    
   107   53  176 1    
   108   53  177 1    
   109   53  178 1    
   110   54   55 am   BACKBONE|DICT|INTERRES
   111   54  179 1    
   112   55   56 2    
   113   55   57 1    
   114   57   58 1    
   115   57   59 1    
   116   57  180 1    
   117   58  181 1    
   118   58  182 1    
   119   58  183 1    
   120   59   60 am   BACKBONE|DICT|INTERRES
   121   59  184 1    
   122   60   61 2    
   123   60   62 1    
   124   62   63 1    
   125   62   64 1    
   126   62  185 1    
   127   63  186 1    
   128   63  187 1    
   129   63  188 1    
   130   64   65 am   BACKBONE|DICT|INTERRES
   131   64  189 1    
   132   65   66 2    
   133   67   68 2    
   134   67   69 am   BACKBONE|DICT|INTERRES
   135   69   70 1    
   136   69  190 1    
   137   70   71 1    
   138   70   72 1    
   139   70  191 1    
   140   71  192 1    
   141   71  193 1    
   142   71  194 1    
   143   72   73 2    
   144   72   74 am   BACKBONE|DICT|INTERRES
   145   74   75 1    
   146   74  195 1    
   147   75   76 1    
   148   75   77 1    
   149   75  196 1    
   150   76  197 1    
   151   76  198 1    
   152   76  199 1    
   153   77   78 2    
   154   77   79 am   BACKBONE|DICT|INTERRES
   155   79   80 1    
   156   79  200 1    
   157   80   81 1    
   158   80   82 1    
   159   80  201 1    
   160   81  202 1    
   161   81  203 1    
   162   81  204 1    
   163   82   83 2    
   164   82   84 am   BACKBONE|DICT|INTERRES
   165   84   85 1    
   166   84  205 1    
   167   85   86 1    
   168   85   87 1    
   169   85  206 1    
   170   86  207 1    
   171   86  208 1    
   172   86  209 1    
   173   87   88 2    
   174   87   89 am   BACKBONE|DICT|INTERRES
   175   89   90 1    
   176   89  210 1    
   177   90   91 1    
   178   90   92 1    
   179   90  211 1    
   180   91  212 1    
   181   91  213 1    
   182   91  214 1    
   183   92   93 2    
   184   92   94 am   BACKBONE|DICT|INTERRES
   185   94   95 1    
   186   94  215 1    
   187   95   96 1    
   188   95   97 1    
   189   95  216 1    
   190   96  217 1    
   191   96  218 1    
   192   96  219 1    
   193   97   98 2    
   194   97   99 am   BACKBONE|DICT|INTERRES
   195   99  100 1    
   196   99  220 1    
   197  100  101 1    
   198  100  102 1    
   199  100  221 1    
   200  101  222 1    
   201  101  223 1    
   202  101  224 1    
   203  102  103 2    
   204  102  104 am   BACKBONE|DICT|INTERRES
   205  104  105 1    
   206  104  225 1    
   207  105  106 1    
   208  105  107 1    
   209  105  226 1    
   210  106  227 1    
   211  106  228 1    
   212  106  229 1    
   213  107  108 2    
   214  107  109 am   BACKBONE|DICT|INTERRES
   215  109  110 1    
   216  109  230 1    
   217  110  111 1    
   218  110  112 1    
   219  110  231 1    
   220  111  232 1    
   221  111  233 1    
   222  111  234 1    
   223  112  113 2    
   224  112  114 am   BACKBONE|DICT|INTERRES
   225  114  115 1    
   226  114  235 1    
   227  115  116 1    
   228  115  117 1    
   229  115  236 1    
   230  116  237 1    
   231  116  238 1    
   232  116  239 1    
   233  117  118 2    
   234  117  119 am   BACKBONE|DICT|INTERRES
   235  119  120 1    
   236  119  240 1    
   237  120  121 1    
   238  120  124 1    
   239  120  241 1    
   240  121  122 am   BACKBONE|DICT|INTERRES
   241  121  123 2    
   242  122  242 1    
   243  122  243 1    
   244  124  125 1    
   245  124  244 1    
   246  124  245 1    
   247  125  126 1    
   248  126  246 1    
   249  126  247 1    
@<TRIPOS>SUBSTRUCTURE
     1 UNK         1 GROUP             0       ****    0 ROOT    
