@<TRIPOS>MOLECULE
3R540
247   249    1
SMALL
USER_CHARGES


@<TRIPOS>ATOM
      1 CA         -1.3850   -9.4494  -45.6867 C.3       0 UNK        -0.1800 
      2 C          -1.6244  -10.5895  -44.6992 C.2       0 UNK         0.5000 
      3 O          -0.9787  -10.6293  -43.6540 O.2       0 UNK        -0.5000 
      4 N          -2.5471  -11.5239  -44.9659 N.am      1 UNK        -0.5000 
      5 CA         -3.3527  -11.6548  -46.1880 C.3       1 UNK         0.1400 
      6 C6         -4.6395  -12.4812  -45.9362 C.3       23 UNK        -0.0398 
      7 S7         -4.3509  -14.1197  -45.1701 S.3       23 UNK        -0.2404 
      8 C8         -5.3248  -15.2194  -46.2449 C.3       23 UNK        -0.0205 
      9 C9         -4.5946  -15.5595  -47.5351 C.ar      23 UNK        -0.0193 
     10 C10        -4.9101  -14.9036  -48.7280 C.ar      23 UNK        -0.1150 
     11 C11        -4.2534  -15.2391  -49.9155 C.ar      23 UNK        -0.0193 
     12 C12        -3.2877  -16.2513  -49.9049 C.ar      23 UNK        -0.1150 
     13 C13        -2.9497  -16.9022  -48.7174 C.ar      23 UNK        -0.0193 
     14 C14        -3.6104  -16.5506  -47.5359 C.ar      23 UNK        -0.1150 
     15 C15        -1.8278  -17.9325  -48.7072 C.3       23 UNK        -0.0205 
     16 S16        -2.4270  -19.6450  -48.8288 S.3       23 UNK        -0.2404 
     17 C17        -3.1570  -19.8896  -47.1769 C.3       23 UNK        -0.0398 
     18 CA         -2.9395  -21.3220  -46.6281 C.3       11 UNK         0.1400 
     19 N          -1.6251  -21.4815  -45.9883 N.am      11 UNK        -0.5000 
     20 C          -1.0902  -22.6438  -45.5850 C.2       10 UNK         0.5000 
     21 O          -1.6560  -23.7288  -45.6971 O.2       10 UNK        -0.5000 
     22 CA          0.2830  -22.5852  -44.8918 C.3       10 UNK         0.1400 
     23 CB          1.4216  -22.5560  -45.9222 C.3       10 UNK        -0.1800 
     24 N           0.4051  -21.4529  -43.9711 N.am      10 UNK        -0.5000 
     25 C          -0.3063  -21.3240  -42.8414 C.2       9 UNK         0.5000 
     26 O          -1.1065  -22.1697  -42.4441 O.2       9 UNK        -0.5000 
     27 CA         -0.1212  -20.0275  -42.0311 C.3       9 UNK         0.1400 
     28 CB          1.1150  -20.1224  -41.1246 C.3       9 UNK        -0.1800 
     29 N          -0.0183  -18.8398  -42.8772 N.am      9 UNK        -0.5000 
     30 C          -1.0033  -18.3688  -43.6552 C.2       8 UNK         0.5000 
     31 O          -2.1380  -18.8456  -43.6946 O.2       8 UNK        -0.5000 
     32 CA         -0.6376  -17.2027  -44.5925 C.3       8 UNK         0.1400 
     33 CB         -0.6918  -15.8583  -43.8510 C.3       8 UNK        -0.1800 
     34 N           0.6739  -17.3747  -45.2233 N.am      8 UNK        -0.5000 
     35 C           1.0000  -18.4010  -46.0236 C.2       7 UNK         0.5000 
     36 O           0.2188  -19.2978  -46.3361 O.2       7 UNK        -0.5000 
     37 CA          2.4560  -18.4707  -46.5084 C.3       7 UNK         0.1400 
     38 CB          2.6957  -17.5285  -47.6984 C.3       7 UNK        -0.1800 
     39 N           3.3923  -18.1690  -45.4269 N.am      7 UNK        -0.5000 
     40 C           3.6182  -18.9822  -44.3846 C.2       6 UNK         0.5000 
     41 O           3.1008  -20.0918  -44.2595 O.2       6 UNK        -0.5000 
     42 CA          4.5442  -18.4482  -43.2764 C.3       6 UNK         0.1400 
     43 CB          6.0161  -18.7103  -43.6282 C.3       6 UNK        -0.1800 
     44 N           4.3534  -17.0193  -43.0243 N.am      6 UNK        -0.5000 
     45 C           3.2339  -16.4797  -42.5213 C.2       5 UNK         0.5000 
     46 O           2.2557  -17.1387  -42.1708 O.2       5 UNK        -0.5000 
     47 CA          3.1811  -14.9414  -42.4491 C.3       5 UNK         0.1400 
     48 CB          3.7625  -14.4434  -41.1178 C.3       5 UNK        -0.1800 
     49 N           3.8771  -14.2848  -43.5613 N.am      5 UNK        -0.5000 
     50 C           3.5328  -14.4131  -44.8488 C.2       4 UNK         0.5000 
     51 O           2.5944  -15.1135  -45.2375 O.2       4 UNK        -0.5000 
     52 CA          4.4163  -13.6911  -45.8729 C.3       4 UNK         0.1400 
     53 CB          5.6773  -14.5197  -46.1779 C.3       4 UNK        -0.1800 
     54 N           3.6508  -13.4911  -47.0982 N.am      4 UNK        -0.5000 
     55 C           3.8755  -12.5406  -48.0133 C.2       3 UNK         0.5000 
     56 O           4.7958  -11.7255  -47.9340 O.2       3 UNK        -0.5000 
     57 CA          2.9235  -12.4832  -49.2281 C.3       3 UNK         0.1400 
     58 CB          3.5901  -13.1205  -50.4575 C.3       3 UNK        -0.1800 
     59 N           1.6289  -13.1343  -49.0063 N.am      3 UNK        -0.5000 
     60 C           0.6792  -12.6840  -48.1765 C.2       2 UNK         0.5000 
     61 O           0.7849  -11.6420  -47.5249 O.2       2 UNK        -0.5000 
     62 CA         -0.5678  -13.5768  -48.0344 C.3       2 UNK         0.1400 
     63 CB         -0.1714  -14.9732  -47.5341 C.3       2 UNK        -0.1800 
     64 N          -1.5075  -13.0062  -47.0743 N.am      2 UNK        -0.5000 
     65 C          -2.5399  -12.2117  -47.3773 C.2       1 UNK         0.5000 
     66 O          -2.8480  -11.8872  -48.5242 O.2       1 UNK        -0.5000 
     67 C          -4.1319  -21.7295  -45.7340 C.2       11 UNK         0.5000 
     68 O          -5.2250  -21.9305  -46.2648 O.2       11 UNK        -0.5000 
     69 N          -3.9255  -21.8609  -44.4152 N.am      12 UNK        -0.5000 
     70 CA         -4.9313  -22.3507  -43.4682 C.3       12 UNK         0.1400 
     71 CB         -4.4527  -22.0758  -42.0348 C.3       12 UNK        -0.1800 
     72 C          -5.2718  -23.8463  -43.6510 C.2       12 UNK         0.5000 
     73 O          -6.3054  -24.2922  -43.1505 O.2       12 UNK        -0.5000 
     74 N          -4.4159  -24.5888  -44.3630 N.am      13 UNK        -0.5000 
     75 CA         -4.6041  -25.9829  -44.7421 C.3       13 UNK         0.1400 
     76 CB         -4.1224  -26.9037  -43.6006 C.3       13 UNK        -0.1800 
     77 C          -3.8861  -26.2116  -46.0846 C.2       13 UNK         0.5000 
     78 O          -3.8754  -25.3088  -46.9263 O.2       13 UNK        -0.5000 
     79 N          -3.3075  -27.4085  -46.2682 N.am      14 UNK        -0.5000 
     80 CA         -2.3809  -27.7987  -47.3410 C.3       14 UNK         0.1400 
     81 CB         -1.0065  -27.1419  -47.0917 C.3       14 UNK        -0.1800 
     82 C          -2.8961  -27.5401  -48.7736 C.2       14 UNK         0.5000 
     83 O          -2.0986  -27.2357  -49.6606 O.2       14 UNK        -0.5000 
     84 N          -4.2209  -27.6267  -48.9676 N.am      15 UNK        -0.5000 
     85 CA         -4.9474  -27.2930  -50.1993 C.3       15 UNK         0.1400 
     86 CB         -4.6474  -28.3284  -51.3043 C.3       15 UNK        -0.1800 
     87 C          -4.7006  -25.8373  -50.6571 C.2       15 UNK         0.5000 
     88 O          -4.4540  -25.5975  -51.8389 O.2       15 UNK        -0.5000 
     89 N          -4.7330  -24.8997  -49.6977 N.am      16 UNK        -0.5000 
     90 CA         -4.4278  -23.4724  -49.8442 C.3       16 UNK         0.1400 
     91 CB         -5.4321  -22.7686  -50.7818 C.3       16 UNK        -0.1800 
     92 C          -2.9578  -23.2485  -50.2491 C.2       16 UNK         0.5000 
     93 O          -2.6835  -22.5607  -51.2347 O.2       16 UNK        -0.5000 
     94 N          -2.0485  -23.8743  -49.4850 N.am      17 UNK        -0.5000 
     95 CA         -0.5916  -23.8738  -49.6675 C.3       17 UNK         0.1400 
     96 CB         -0.0073  -22.4798  -49.3592 C.3       17 UNK        -0.1800 
     97 C          -0.1716  -24.4061  -51.0548 C.2       17 UNK         0.5000 
     98 O           0.5935  -23.7533  -51.7660 O.2       17 UNK        -0.5000 
     99 N          -0.7093  -25.5809  -51.4131 N.am      18 UNK        -0.5000 
    100 CA        -0.5773  -26.2658  -52.7018 C.3       18 UNK         0.1400 
    101 CB         0.8739  -26.7378  -52.9311 C.3       18 UNK        -0.1800 
    102 C         -1.1442  -25.4284  -53.8671 C.2       18 UNK         0.5000 
    103 O         -0.4883  -25.2734  -54.8993 O.2       18 UNK        -0.5000 
    104 N         -2.3631  -24.9078  -53.6634 N.am      19 UNK        -0.5000 
    105 CA        -3.1436  -24.0669  -54.5721 C.3       19 UNK         0.1400 
    106 CB        -3.6162  -24.8842  -55.7925 C.3       19 UNK        -0.1800 
    107 C         -2.4228  -22.7580  -54.9538 C.2       19 UNK         0.5000 
    108 O         -2.3647  -22.4064  -56.1340 O.2       19 UNK        -0.5000 
    109 N         -1.8848  -22.0594  -53.9445 N.am      20 UNK        -0.5000 
    110 CA        -1.2803  -20.7376  -54.0900 C.3       20 UNK         0.1400 
    111 CB        -0.3689  -20.4414  -52.8861 C.3       20 UNK        -0.1800 
    112 C         -2.3847  -19.6819  -54.2552 C.2       20 UNK         0.5000 
    113 O         -2.5712  -19.1634  -55.3568 O.2       20 UNK        -0.5000 
    114 N         -3.1098  -19.4138  -53.1571 N.am      21 UNK        -0.5000 
    115 CA        -4.3312  -18.6015  -53.0619 C.3       21 UNK         0.1400 
    116 CB        -5.5255  -19.4243  -53.5863 C.3       21 UNK        -0.1800 
    117 C         -4.2472  -17.2012  -53.7168 C.2       21 UNK         0.5000 
    118 O         -5.2498  -16.7073  -54.2359 O.2       21 UNK        -0.5000 
    119 N         -3.0529  -16.5919  -53.6866 N.am      22 UNK        -0.5000 
    120 CA        -2.7066  -15.3171  -54.3473 C.3       22 UNK         0.1400 
    121 C         -2.7427  -15.3655  -55.9086 C.2       22 UNK         0.5000 
    122 N         -2.7310  -16.5326  -56.5422 N.am      22 UNK        -0.7600 
    123 O         -2.7460  -14.3283  -56.5667 O.2       22 UNK        -0.5000 
    124 C124       -3.4704  -14.0880  -53.7696 C.3       23 UNK        -0.0398 
    125 S125       -3.1158  -13.8069  -52.0016 S.3       23 UNK        -0.2404 
    126 C126       -4.5960  -14.5201  -51.2117 C.3       23 UNK        -0.0205 
    127 H127       -1.0745   -9.8270  -46.6600 H         1 UNK         0.0600 
    128 H128       -0.5970   -8.7895  -45.3235 H         1 UNK         0.0600 
    129 H129       -2.2871   -8.8510  -45.8123 H         1 UNK         0.0600 
    130 H130       -2.7056  -12.2525  -44.2840 H         1 UNK         0.3000 
    131 H131       -3.6809  -10.6562  -46.4820 H         1 UNK         0.0600 
    132 H132       -5.2938  -11.9233  -45.2652 H         1 UNK         0.0800 
    133 H133       -5.2066  -12.5912  -46.8616 H         1 UNK         0.0800 
    134 H134       -5.5330  -16.1411  -45.6995 H         1 UNK         0.0800 
    135 H135       -6.2966  -14.7695  -46.4540 H         1 UNK         0.0800 
    136 H136       -5.6674  -14.1328  -48.7323 H         1 UNK         0.1150 
    137 H137       -2.7760  -16.5114  -50.8200 H         1 UNK         0.1150 
    138 H138       -3.3564  -17.0342  -46.6057 H         1 UNK         0.1150 
    139 H139       -1.1439  -17.7469  -49.5366 H         1 UNK         0.0800 
    140 H140       -1.2346  -17.8159  -47.8040 H         1 UNK         0.0800 
    141 H141       -4.2156  -19.6421  -47.2805 H         1 UNK         0.0800 
    142 H142       -2.7472  -19.1681  -46.4707 H         1 UNK         0.0800 
    143 H143       -2.9590  -22.0181  -47.4663 H         1 UNK         0.0600 
    144 H144       -1.0551  -20.6419  -45.9163 H         1 UNK         0.3000 
    145 H145        0.3916  -23.5003  -44.3057 H         1 UNK         0.0600 
    146 H146        2.3955  -22.5909  -45.4340 H         1 UNK         0.0600 
    147 H147        1.3622  -23.4150  -46.5917 H         1 UNK         0.0600 
    148 H148        1.3894  -21.6584  -46.5386 H         1 UNK         0.0600 
    149 H149        1.0788  -20.7362  -44.2153 H         1 UNK         0.3000 
    150 H150       -1.0000  -19.9074  -41.3941 H         1 UNK         0.0600 
    151 H151        1.0520  -20.9904  -40.4673 H         1 UNK         0.0600 
    152 H152        1.2072  -19.2401  -40.4909 H         1 UNK         0.0600 
    153 H153        2.0339  -20.2143  -41.7040 H         1 UNK         0.0600 
    154 H154        0.8685  -18.3448  -42.8605 H         1 UNK         0.3000 
    155 H155       -1.3820  -17.1772  -45.3884 H         1 UNK         0.0600 
    156 H156       -1.6857  -15.6849  -43.4364 H         1 UNK         0.0600 
    157 H157       -0.4697  -15.0247  -44.5161 H         1 UNK         0.0600 
    158 H158        0.0180  -15.8246  -43.0250 H         1 UNK         0.0600 
    159 H159        1.3722  -16.6613  -45.0385 H         1 UNK         0.3000 
    160 H160        2.6447  -19.4911  -46.8487 H         1 UNK         0.0600 
    161 H161        2.5385  -16.4840  -47.4343 H         1 UNK         0.0600 
    162 H162        2.0176  -17.7627  -48.5201 H         1 UNK         0.0600 
    163 H163        3.7126  -17.6265  -48.0786 H         1 UNK         0.0600 
    164 H164        3.8051  -17.2484  -45.4256 H         1 UNK         0.3000 
    165 H165        4.3097  -18.9895  -42.3573 H         1 UNK         0.0600 
    166 H166        6.6759  -18.4051  -42.8157 H         1 UNK         0.0600 
    167 H167        6.1912  -19.7722  -43.8060 H         1 UNK         0.0600 
    168 H168        6.3189  -18.1722  -44.5274 H         1 UNK         0.0600 
    169 H169        5.1103  -16.4037  -43.2818 H         1 UNK         0.3000 
    170 H170        2.1310  -14.6460  -42.4936 H         1 UNK         0.0600 
    171 H171        3.2482  -14.9018  -40.2719 H         1 UNK         0.0600 
    172 H172        4.8229  -14.6819  -41.0259 H         1 UNK         0.0600 
    173 H173        3.6505  -13.3637  -41.0176 H         1 UNK         0.0600 
    174 H174        4.6651  -13.7018  -43.3179 H         1 UNK         0.3000 
    175 H175        4.7004  -12.7214  -45.4588 H         1 UNK         0.0600 
    176 H176        5.4252  -15.4922  -46.6030 H         1 UNK         0.0600 
    177 H177        6.3264  -14.0052  -46.8866 H         1 UNK         0.0600 
    178 H178        6.2629  -14.6956  -45.2749 H         1 UNK         0.0600 
    179 H179        2.8466  -14.0966  -47.1919 H         1 UNK         0.3000 
    180 H180        2.7394  -11.4294  -49.4476 H         1 UNK         0.0600 
    181 H181        3.7857  -14.1825  -50.3035 H         1 UNK         0.0600 
    182 H182        4.5443  -12.6401  -50.6783 H         1 UNK         0.0600 
    183 H183        2.9644  -13.0178  -51.3443 H         1 UNK         0.0600 
    184 H184        1.4711  -13.9943  -49.5110 H         1 UNK         0.3000 
    185 H185       -1.0486  -13.6744  -49.0105 H         1 UNK         0.0600 
    186 H186        0.3012  -15.5607  -48.3211 H         1 UNK         0.0600 
    187 H187        0.5232  -14.9143  -46.6989 H         1 UNK         0.0600 
    188 H188       -1.0406  -15.5274  -47.1894 H         1 UNK         0.0600 
    189 H189       -1.2969  -13.1556  -46.0992 H         1 UNK         0.3000 
    190 H190       -3.0021  -21.6783  -44.0455 H         1 UNK         0.3000 
    191 H191       -5.8498  -21.7834  -43.6320 H         1 UNK         0.0600 
    192 H192       -4.1764  -21.0296  -41.9001 H         1 UNK         0.0600 
    193 H193       -5.2389  -22.3013  -41.3134 H         1 UNK         0.0600 
    194 H194       -3.5899  -22.6895  -41.7756 H         1 UNK         0.0600 
    195 H195       -3.6134  -24.1406  -44.7945 H         1 UNK         0.3000 
    196 H196       -5.6653  -26.1659  -44.9209 H         1 UNK         0.0600 
    197 H197       -4.3402  -27.9511  -43.8115 H         1 UNK         0.0600 
    198 H198       -4.6234  -26.6623  -42.6630 H         1 UNK         0.0600 
    199 H199       -3.0485  -26.8082  -43.4344 H         1 UNK         0.0600 
    200 H200       -3.4155  -28.0909  -45.5310 H         1 UNK         0.3000 
    201 H201       -2.2514  -28.8788  -47.2611 H         1 UNK         0.0600 
    202 H202       -0.6321  -27.3791  -46.0960 H         1 UNK         0.0600 
    203 H203       -1.0606  -26.0562  -47.1748 H         1 UNK         0.0600 
    204 H204       -0.2610  -27.4917  -47.8069 H         1 UNK         0.0600 
    205 H205       -4.7926  -27.8695  -48.1710 H         1 UNK         0.3000 
    206 H206       -6.0099  -27.3615  -49.9623 H         1 UNK         0.0600 
    207 H207       -4.8461  -29.3426  -50.9583 H         1 UNK         0.0600 
    208 H208       -5.2739  -28.1567  -52.1803 H         1 UNK         0.0600 
    209 H209       -3.6087  -28.2838  -51.6333 H         1 UNK         0.0600 
    210 H210       -4.8336  -25.2114  -48.7372 H         1 UNK         0.3000 
    211 H211       -4.5502  -23.0338  -48.8538 H         1 UNK         0.0600 
    212 H212       -5.3416  -23.1096  -51.8132 H         1 UNK         0.0600 
    213 H213       -5.2677  -21.6903  -50.7821 H         1 UNK         0.0600 
    214 H214       -6.4589  -22.9404  -50.4596 H         1 UNK         0.0600 
    215 H215       -2.3919  -24.4353  -48.7154 H         1 UNK         0.3000 
    216 H216       -0.1865  -24.5702  -48.9325 H         1 UNK         0.0600 
    217 H217        1.0828  -22.5016  -49.3645 H         1 UNK         0.0600 
    218 H218       -0.3204  -22.1246  -48.3801 H         1 UNK         0.0600 
    219 H219       -0.3231  -21.7376  -50.0905 H         1 UNK         0.0600 
    220 H220       -1.3055  -26.0608  -50.7390 H         1 UNK         0.3000 
    221 H221       -1.2036  -27.1567  -52.6347 H         1 UNK         0.0600 
    222 H222        1.5606  -25.9002  -53.0553 H         1 UNK         0.0600 
    223 H223        1.2278  -27.3412  -52.0952 H         1 UNK         0.0600 
    224 H224        0.9452  -27.3534  -53.8284 H         1 UNK         0.0600 
    225 H225       -2.8376  -25.1184  -52.7898 H         1 UNK         0.3000 
    226 H226       -4.0331  -23.7681  -54.0156 H         1 UNK         0.0600 
    227 H227       -4.1554  -25.7787  -55.4806 H         1 UNK         0.0600 
    228 H228       -4.2934  -24.2993  -56.4159 H         1 UNK         0.0600 
    229 H229       -2.7811  -25.1971  -56.4199 H         1 UNK         0.0600 
    230 H230       -2.0189  -22.3933  -52.9923 H         1 UNK         0.3000 
    231 H231       -0.6611  -20.7263  -54.9895 H         1 UNK         0.0600 
    232 H232       -0.9111  -20.4731  -51.9413 H         1 UNK         0.0600 
    233 H233        0.0840  -19.4532  -52.9730 H         1 UNK         0.0600 
    234 H234        0.4429  -21.1662  -52.8241 H         1 UNK         0.0600 
    235 H235       -2.8565  -19.9040  -52.3096 H         1 UNK         0.3000 
    236 H236       -4.4951  -18.4231  -51.9980 H         1 UNK         0.0600 
    237 H237       -5.5887  -20.3906  -53.0857 H         1 UNK         0.0600 
    238 H238       -6.4701  -18.9086  -53.4100 H         1 UNK         0.0600 
    239 H239       -5.4441  -19.6081  -54.6582 H         1 UNK         0.0600 
    240 H240       -2.2829  -17.0838  -53.2589 H         1 UNK         0.3000 
    241 H241       -1.6512  -15.1630  -54.1207 H         1 UNK         0.0600 
    242 H242       -2.7429  -16.5457  -57.5494 H         1 UNK         0.3800 
    243 H243       -2.7136  -17.4131  -56.0326 H         1 UNK         0.3800 
    244 H244       -3.1682  -13.1765  -54.2874 H         1 UNK         0.0800 
    245 H245       -4.5447  -14.1756  -53.9340 H         1 UNK         0.0800 
    246 H246       -5.3129  -13.7169  -51.0354 H         1 UNK         0.0800 
    247 H247       -5.0897  -15.2278  -51.8750 H         1 UNK         0.0800 
@<TRIPOS>BOND
     1    1    2 1    
     2    1  127 1    
     3    1  128 1    
     4    1  129 1    
     5    2    3 2    
     6    2    4 am   BACKBONE|DICT|INTERRES
     7    4    5 1    
     8    4  130 1    
     9    5    6 1    
    10    5   65 1    
    11    5  131 1    
    12    6    7 1    
    13    6  132 1    
    14    6  133 1    
    15    7    8 1    
    16    8    9 1    
    17    8  134 1    
    18    8  135 1    
    19    9   10 ar   
    20    9   14 ar   
    21   10   11 ar   
    22   10  136 1    
    23   11   12 ar   
    24   11  126 1    
    25   12   13 ar   
    26   12  137 1    
    27   13   14 ar   
    28   13   15 1    
    29   14  138 1    
    30   15   16 1    
    31   15  139 1    
    32   15  140 1    
    33   16   17 1    
    34   17   18 1    
    35   17  141 1    
    36   17  142 1    
    37   18   19 1    
    38   18   67 1    
    39   18  143 1    
    40   19   20 am   BACKBONE|DICT|INTERRES
    41   19  144 1    
    42   20   21 2    
    43   20   22 1    
    44   22   23 1    
    45   22   24 1    
    46   22  145 1    
    47   23  146 1    
    48   23  147 1    
    49   23  148 1    
    50   24   25 am   BACKBONE|DICT|INTERRES
    51   24  149 1    
    52   25   26 2    
    53   25   27 1    
    54   27   28 1    
    55   27   29 1    
    56   27  150 1    
    57   28  151 1    
    58   28  152 1    
    59   28  153 1    
    60   29   30 am   BACKBONE|DICT|INTERRES
    61   29  154 1    
    62   30   31 2    
    63   30   32 1    
    64   32   33 1    
    65   32   34 1    
    66   32  155 1    
    67   33  156 1    
    68   33  157 1    
    69   33  158 1    
    70   34   35 am   BACKBONE|DICT|INTERRES
    71   34  159 1    
    72   35   36 2    
    73   35   37 1    
    74   37   38 1    
    75   37   39 1    
    76   37  160 1    
    77   38  161 1    
    78   38  162 1    
    79   38  163 1    
    80   39   40 am   BACKBONE|DICT|INTERRES
    81   39  164 1    
    82   40   41 2    
    83   40   42 1    
    84   42   43 1    
    85   42   44 1    
    86   42  165 1    
    87   43  166 1    
    88   43  167 1    
    89   43  168 1    
    90   44   45 am   BACKBONE|DICT|INTERRES
    91   44  169 1    
    92   45   46 2    
    93   45   47 1    
    94   47   48 1    
    95   47   49 1    
    96   47  170 1    
    97   48  171 1    
    98   48  172 1    
    99   48  173 1    
   100   49   50 am   BACKBONE|DICT|INTERRES
   101   49  174 1    
   102   50   51 2    
   103   50   52 1    
   104   52   53 1    
   105   52   54 1    
   106   52  175 1    
   107   53  176 1    
   108   53  177 1    
   109   53  178 1    
   110   54   55 am   BACKBONE|DICT|INTERRES
   111   54  179 1    
   112   55   56 2    
   113   55   57 1    
   114   57   58 1    
   115   57   59 1    
   116   57  180 1    
   117   58  181 1    
   118   58  182 1    
   119   58  183 1    
   120   59   60 am   BACKBONE|DICT|INTERRES
   121   59  184 1    
   122   60   61 2    
   123   60   62 1    
   124   62   63 1    
   125   62   64 1    
   126   62  185 1    
   127   63  186 1    
   128   63  187 1    
   129   63  188 1    
   130   64   65 am   BACKBONE|DICT|INTERRES
   131   64  189 1    
   132   65   66 2    
   133   67   68 2    
   134   67   69 am   BACKBONE|DICT|INTERRES
   135   69   70 1    
   136   69  190 1    
   137   70   71 1    
   138   70   72 1    
   139   70  191 1    
   140   71  192 1    
   141   71  193 1    
   142   71  194 1    
   143   72   73 2    
   144   72   74 am   BACKBONE|DICT|INTERRES
   145   74   75 1    
   146   74  195 1    
   147   75   76 1    
   148   75   77 1    
   149   75  196 1    
   150   76  197 1    
   151   76  198 1    
   152   76  199 1    
   153   77   78 2    
   154   77   79 am   BACKBONE|DICT|INTERRES
   155   79   80 1    
   156   79  200 1    
   157   80   81 1    
   158   80   82 1    
   159   80  201 1    
   160   81  202 1    
   161   81  203 1    
   162   81  204 1    
   163   82   83 2    
   164   82   84 am   BACKBONE|DICT|INTERRES
   165   84   85 1    
   166   84  205 1    
   167   85   86 1    
   168   85   87 1    
   169   85  206 1    
   170   86  207 1    
   171   86  208 1    
   172   86  209 1    
   173   87   88 2    
   174   87   89 am   BACKBONE|DICT|INTERRES
   175   89   90 1    
   176   89  210 1    
   177   90   91 1    
   178   90   92 1    
   179   90  211 1    
   180   91  212 1    
   181   91  213 1    
   182   91  214 1    
   183   92   93 2    
   184   92   94 am   BACKBONE|DICT|INTERRES
   185   94   95 1    
   186   94  215 1    
   187   95   96 1    
   188   95   97 1    
   189   95  216 1    
   190   96  217 1    
   191   96  218 1    
   192   96  219 1    
   193   97   98 2    
   194   97   99 am   BACKBONE|DICT|INTERRES
   195   99  100 1    
   196   99  220 1    
   197  100  101 1    
   198  100  102 1    
   199  100  221 1    
   200  101  222 1    
   201  101  223 1    
   202  101  224 1    
   203  102  103 2    
   204  102  104 am   BACKBONE|DICT|INTERRES
   205  104  105 1    
   206  104  225 1    
   207  105  106 1    
   208  105  107 1    
   209  105  226 1    
   210  106  227 1    
   211  106  228 1    
   212  106  229 1    
   213  107  108 2    
   214  107  109 am   BACKBONE|DICT|INTERRES
   215  109  110 1    
   216  109  230 1    
   217  110  111 1    
   218  110  112 1    
   219  110  231 1    
   220  111  232 1    
   221  111  233 1    
   222  111  234 1    
   223  112  113 2    
   224  112  114 am   BACKBONE|DICT|INTERRES
   225  114  115 1    
   226  114  235 1    
   227  115  116 1    
   228  115  117 1    
   229  115  236 1    
   230  116  237 1    
   231  116  238 1    
   232  116  239 1    
   233  117  118 2    
   234  117  119 am   BACKBONE|DICT|INTERRES
   235  119  120 1    
   236  119  240 1    
   237  120  121 1    
   238  120  124 1    
   239  120  241 1    
   240  121  122 am   BACKBONE|DICT|INTERRES
   241  121  123 2    
   242  122  242 1    
   243  122  243 1    
   244  124  125 1    
   245  124  244 1    
   246  124  245 1    
   247  125  126 1    
   248  126  246 1    
   249  126  247 1    
@<TRIPOS>SUBSTRUCTURE
     1 UNK         1 GROUP             0       ****    0 ROOT    
