@<TRIPOS>MOLECULE
3R540
247   249    1
SMALL
USER_CHARGES


@<TRIPOS>ATOM
      1 CA         -0.2990  -14.8926  -53.7297 C.3       0 UNK        -0.1800 
      2 C           0.4979  -14.3885  -52.5351 C.2       0 UNK         0.5000 
      3 O           1.4036  -13.5730  -52.7069 O.2       0 UNK        -0.5000 
      4 N           0.1489  -14.8553  -51.3319 N.am      1 UNK        -0.5000 
      5 CA          0.7454  -14.4530  -50.0526 C.3       1 UNK         0.1400 
      6 C6          1.5519  -15.5946  -49.3774 C.3       23 UNK        -0.0398 
      7 S7          3.0471  -16.0505  -50.3228 S.3       23 UNK        -0.2404 
      8 C8          3.8428  -17.2647  -49.2054 C.3       23 UNK        -0.0205 
      9 C9          3.3163  -18.7019  -49.2789 C.ar      23 UNK        -0.0193 
     10 C10         2.1260  -19.0379  -49.9346 C.ar      23 UNK        -0.1150 
     11 C11         1.6578  -20.3563  -49.9633 C.ar      23 UNK        -0.0193 
     12 C12         2.4100  -21.3524  -49.3393 C.ar      23 UNK        -0.1150 
     13 C13         3.6056  -21.0444  -48.6871 C.ar      23 UNK        -0.0193 
     14 C14         4.0513  -19.7191  -48.6592 C.ar      23 UNK        -0.1150 
     15 C15         4.4018  -22.1546  -48.0136 C.3       23 UNK        -0.0205 
     16 S16         4.4630  -22.0091  -46.1962 S.3       23 UNK        -0.2404 
     17 C17         2.7233  -21.7233  -45.7208 C.3       23 UNK        -0.0398 
     18 CA          2.0111  -22.9579  -45.1056 C.3       11 UNK         0.1400 
     19 N           1.1388  -22.5241  -44.0099 N.am      11 UNK        -0.5000 
     20 C           0.6928  -23.2679  -42.9917 C.2       10 UNK         0.5000 
     21 O           0.9748  -24.4555  -42.8350 O.2       10 UNK        -0.5000 
     22 CA         -0.2503  -22.5596  -41.9988 C.3       10 UNK         0.1400 
     23 CB          0.5431  -21.9314  -40.8428 C.3       10 UNK        -0.1800 
     24 N          -1.0540  -21.5242  -42.6569 N.am      10 UNK        -0.5000 
     25 C          -2.1461  -21.7828  -43.3898 C.2       9 UNK         0.5000 
     26 O          -2.6322  -22.9076  -43.5002 O.2       9 UNK        -0.5000 
     27 CA         -2.7958  -20.6059  -44.1453 C.3       9 UNK         0.1400 
     28 CB         -3.8700  -19.9387  -43.2740 C.3       9 UNK        -0.1800 
     29 N          -1.8421  -19.5917  -44.5998 N.am      9 UNK        -0.5000 
     30 C          -0.8559  -19.7942  -45.4857 C.2       8 UNK         0.5000 
     31 O          -0.6575  -20.8634  -46.0552 O.2       8 UNK        -0.5000 
     32 CA          0.1161  -18.6256  -45.7318 C.3       8 UNK         0.1400 
     33 CB         -0.4404  -17.6662  -46.7934 C.3       8 UNK        -0.1800 
     34 N           0.4304  -17.8844  -44.5089 N.am      8 UNK        -0.5000 
     35 C           0.9931  -18.4156  -43.4131 C.2       7 UNK         0.5000 
     36 O           1.3185  -19.5982  -43.3168 O.2       7 UNK        -0.5000 
     37 CA          1.1641  -17.4849  -42.2037 C.3       7 UNK         0.1400 
     38 CB          2.4029  -16.5910  -42.3655 C.3       7 UNK        -0.1800 
     39 N          -0.0272  -16.6595  -42.0133 N.am      7 UNK        -0.5000 
     40 C          -1.1586  -17.0968  -41.4428 C.2       6 UNK         0.5000 
     41 O          -1.2846  -18.2174  -40.9482 O.2       6 UNK        -0.5000 
     42 CA         -2.3593  -16.1304  -41.4446 C.3       6 UNK         0.1400 
     43 CB         -2.3310  -15.2330  -40.1984 C.3       6 UNK        -0.1800 
     44 N          -2.4235  -15.2895  -42.6420 N.am      6 UNK        -0.5000 
     45 C          -2.6634  -15.7495  -43.8776 C.2       5 UNK         0.5000 
     46 O          -2.8721  -16.9332  -44.1365 O.2       5 UNK        -0.5000 
     47 CA         -2.6196  -14.7237  -45.0255 C.3       5 UNK         0.1400 
     48 CB         -3.9947  -14.0627  -45.2006 C.3       5 UNK        -0.1800 
     49 N          -1.5931  -13.6856  -44.8842 N.am      5 UNK        -0.5000 
     50 C          -0.2823  -13.9012  -44.6903 C.2       4 UNK         0.5000 
     51 O           0.2033  -15.0165  -44.4966 O.2       4 UNK        -0.5000 
     52 CA          0.6274  -12.6635  -44.7506 C.3       4 UNK         0.1400 
     53 CB          2.1242  -13.0188  -44.8162 C.3       4 UNK        -0.1800 
     54 N           0.2677  -11.8726  -45.9225 N.am      4 UNK        -0.5000 
     55 C           0.1251  -10.5416  -45.9572 C.2       3 UNK         0.5000 
     56 O           0.3264   -9.8095  -44.9876 O.2       3 UNK        -0.5000 
     57 CA         -0.3226   -9.9128  -47.2951 C.3       3 UNK         0.1400 
     58 CB          0.8678   -9.2392  -47.9954 C.3       3 UNK        -0.1800 
     59 N          -0.9303  -10.8714  -48.2215 N.am      3 UNK        -0.5000 
     60 C          -2.1081  -11.4834  -48.0356 C.2       2 UNK         0.5000 
     61 O          -2.8588  -11.2406  -47.0912 O.2       2 UNK        -0.5000 
     62 CA         -2.4904  -12.5842  -49.0459 C.3       2 UNK         0.1400 
     63 CB         -3.4710  -12.0384  -50.0935 C.3       2 UNK        -0.1800 
     64 N          -1.3461  -13.1948  -49.7331 N.am      2 UNK        -0.5000 
     65 C          -0.3635  -13.8906  -49.1395 C.2       1 UNK         0.5000 
     66 O          -0.3186  -14.0739  -47.9240 O.2       1 UNK        -0.5000 
     67 C           1.2578  -23.7704  -46.1909 C.2       11 UNK         0.5000 
     68 O           1.8936  -24.3043  -47.0998 O.2       11 UNK        -0.5000 
     69 N          -0.0782  -23.8366  -46.0981 N.am      12 UNK        -0.5000 
     70 CA         -1.0400  -24.3171  -47.0962 C.3       12 UNK         0.1400 
     71 CB         -2.4429  -23.8685  -46.6525 C.3       12 UNK        -0.1800 
     72 C          -1.0259  -25.8327  -47.4017 C.2       12 UNK         0.5000 
     73 O          -2.0806  -26.3914  -47.7089 O.2       12 UNK        -0.5000 
     74 N           0.1448  -26.4775  -47.3399 N.am      13 UNK        -0.5000 
     75 CA          0.3400  -27.9192  -47.5220 C.3       13 UNK         0.1400 
     76 CB          1.8230  -28.2574  -47.3067 C.3       13 UNK        -0.1800 
     77 C          -0.1491  -28.4536  -48.8828 C.2       13 UNK         0.5000 
     78 O          -0.7232  -29.5423  -48.9333 O.2       13 UNK        -0.5000 
     79 N           0.0668  -27.6680  -49.9459 N.am      14 UNK        -0.5000 
     80 CA         -0.4104  -27.9563  -51.3002 C.3       14 UNK         0.1400 
     81 CB          0.7577  -27.7839  -52.2842 C.3       14 UNK        -0.1800 
     82 C          -1.5851  -27.0487  -51.7103 C.2       14 UNK         0.5000 
     83 O          -2.4102  -27.4654  -52.5240 O.2       14 UNK        -0.5000 
     84 N          -1.6314  -25.8211  -51.1721 N.am      15 UNK        -0.5000 
     85 CA         -2.5800  -24.7809  -51.5788 C.3       15 UNK         0.1400 
     86 CB         -1.9795  -23.4069  -51.2528 C.3       15 UNK        -0.1800 
     87 C          -3.9785  -24.9183  -50.9498 C.2       15 UNK         0.5000 
     88 O          -4.9342  -24.3861  -51.5166 O.2       15 UNK        -0.5000 
     89 N          -4.0750  -25.6037  -49.8003 N.am      16 UNK        -0.5000 
     90 CA         -5.2730  -25.8831  -48.9977 C.3       16 UNK         0.1400 
     91 CB         -6.2743  -26.7646  -49.7705 C.3       16 UNK        -0.1800 
     92 C          -5.9486  -24.6277  -48.4079 C.2       16 UNK         0.5000 
     93 O          -5.9618  -24.4650  -47.1878 O.2       16 UNK        -0.5000 
     94 N          -6.4974  -23.7685  -49.2747 N.am      17 UNK        -0.5000 
     95 CA         -7.1125  -22.4910  -48.9127 C.3       17 UNK         0.1400 
     96 CB         -8.0811  -22.0604  -50.0256 C.3       17 UNK        -0.1800 
     97 C          -6.0523  -21.4045  -48.6642 C.2       17 UNK         0.5000 
     98 O          -6.1589  -20.6617  -47.6877 O.2       17 UNK        -0.5000 
     99 N          -5.0435  -21.3636  -49.5474 N.am      18 UNK        -0.5000 
    100 CA        -3.8985  -20.4507  -49.5450 C.3       18 UNK         0.1400 
    101 CB        -2.9355  -20.8110  -48.3974 C.3       18 UNK        -0.1800 
    102 C         -4.2821  -18.9545  -49.5973 C.2       18 UNK         0.5000 
    103 O         -5.2880  -18.6043  -50.2193 O.2       18 UNK        -0.5000 
    104 N         -3.4367  -18.0959  -49.0065 N.am      19 UNK        -0.5000 
    105 CA        -3.4833  -16.6333  -49.0479 C.3       19 UNK         0.1400 
    106 CB        -4.6968  -16.1009  -48.2545 C.3       19 UNK        -0.1800 
    107 C         -3.3990  -16.1335  -50.5029 C.2       19 UNK         0.5000 
    108 O         -2.3318  -16.2371  -51.1097 O.2       19 UNK        -0.5000 
    109 N         -4.5141  -15.6353  -51.0497 N.am      20 UNK        -0.5000 
    110 CA        -4.6351  -15.1987  -52.4414 C.3       20 UNK         0.1400 
    111 CB        -5.9399  -14.4046  -52.6025 C.3       20 UNK        -0.1800 
    112 C         -4.5785  -16.3562  -53.4590 C.2       20 UNK         0.5000 
    113 O         -4.2014  -16.1244  -54.6083 O.2       20 UNK        -0.5000 
    114 N         -4.9263  -17.5808  -53.0312 N.am      21 UNK        -0.5000 
    115 CA        -4.9163  -18.7842  -53.8713 C.3       21 UNK         0.1400 
    116 CB        -5.7255  -19.8970  -53.1852 C.3       21 UNK        -0.1800 
    117 C         -3.4997  -19.2840  -54.2222 C.2       21 UNK         0.5000 
    118 O         -3.3641  -20.1265  -55.1100 O.2       21 UNK        -0.5000 
    119 N         -2.4760  -18.7645  -53.5322 N.am      22 UNK        -0.5000 
    120 CA        -1.0562  -19.0784  -53.7595 C.3       22 UNK         0.1400 
    121 C         -0.4607  -18.4771  -55.0678 C.2       22 UNK         0.5000 
    122 N         -1.1537  -17.5909  -55.7744 N.am      22 UNK        -0.7600 
    123 O          0.6513  -18.8272  -55.4523 O.2       22 UNK        -0.5000 
    124 C124       -0.1816  -18.6990  -52.5378 C.3       23 UNK        -0.0398 
    125 S125       -0.8144  -19.3986  -50.9764 S.3       23 UNK        -0.2404 
    126 C126        0.3574  -20.7579  -50.6568 C.3       23 UNK        -0.0205 
    127 H127       -1.1171  -15.5476  -53.4302 H         1 UNK         0.0600 
    128 H128       -0.7249  -14.0535  -54.2796 H         1 UNK         0.0600 
    129 H129        0.3529  -15.4472  -54.4043 H         1 UNK         0.0600 
    130 H130       -0.6523  -15.4809  -51.2575 H         1 UNK         0.3000 
    131 H131        1.4302  -13.6166  -50.2052 H         1 UNK         0.0600 
    132 H132        1.8835  -15.2947  -48.3816 H         1 UNK         0.0800 
    133 H133        0.9200  -16.4719  -49.2397 H         1 UNK         0.0800 
    134 H134        3.7673  -16.9116  -48.1761 H         1 UNK         0.0800 
    135 H135        4.9070  -17.2773  -49.4456 H         1 UNK         0.0800 
    136 H136        1.5575  -18.2693  -50.4279 H         1 UNK         0.1150 
    137 H137        2.0590  -22.3751  -49.3554 H         1 UNK         0.1150 
    138 H138        4.9729  -19.4805  -48.1468 H         1 UNK         0.1150 
    139 H139        3.9946  -23.1328  -48.2724 H         1 UNK         0.0800 
    140 H140        5.4218  -22.1431  -48.3998 H         1 UNK         0.0800 
    141 H141        2.1426  -21.2925  -46.5362 H         1 UNK         0.0800 
    142 H142        2.7838  -20.9231  -44.9833 H         1 UNK         0.0800 
    143 H143        2.7634  -23.6220  -44.6753 H         1 UNK         0.0600 
    144 H144        0.8795  -21.5444  -44.0194 H         1 UNK         0.3000 
    145 H145       -0.9183  -23.3131  -41.5758 H         1 UNK         0.0600 
    146 H146       -0.1209  -21.4449  -40.1279 H         1 UNK         0.0600 
    147 H147        1.1058  -22.6916  -40.2998 H         1 UNK         0.0600 
    148 H148        1.2569  -21.1870  -41.1956 H         1 UNK         0.0600 
    149 H149       -0.6999  -20.5776  -42.6194 H         1 UNK         0.3000 
    150 H150       -3.2888  -21.0164  -45.0278 H         1 UNK         0.0600 
    151 H151       -4.5930  -20.6709  -42.9122 H         1 UNK         0.0600 
    152 H152       -4.4245  -19.1894  -43.8391 H         1 UNK         0.0600 
    153 H153       -3.4332  -19.4476  -42.4037 H         1 UNK         0.0600 
    154 H154       -1.9809  -18.6526  -44.2373 H         1 UNK         0.3000 
    155 H155        1.0529  -19.0402  -46.1092 H         1 UNK         0.0600 
    156 H156       -1.4408  -17.3210  -46.5357 H         1 UNK         0.0600 
    157 H157       -0.4981  -18.1569  -47.7657 H         1 UNK         0.0600 
    158 H158        0.1961  -16.7886  -46.9066 H         1 UNK         0.0600 
    159 H159        0.2240  -16.8883  -44.5101 H         1 UNK         0.3000 
    160 H160        1.3117  -18.1054  -41.3170 H         1 UNK         0.0600 
    161 H161        2.5274  -15.9301  -41.5076 H         1 UNK         0.0600 
    162 H162        2.3461  -15.9721  -43.2607 H         1 UNK         0.0600 
    163 H163        3.3074  -17.1951  -42.4451 H         1 UNK         0.0600 
    164 H164       -0.0290  -15.7598  -42.4758 H         1 UNK         0.3000 
    165 H165       -3.2681  -16.7353  -41.4087 H         1 UNK         0.0600 
    166 H166       -3.2183  -14.6018  -40.1464 H         1 UNK         0.0600 
    167 H167       -2.3057  -15.8317  -39.2869 H         1 UNK         0.0600 
    168 H168       -1.4547  -14.5835  -40.1891 H         1 UNK         0.0600 
    169 H169       -2.2538  -14.3021  -42.5198 H         1 UNK         0.3000 
    170 H170       -2.3924  -15.2705  -45.9418 H         1 UNK         0.0600 
    171 H171       -4.7852  -14.8109  -45.2730 H         1 UNK         0.0600 
    172 H172       -4.2374  -13.4106  -44.3608 H         1 UNK         0.0600 
    173 H173       -4.0342  -13.4662  -46.1111 H         1 UNK         0.0600 
    174 H174       -1.8961  -12.7365  -45.0525 H         1 UNK         0.3000 
    175 H175        0.4439  -12.0960  -43.8363 H         1 UNK         0.0600 
    176 H176        2.3512  -13.6343  -45.6877 H         1 UNK         0.0600 
    177 H177        2.7401  -12.1211  -44.8700 H         1 UNK         0.0600 
    178 H178        2.4350  -13.5718  -43.9294 H         1 UNK         0.0600 
    179 H179        0.0481  -12.4171  -46.7505 H         1 UNK         0.3000 
    180 H180       -1.0646   -9.1457  -47.0637 H         1 UNK         0.0600 
    181 H181        1.6393   -9.9626  -48.2622 H         1 UNK         0.0600 
    182 H182        1.3292   -8.4906  -47.3498 H         1 UNK         0.0600 
    183 H183        0.5536   -8.7298  -48.9066 H         1 UNK         0.0600 
    184 H184       -0.3837  -11.1258  -49.0306 H         1 UNK         0.3000 
    185 H185       -2.9929  -13.3721  -48.4831 H         1 UNK         0.0600 
    186 H186       -4.3582  -11.6182  -49.6177 H         1 UNK         0.0600 
    187 H187       -3.0175  -11.2514  -50.6972 H         1 UNK         0.0600 
    188 H188       -3.8082  -12.8247  -50.7669 H         1 UNK         0.0600 
    189 H189       -1.3094  -13.0850  -50.7362 H         1 UNK         0.3000 
    190 H190       -0.4903  -23.3508  -45.3146 H         1 UNK         0.3000 
    191 H191       -0.8044  -23.8063  -48.0310 H         1 UNK         0.0600 
    192 H192       -2.7943  -24.4420  -45.7939 H         1 UNK         0.0600 
    193 H193       -3.1704  -23.9980  -47.4530 H         1 UNK         0.0600 
    194 H194       -2.4590  -22.8178  -46.3719 H         1 UNK         0.0600 
    195 H195        0.9708  -25.9172  -47.1466 H         1 UNK         0.3000 
    196 H196       -0.2397  -28.4247  -46.7470 H         1 UNK         0.0600 
    197 H197        2.0007  -29.3280  -47.4169 H         1 UNK         0.0600 
    198 H198        2.1498  -27.9757  -46.3055 H         1 UNK         0.0600 
    199 H199        2.4617  -27.7416  -48.0248 H         1 UNK         0.0600 
    200 H200        0.5831  -26.8122  -49.8082 H         1 UNK         0.3000 
    201 H201       -0.7578  -28.9890  -51.3735 H         1 UNK         0.0600 
    202 H202        1.5765  -28.4625  -52.0442 H         1 UNK         0.0600 
    203 H203        1.1509  -26.7666  -52.2721 H         1 UNK         0.0600 
    204 H204        0.4442  -28.0031  -53.3059 H         1 UNK         0.0600 
    205 H205       -0.9234  -25.5549  -50.5078 H         1 UNK         0.3000 
    206 H206       -2.7088  -24.8352  -52.6622 H         1 UNK         0.0600 
    207 H207       -1.0129  -23.2765  -51.7391 H         1 UNK         0.0600 
    208 H208       -2.6267  -22.6042  -51.6072 H         1 UNK         0.0600 
    209 H209       -1.8406  -23.2745  -50.1807 H         1 UNK         0.0600 
    210 H210       -3.2192  -25.9665  -49.3944 H         1 UNK         0.3000 
    211 H211       -4.9210  -26.4706  -48.1481 H         1 UNK         0.0600 
    212 H212       -6.6616  -26.2696  -50.6612 H         1 UNK         0.0600 
    213 H213       -7.1289  -27.0220  -49.1439 H         1 UNK         0.0600 
    214 H214       -5.8097  -27.6990  -50.0854 H         1 UNK         0.0600 
    215 H215       -6.3621  -23.9600  -50.2626 H         1 UNK         0.3000 
    216 H216       -7.6875  -22.6212  -47.9933 H         1 UNK         0.0600 
    217 H217       -8.5584  -21.1107  -49.7806 H         1 UNK         0.0600 
    218 H218       -8.8733  -22.7964  -50.1639 H         1 UNK         0.0600 
    219 H219       -7.5707  -21.9339  -50.9814 H         1 UNK         0.0600 
    220 H220       -5.0800  -22.0141  -50.3187 H         1 UNK         0.3000 
    221 H221       -3.3782  -20.6426  -50.4824 H         1 UNK         0.0600 
    222 H222       -3.3907  -20.6530  -47.4199 H         1 UNK         0.0600 
    223 H223       -2.6423  -21.8545  -48.4704 H         1 UNK         0.0600 
    224 H224       -2.0115  -20.2353  -48.4310 H         1 UNK         0.0600 
    225 H225       -2.6151  -18.4879  -48.5722 H         1 UNK         0.3000 
    226 H226       -2.5811  -16.2730  -48.5515 H         1 UNK         0.0600 
    227 H227       -4.6419  -16.4190  -47.2133 H         1 UNK         0.0600 
    228 H228       -4.7265  -15.0112  -48.2568 H         1 UNK         0.0600 
    229 H229       -5.6468  -16.4587  -48.6520 H         1 UNK         0.0600 
    230 H230       -5.3587  -15.6255  -50.4966 H         1 UNK         0.3000 
    231 H231       -3.7992  -14.5314  -52.6623 H         1 UNK         0.0600 
    232 H232       -5.9615  -13.5391  -51.9401 H         1 UNK         0.0600 
    233 H233       -6.8139  -15.0188  -52.3819 H         1 UNK         0.0600 
    234 H234       -6.0482  -14.0338  -53.6227 H         1 UNK         0.0600 
    235 H235       -5.1952  -17.7108  -52.0607 H         1 UNK         0.3000 
    236 H236       -5.4150  -18.5394  -54.8115 H         1 UNK         0.0600 
    237 H237       -5.8638  -20.7462  -53.8555 H         1 UNK         0.0600 
    238 H238       -5.2231  -20.2699  -52.2939 H         1 UNK         0.0600 
    239 H239       -6.7164  -19.5488  -52.8934 H         1 UNK         0.0600 
    240 H240       -2.6685  -18.0804  -52.8140 H         1 UNK         0.3000 
    241 H241       -0.9862  -20.1615  -53.8767 H         1 UNK         0.0600 
    242 H242       -0.7596  -17.2180  -56.6234 H         1 UNK         0.3800 
    243 H243       -2.0701  -17.2936  -55.4741 H         1 UNK         0.3800 
    244 H244        0.8491  -19.0250  -52.6878 H         1 UNK         0.0800 
    245 H245       -0.1413  -17.6160  -52.4209 H         1 UNK         0.0800 
    246 H246       -0.1572  -21.4802  -50.0225 H         1 UNK         0.0800 
    247 H247        0.5877  -21.2714  -51.5909 H         1 UNK         0.0800 
@<TRIPOS>BOND
     1    1    2 1    
     2    1  127 1    
     3    1  128 1    
     4    1  129 1    
     5    2    3 2    
     6    2    4 am   BACKBONE|DICT|INTERRES
     7    4    5 1    
     8    4  130 1    
     9    5    6 1    
    10    5   65 1    
    11    5  131 1    
    12    6    7 1    
    13    6  132 1    
    14    6  133 1    
    15    7    8 1    
    16    8    9 1    
    17    8  134 1    
    18    8  135 1    
    19    9   10 ar   
    20    9   14 ar   
    21   10   11 ar   
    22   10  136 1    
    23   11   12 ar   
    24   11  126 1    
    25   12   13 ar   
    26   12  137 1    
    27   13   14 ar   
    28   13   15 1    
    29   14  138 1    
    30   15   16 1    
    31   15  139 1    
    32   15  140 1    
    33   16   17 1    
    34   17   18 1    
    35   17  141 1    
    36   17  142 1    
    37   18   19 1    
    38   18   67 1    
    39   18  143 1    
    40   19   20 am   BACKBONE|DICT|INTERRES
    41   19  144 1    
    42   20   21 2    
    43   20   22 1    
    44   22   23 1    
    45   22   24 1    
    46   22  145 1    
    47   23  146 1    
    48   23  147 1    
    49   23  148 1    
    50   24   25 am   BACKBONE|DICT|INTERRES
    51   24  149 1    
    52   25   26 2    
    53   25   27 1    
    54   27   28 1    
    55   27   29 1    
    56   27  150 1    
    57   28  151 1    
    58   28  152 1    
    59   28  153 1    
    60   29   30 am   BACKBONE|DICT|INTERRES
    61   29  154 1    
    62   30   31 2    
    63   30   32 1    
    64   32   33 1    
    65   32   34 1    
    66   32  155 1    
    67   33  156 1    
    68   33  157 1    
    69   33  158 1    
    70   34   35 am   BACKBONE|DICT|INTERRES
    71   34  159 1    
    72   35   36 2    
    73   35   37 1    
    74   37   38 1    
    75   37   39 1    
    76   37  160 1    
    77   38  161 1    
    78   38  162 1    
    79   38  163 1    
    80   39   40 am   BACKBONE|DICT|INTERRES
    81   39  164 1    
    82   40   41 2    
    83   40   42 1    
    84   42   43 1    
    85   42   44 1    
    86   42  165 1    
    87   43  166 1    
    88   43  167 1    
    89   43  168 1    
    90   44   45 am   BACKBONE|DICT|INTERRES
    91   44  169 1    
    92   45   46 2    
    93   45   47 1    
    94   47   48 1    
    95   47   49 1    
    96   47  170 1    
    97   48  171 1    
    98   48  172 1    
    99   48  173 1    
   100   49   50 am   BACKBONE|DICT|INTERRES
   101   49  174 1    
   102   50   51 2    
   103   50   52 1    
   104   52   53 1    
   105   52   54 1    
   106   52  175 1    
   107   53  176 1    
   108   53  177 1    
   109   53  178 1    
   110   54   55 am   BACKBONE|DICT|INTERRES
   111   54  179 1    
   112   55   56 2    
   113   55   57 1    
   114   57   58 1    
   115   57   59 1    
   116   57  180 1    
   117   58  181 1    
   118   58  182 1    
   119   58  183 1    
   120   59   60 am   BACKBONE|DICT|INTERRES
   121   59  184 1    
   122   60   61 2    
   123   60   62 1    
   124   62   63 1    
   125   62   64 1    
   126   62  185 1    
   127   63  186 1    
   128   63  187 1    
   129   63  188 1    
   130   64   65 am   BACKBONE|DICT|INTERRES
   131   64  189 1    
   132   65   66 2    
   133   67   68 2    
   134   67   69 am   BACKBONE|DICT|INTERRES
   135   69   70 1    
   136   69  190 1    
   137   70   71 1    
   138   70   72 1    
   139   70  191 1    
   140   71  192 1    
   141   71  193 1    
   142   71  194 1    
   143   72   73 2    
   144   72   74 am   BACKBONE|DICT|INTERRES
   145   74   75 1    
   146   74  195 1    
   147   75   76 1    
   148   75   77 1    
   149   75  196 1    
   150   76  197 1    
   151   76  198 1    
   152   76  199 1    
   153   77   78 2    
   154   77   79 am   BACKBONE|DICT|INTERRES
   155   79   80 1    
   156   79  200 1    
   157   80   81 1    
   158   80   82 1    
   159   80  201 1    
   160   81  202 1    
   161   81  203 1    
   162   81  204 1    
   163   82   83 2    
   164   82   84 am   BACKBONE|DICT|INTERRES
   165   84   85 1    
   166   84  205 1    
   167   85   86 1    
   168   85   87 1    
   169   85  206 1    
   170   86  207 1    
   171   86  208 1    
   172   86  209 1    
   173   87   88 2    
   174   87   89 am   BACKBONE|DICT|INTERRES
   175   89   90 1    
   176   89  210 1    
   177   90   91 1    
   178   90   92 1    
   179   90  211 1    
   180   91  212 1    
   181   91  213 1    
   182   91  214 1    
   183   92   93 2    
   184   92   94 am   BACKBONE|DICT|INTERRES
   185   94   95 1    
   186   94  215 1    
   187   95   96 1    
   188   95   97 1    
   189   95  216 1    
   190   96  217 1    
   191   96  218 1    
   192   96  219 1    
   193   97   98 2    
   194   97   99 am   BACKBONE|DICT|INTERRES
   195   99  100 1    
   196   99  220 1    
   197  100  101 1    
   198  100  102 1    
   199  100  221 1    
   200  101  222 1    
   201  101  223 1    
   202  101  224 1    
   203  102  103 2    
   204  102  104 am   BACKBONE|DICT|INTERRES
   205  104  105 1    
   206  104  225 1    
   207  105  106 1    
   208  105  107 1    
   209  105  226 1    
   210  106  227 1    
   211  106  228 1    
   212  106  229 1    
   213  107  108 2    
   214  107  109 am   BACKBONE|DICT|INTERRES
   215  109  110 1    
   216  109  230 1    
   217  110  111 1    
   218  110  112 1    
   219  110  231 1    
   220  111  232 1    
   221  111  233 1    
   222  111  234 1    
   223  112  113 2    
   224  112  114 am   BACKBONE|DICT|INTERRES
   225  114  115 1    
   226  114  235 1    
   227  115  116 1    
   228  115  117 1    
   229  115  236 1    
   230  116  237 1    
   231  116  238 1    
   232  116  239 1    
   233  117  118 2    
   234  117  119 am   BACKBONE|DICT|INTERRES
   235  119  120 1    
   236  119  240 1    
   237  120  121 1    
   238  120  124 1    
   239  120  241 1    
   240  121  122 am   BACKBONE|DICT|INTERRES
   241  121  123 2    
   242  122  242 1    
   243  122  243 1    
   244  124  125 1    
   245  124  244 1    
   246  124  245 1    
   247  125  126 1    
   248  126  246 1    
   249  126  247 1    
@<TRIPOS>SUBSTRUCTURE
     1 UNK         1 GROUP             0       ****    0 ROOT    
