@<TRIPOS>MOLECULE
3R540
247   249    1
SMALL
USER_CHARGES


@<TRIPOS>ATOM
      1 CA         -2.6345  -10.3420  -49.9954 C.3       0 UNK        -0.1800 
      2 C          -1.5914  -11.1875  -49.2804 C.2       0 UNK         0.5000 
      3 O          -0.9709  -10.7180  -48.3263 O.2       0 UNK        -0.5000 
      4 N          -1.4064  -12.4405  -49.7201 N.am      1 UNK        -0.5000 
      5 CA         -0.4317  -13.3937  -49.1700 C.3       1 UNK         0.1400 
      6 C6         -0.3863  -14.7089  -49.9920 C.3       23 UNK        -0.0398 
      7 S7          1.2532  -15.5155  -49.9914 S.3       23 UNK        -0.2404 
      8 C8          1.1837  -16.6312  -48.5512 C.3       23 UNK        -0.0205 
      9 C9          0.3653  -17.8880  -48.8020 C.ar      23 UNK        -0.0193 
     10 C10        -1.0097  -17.8991  -48.5529 C.ar      23 UNK        -0.1150 
     11 C11        -1.7533  -19.0707  -48.7097 C.ar      23 UNK        -0.0193 
     12 C12        -1.1080  -20.2449  -49.1043 C.ar      23 UNK        -0.1150 
     13 C13         0.2686  -20.2506  -49.3450 C.ar      23 UNK        -0.0193 
     14 C14         0.9966  -19.0649  -49.2129 C.ar      23 UNK        -0.1150 
     15 C15         0.9764  -21.5537  -49.6832 C.3       23 UNK        -0.0205 
     16 S16         2.1102  -22.1079  -48.3619 S.3       23 UNK        -0.2404 
     17 C17         1.1161  -21.9376  -46.8362 C.3       23 UNK        -0.0398 
     18 CA          0.4536  -23.2491  -46.3650 C.3       11 UNK         0.1400 
     19 N           0.1147  -23.1850  -44.9410 N.am      11 UNK        -0.5000 
     20 C          -0.4026  -24.1793  -44.2059 C.2       10 UNK         0.5000 
     21 O          -0.6867  -25.2904  -44.6544 O.2       10 UNK        -0.5000 
     22 CA         -0.6875  -23.8547  -42.7319 C.3       10 UNK         0.1400 
     23 CB          0.6046  -23.9007  -41.9020 C.3       10 UNK        -0.1800 
     24 N          -1.3070  -22.5363  -42.6041 N.am      10 UNK        -0.5000 
     25 C          -2.6171  -22.3044  -42.7637 C.2       9 UNK         0.5000 
     26 O          -3.4508  -23.1917  -42.9475 O.2       9 UNK        -0.5000 
     27 CA         -3.0748  -20.8330  -42.7304 C.3       9 UNK         0.1400 
     28 CB         -3.3960  -20.4006  -41.2920 C.3       9 UNK        -0.1800 
     29 N          -2.1001  -19.9021  -43.3023 N.am      9 UNK        -0.5000 
     30 C          -1.7254  -19.8856  -44.5892 C.2       8 UNK         0.5000 
     31 O          -2.1505  -20.6683  -45.4374 O.2       8 UNK        -0.5000 
     32 CA         -0.6634  -18.8443  -44.9866 C.3       8 UNK         0.1400 
     33 CB         -1.3287  -17.4866  -45.2395 C.3       8 UNK        -0.1800 
     34 N           0.4022  -18.6480  -44.0037 N.am      8 UNK        -0.5000 
     35 C           1.1264  -19.5908  -43.3840 C.2       7 UNK         0.5000 
     36 O           0.9900  -20.7987  -43.5835 O.2       7 UNK        -0.5000 
     37 CA          2.1695  -19.1108  -42.3537 C.3       7 UNK         0.1400 
     38 CB          3.5905  -19.3686  -42.8773 C.3       7 UNK        -0.1800 
     39 N           2.0507  -17.6936  -41.9938 N.am      7 UNK        -0.5000 
     40 C           1.0357  -17.1346  -41.3170 C.2       6 UNK         0.5000 
     41 O           0.0745  -17.7715  -40.8847 O.2       6 UNK        -0.5000 
     42 CA          1.0902  -15.6059  -41.1150 C.3       6 UNK         0.1400 
     43 CB          1.5426  -15.2696  -39.6859 C.3       6 UNK        -0.1800 
     44 N           1.9761  -14.9265  -42.0673 N.am      6 UNK        -0.5000 
     45 C           1.7009  -14.7425  -43.3655 C.2       5 UNK         0.5000 
     46 O           0.6560  -15.1122  -43.9019 O.2       5 UNK        -0.5000 
     47 CA          2.8064  -14.0969  -44.2102 C.3       5 UNK         0.1400 
     48 CB          3.4028  -15.1207  -45.1908 C.3       5 UNK        -0.1800 
     49 N           2.2672  -12.9700  -44.9644 N.am      5 UNK        -0.5000 
     50 C           2.8507  -11.7691  -45.0665 C.2       4 UNK         0.5000 
     51 O           3.9031  -11.4693  -44.5002 O.2       4 UNK        -0.5000 
     52 CA          2.1559  -10.7188  -45.9535 C.3       4 UNK         0.1400 
     53 CB          2.5234  -10.9298  -47.4304 C.3       4 UNK        -0.1800 
     54 N           0.7009  -10.7097  -45.8148 N.am      4 UNK        -0.5000 
     55 C           0.0355  -10.2875  -44.7303 C.2       3 UNK         0.5000 
     56 O           0.5823   -9.8528  -43.7161 O.2       3 UNK        -0.5000 
     57 CA         -1.5003  -10.3667  -44.7882 C.3       3 UNK         0.1400 
     58 CB         -2.0911   -9.1148  -45.4556 C.3       3 UNK        -0.1800 
     59 N          -1.9350  -11.5613  -45.5114 N.am      3 UNK        -0.5000 
     60 C          -2.0784  -12.7645  -44.9388 C.2       2 UNK         0.5000 
     61 O          -2.0040  -12.9500  -43.7238 O.2       2 UNK        -0.5000 
     62 CA         -2.3454  -13.9675  -45.8654 C.3       2 UNK         0.1400 
     63 CB         -3.8286  -14.3653  -45.8381 C.3       2 UNK        -0.1800 
     64 N          -1.9334  -13.7616  -47.2562 N.am      2 UNK        -0.5000 
     65 C          -0.6604  -13.6664  -47.6662 C.2       1 UNK         0.5000 
     66 O           0.3031  -13.7250  -46.9050 O.2       1 UNK        -0.5000 
     67 C          -0.7495  -23.6376  -47.2501 C.2       11 UNK         0.5000 
     68 O          -0.5718  -24.4062  -48.1948 O.2       11 UNK        -0.5000 
     69 N          -1.9543  -23.1645  -46.8951 N.am      12 UNK        -0.5000 
     70 CA         -3.2332  -23.5197  -47.5183 C.3       12 UNK         0.1400 
     71 CB         -4.3746  -22.8247  -46.7593 C.3       12 UNK        -0.1800 
     72 C          -3.5031  -25.0371  -47.5741 C.2       12 UNK         0.5000 
     73 O          -4.0587  -25.5189  -48.5605 O.2       12 UNK        -0.5000 
     74 N          -3.0955  -25.7585  -46.5221 N.am      13 UNK        -0.5000 
     75 CA         -3.2089  -27.2112  -46.4302 C.3       13 UNK         0.1400 
     76 CB         -3.4502  -27.6045  -44.9642 C.3       13 UNK        -0.1800 
     77 C          -1.9548  -27.9117  -46.9781 C.2       13 UNK         0.5000 
     78 O          -2.0790  -28.9277  -47.6629 O.2       13 UNK        -0.5000 
     79 N          -0.7721  -27.3756  -46.6467 N.am      14 UNK        -0.5000 
     80 CA          0.5228  -27.9886  -46.9403 C.3       14 UNK         0.1400 
     81 CB          1.6007  -27.3346  -46.0626 C.3       14 UNK        -0.1800 
     82 C           0.9332  -27.9336  -48.4230 C.2       14 UNK         0.5000 
     83 O           1.6048  -28.8578  -48.8848 O.2       14 UNK        -0.5000 
     84 N           0.5553  -26.8628  -49.1333 N.am      15 UNK        -0.5000 
     85 CA          0.9730  -26.6124  -50.5150 C.3       15 UNK         0.1400 
     86 CB          2.1939  -25.6769  -50.5132 C.3       15 UNK        -0.1800 
     87 C          -0.1428  -26.0277  -51.3935 C.2       15 UNK         0.5000 
     88 O          -0.1619  -26.3124  -52.5921 O.2       15 UNK        -0.5000 
     89 N          -1.0237  -25.2026  -50.8091 N.am      16 UNK        -0.5000 
     90 CA         -2.0879  -24.4040  -51.4338 C.3       16 UNK         0.1400 
     91 CB         -3.1013  -25.2771  -52.1996 C.3       16 UNK        -0.1800 
     92 C          -1.5448  -23.2520  -52.3015 C.2       16 UNK         0.5000 
     93 O          -1.8669  -22.0938  -52.0392 O.2       16 UNK        -0.5000 
     94 N          -0.6947  -23.5930  -53.2791 N.am      17 UNK        -0.5000 
     95 CA          0.0036  -22.7107  -54.2163 C.3       17 UNK         0.1400 
     96 CB          1.0340  -21.8422  -53.4599 C.3       17 UNK        -0.1800 
     97 C          -0.9511  -21.8909  -55.1140 C.2       17 UNK         0.5000 
     98 O          -2.0984  -22.2885  -55.3290 O.2       17 UNK        -0.5000 
     99 N          -0.4416  -20.7783  -55.6559 N.am      18 UNK        -0.5000 
    100 CA        -1.1594  -19.8546  -56.5380 C.3       18 UNK         0.1400 
    101 CB        -0.2024  -19.4198  -57.6619 C.3       18 UNK        -0.1800 
    102 C         -1.7190  -18.6300  -55.7837 C.2       18 UNK         0.5000 
    103 O         -2.2211  -17.7060  -56.4264 O.2       18 UNK        -0.5000 
    104 N         -1.6026  -18.6194  -54.4478 N.am      19 UNK        -0.5000 
    105 CA        -2.0860  -17.5551  -53.5686 C.3       19 UNK         0.1400 
    106 CB        -1.5454  -17.7966  -52.1517 C.3       19 UNK        -0.1800 
    107 C         -3.6243  -17.4247  -53.5866 C.2       19 UNK         0.5000 
    108 O         -4.3282  -18.4203  -53.7798 O.2       19 UNK        -0.5000 
    109 N         -4.1008  -16.1845  -53.4102 N.am      20 UNK        -0.5000 
    110 CA        -5.4906  -15.7442  -53.5573 C.3       20 UNK         0.1400 
    111 CB        -5.5720  -14.2453  -53.2209 C.3       20 UNK        -0.1800 
    112 C         -6.5013  -16.5578  -52.7249 C.2       20 UNK         0.5000 
    113 O         -6.5862  -16.3701  -51.5104 O.2       20 UNK        -0.5000 
    114 N         -7.2386  -17.4429  -53.4124 N.am      21 UNK        -0.5000 
    115 CA        -8.2621  -18.3587  -52.8915 C.3       21 UNK         0.1400 
    116 CB        -9.4578  -17.5733  -52.3117 C.3       21 UNK        -0.1800 
    117 C         -7.7231  -19.4279  -51.9140 C.2       21 UNK         0.5000 
    118 O         -8.5048  -20.0078  -51.1577 O.2       21 UNK        -0.5000 
    119 N         -6.4105  -19.6878  -51.9520 N.am      22 UNK        -0.5000 
    120 CA        -5.7236  -20.6533  -51.0780 C.3       22 UNK         0.1400 
    121 C         -5.7703  -22.1228  -51.5845 C.2       22 UNK         0.5000 
    122 N         -6.2447  -22.4005  -52.7932 N.am      22 UNK        -0.7600 
    123 O         -5.3894  -23.0317  -50.8538 O.2       22 UNK        -0.5000 
    124 C124       -4.2707  -20.2116  -50.7883 C.3       23 UNK        -0.0398 
    125 S125       -4.2128  -18.6232  -49.8890 S.3       23 UNK        -0.2404 
    126 C126       -3.2451  -19.0673  -48.4181 C.3       23 UNK        -0.0205 
    127 H127       -3.4013  -10.0197  -49.2911 H         1 UNK         0.0600 
    128 H128       -3.1207  -10.8922  -50.8012 H         1 UNK         0.0600 
    129 H129       -2.1673   -9.4543  -50.4217 H         1 UNK         0.0600 
    130 H130       -1.9515  -12.7668  -50.5051 H         1 UNK         0.3000 
    131 H131        0.5404  -12.9048  -49.2608 H         1 UNK         0.0600 
    132 H132       -0.5911  -14.4872  -51.0403 H         1 UNK         0.0800 
    133 H133       -1.1709  -15.4029  -49.6972 H         1 UNK         0.0800 
    134 H134        0.7990  -16.1107  -47.6767 H         1 UNK         0.0800 
    135 H135        2.2058  -16.9109  -48.2917 H         1 UNK         0.0800 
    136 H136       -1.5039  -17.0018  -48.2116 H         1 UNK         0.1150 
    137 H137       -1.6713  -21.1614  -49.2013 H         1 UNK         0.1150 
    138 H138        2.0637  -19.0722  -49.3850 H         1 UNK         0.1150 
    139 H139        0.2549  -22.3446  -49.8920 H         1 UNK         0.0800 
    140 H140        1.5527  -21.4169  -50.5976 H         1 UNK         0.0800 
    141 H141        0.3784  -21.1430  -46.9201 H         1 UNK         0.0800 
    142 H142        1.8151  -21.5933  -46.0729 H         1 UNK         0.0800 
    143 H143        1.1917  -24.0460  -46.4625 H         1 UNK         0.0600 
    144 H144        0.3326  -22.3102  -44.4705 H         1 UNK         0.3000 
    145 H145       -1.3660  -24.6166  -42.3420 H         1 UNK         0.0600 
    146 H146        0.4008  -23.7127  -40.8478 H         1 UNK         0.0600 
    147 H147        1.3328  -23.1620  -42.2385 H         1 UNK         0.0600 
    148 H148        1.0766  -24.8816  -41.9720 H         1 UNK         0.0600 
    149 H149       -0.6796  -21.7469  -42.5218 H         1 UNK         0.3000 
    150 H150       -3.9902  -20.7615  -43.3216 H         1 UNK         0.0600 
    151 H151       -4.1343  -21.0642  -40.8396 H         1 UNK         0.0600 
    152 H152       -3.8083  -19.3918  -41.2661 H         1 UNK         0.0600 
    153 H153       -2.5076  -20.4165  -40.6591 H         1 UNK         0.0600 
    154 H154       -1.6807  -19.2347  -42.6702 H         1 UNK         0.3000 
    155 H155       -0.2003  -19.1772  -45.9155 H         1 UNK         0.0600 
    156 H156       -2.1989  -17.5780  -45.8873 H         1 UNK         0.0600 
    157 H157       -0.6311  -16.8023  -45.7221 H         1 UNK         0.0600 
    158 H158       -1.6647  -17.0239  -44.3106 H         1 UNK         0.0600 
    159 H159        0.5985  -17.6856  -43.7660 H         1 UNK         0.3000 
    160 H160        2.0230  -19.7034  -41.4484 H         1 UNK         0.0600 
    161 H161        3.7977  -18.7908  -43.7790 H         1 UNK         0.0600 
    162 H162        3.7331  -20.4220  -43.1228 H         1 UNK         0.0600 
    163 H163        4.3404  -19.1078  -42.1302 H         1 UNK         0.0600 
    164 H164        2.7978  -17.0901  -42.3029 H         1 UNK         0.3000 
    165 H165        0.0772  -15.2213  -41.2527 H         1 UNK         0.0600 
    166 H166        1.5182  -14.1944  -39.5071 H         1 UNK         0.0600 
    167 H167        0.8867  -15.7346  -38.9486 H         1 UNK         0.0600 
    168 H168        2.5567  -15.6208  -39.4907 H         1 UNK         0.0600 
    169 H169        2.8566  -14.5947  -41.6998 H         1 UNK         0.3000 
    170 H170        3.5999  -13.7622  -43.5389 H         1 UNK         0.0600 
    171 H171        2.6541  -15.4815  -45.8975 H         1 UNK         0.0600 
    172 H172        4.2199  -14.6845  -45.7656 H         1 UNK         0.0600 
    173 H173        3.8018  -15.9870  -44.6618 H         1 UNK         0.0600 
    174 H174        1.4105  -13.1589  -45.4821 H         1 UNK         0.3000 
    175 H175        2.5247   -9.7355  -45.6540 H         1 UNK         0.0600 
    176 H176        2.2038  -11.9082  -47.7888 H         1 UNK         0.0600 
    177 H177        2.0626  -10.1728  -48.0655 H         1 UNK         0.0600 
    178 H178        3.6024  -10.8653  -47.5759 H         1 UNK         0.0600 
    179 H179        0.1683  -11.0071  -46.6240 H         1 UNK         0.3000 
    180 H180       -1.8745  -10.4020  -43.7627 H         1 UNK         0.0600 
    181 H181       -3.1799   -9.1601  -45.4836 H         1 UNK         0.0600 
    182 H182       -1.7345   -8.9890  -46.4779 H         1 UNK         0.0600 
    183 H183       -1.8173   -8.2155  -44.9024 H         1 UNK         0.0600 
    184 H184       -1.9781  -11.4883  -46.5193 H         1 UNK         0.3000 
    185 H185       -1.7633  -14.7956  -45.4633 H         1 UNK         0.0600 
    186 H186       -4.4632  -13.5793  -46.2490 H         1 UNK         0.0600 
    187 H187       -4.0029  -15.2756  -46.4124 H         1 UNK         0.0600 
    188 H188       -4.1627  -14.5584  -44.8178 H         1 UNK         0.0600 
    189 H189       -2.6714  -13.6649  -47.9382 H         1 UNK         0.3000 
    190 H190       -2.0009  -22.4767  -46.1483 H         1 UNK         0.3000 
    191 H191       -3.2203  -23.1379  -48.5397 H         1 UNK         0.0600 
    192 H192       -4.4291  -23.1605  -45.7228 H         1 UNK         0.0600 
    193 H193       -5.3379  -23.0351  -47.2257 H         1 UNK         0.0600 
    194 H194       -4.2522  -21.7438  -46.7472 H         1 UNK         0.0600 
    195 H195       -2.5995  -25.2936  -45.7725 H         1 UNK         0.3000 
    196 H196       -4.0675  -27.5535  -47.0122 H         1 UNK         0.0600 
    197 H197       -4.3676  -27.1555  -44.5831 H         1 UNK         0.0600 
    198 H198       -2.6303  -27.2877  -44.3184 H         1 UNK         0.0600 
    199 H199       -3.5503  -28.6858  -44.8618 H         1 UNK         0.0600 
    200 H200       -0.7589  -26.5588  -46.0418 H         1 UNK         0.3000 
    201 H201        0.4622  -29.0423  -46.6592 H         1 UNK         0.0600 
    202 H202        1.3528  -27.4164  -45.0040 H         1 UNK         0.0600 
    203 H203        1.7231  -26.2782  -46.2976 H         1 UNK         0.0600 
    204 H204        2.5683  -27.8164  -46.2083 H         1 UNK         0.0600 
    205 H205        0.0170  -26.1332  -48.6755 H         1 UNK         0.3000 
    206 H206        1.2659  -27.5515  -50.9894 H         1 UNK         0.0600 
    207 H207        1.9659  -24.7248  -50.0329 H         1 UNK         0.0600 
    208 H208        3.0344  -26.1258  -49.9838 H         1 UNK         0.0600 
    209 H209        2.5268  -25.4617  -51.5294 H         1 UNK         0.0600 
    210 H210       -0.8740  -24.9819  -49.8265 H         1 UNK         0.3000 
    211 H211       -2.6291  -23.9409  -50.6094 H         1 UNK         0.0600 
    212 H212       -2.6569  -25.7794  -53.0584 H         1 UNK         0.0600 
    213 H213       -3.9243  -24.6689  -52.5755 H         1 UNK         0.0600 
    214 H214       -3.5316  -26.0376  -51.5480 H         1 UNK         0.0600 
    215 H215       -0.4998  -24.5851  -53.3780 H         1 UNK         0.3000 
    216 H216        0.5558  -23.3698  -54.8873 H         1 UNK         0.0600 
    217 H217        1.7179  -21.3400  -54.1444 H         1 UNK         0.0600 
    218 H218        1.6477  -22.4557  -52.8001 H         1 UNK         0.0600 
    219 H219        0.5503  -21.0771  -52.8512 H         1 UNK         0.0600 
    220 H220        0.5105  -20.5256  -55.4325 H         1 UNK         0.3000 
    221 H221       -2.0097  -20.3619  -56.9985 H         1 UNK         0.0600 
    222 H222        0.6523  -18.8662  -57.2713 H         1 UNK         0.0600 
    223 H223        0.1781  -20.2817  -58.2105 H         1 UNK         0.0600 
    224 H224       -0.7077  -18.7775  -58.3843 H         1 UNK         0.0600 
    225 H225       -1.2246  -19.4388  -53.9974 H         1 UNK         0.3000 
    226 H226       -1.6662  -16.6147  -53.9318 H         1 UNK         0.0600 
    227 H227       -0.4609  -17.6908  -52.1191 H         1 UNK         0.0600 
    228 H228       -1.9597  -17.0809  -51.4412 H         1 UNK         0.0600 
    229 H229       -1.7869  -18.7958  -51.7904 H         1 UNK         0.0600 
    230 H230       -3.4371  -15.4470  -53.2273 H         1 UNK         0.3000 
    231 H231       -5.7500  -15.8556  -54.6121 H         1 UNK         0.0600 
    232 H232       -6.5944  -13.8780  -53.3193 H         1 UNK         0.0600 
    233 H233       -4.9502  -13.6540  -53.8933 H         1 UNK         0.0600 
    234 H234       -5.2481  -14.0433  -52.1990 H         1 UNK         0.0600 
    235 H235       -7.0485  -17.5399  -54.4004 H         1 UNK         0.3000 
    236 H236       -8.6293  -18.9132  -53.7561 H         1 UNK         0.0600 
    237 H237       -9.1924  -17.0517  -51.3918 H         1 UNK         0.0600 
    238 H238       -9.8270  -16.8342  -53.0227 H         1 UNK         0.0600 
    239 H239      -10.2894  -18.2395  -52.0793 H         1 UNK         0.0600 
    240 H240       -5.8204  -19.1736  -52.5985 H         1 UNK         0.3000 
    241 H241       -6.2445  -20.6689  -50.1185 H         1 UNK         0.0600 
    242 H242       -6.2841  -23.3581  -53.1030 H         1 UNK         0.3800 
    243 H243       -6.5604  -21.6618  -53.4006 H         1 UNK         0.3800 
    244 H244       -3.7124  -20.1140  -51.7196 H         1 UNK         0.0800 
    245 H245       -3.7515  -20.9734  -50.2066 H         1 UNK         0.0800 
    246 H246       -3.5617  -20.0367  -48.0369 H         1 UNK         0.0800 
    247 H247       -3.4707  -18.3480  -47.6314 H         1 UNK         0.0800 
@<TRIPOS>BOND
     1    1    2 1    
     2    1  127 1    
     3    1  128 1    
     4    1  129 1    
     5    2    3 2    
     6    2    4 am   BACKBONE|DICT|INTERRES
     7    4    5 1    
     8    4  130 1    
     9    5    6 1    
    10    5   65 1    
    11    5  131 1    
    12    6    7 1    
    13    6  132 1    
    14    6  133 1    
    15    7    8 1    
    16    8    9 1    
    17    8  134 1    
    18    8  135 1    
    19    9   10 ar   
    20    9   14 ar   
    21   10   11 ar   
    22   10  136 1    
    23   11   12 ar   
    24   11  126 1    
    25   12   13 ar   
    26   12  137 1    
    27   13   14 ar   
    28   13   15 1    
    29   14  138 1    
    30   15   16 1    
    31   15  139 1    
    32   15  140 1    
    33   16   17 1    
    34   17   18 1    
    35   17  141 1    
    36   17  142 1    
    37   18   19 1    
    38   18   67 1    
    39   18  143 1    
    40   19   20 am   BACKBONE|DICT|INTERRES
    41   19  144 1    
    42   20   21 2    
    43   20   22 1    
    44   22   23 1    
    45   22   24 1    
    46   22  145 1    
    47   23  146 1    
    48   23  147 1    
    49   23  148 1    
    50   24   25 am   BACKBONE|DICT|INTERRES
    51   24  149 1    
    52   25   26 2    
    53   25   27 1    
    54   27   28 1    
    55   27   29 1    
    56   27  150 1    
    57   28  151 1    
    58   28  152 1    
    59   28  153 1    
    60   29   30 am   BACKBONE|DICT|INTERRES
    61   29  154 1    
    62   30   31 2    
    63   30   32 1    
    64   32   33 1    
    65   32   34 1    
    66   32  155 1    
    67   33  156 1    
    68   33  157 1    
    69   33  158 1    
    70   34   35 am   BACKBONE|DICT|INTERRES
    71   34  159 1    
    72   35   36 2    
    73   35   37 1    
    74   37   38 1    
    75   37   39 1    
    76   37  160 1    
    77   38  161 1    
    78   38  162 1    
    79   38  163 1    
    80   39   40 am   BACKBONE|DICT|INTERRES
    81   39  164 1    
    82   40   41 2    
    83   40   42 1    
    84   42   43 1    
    85   42   44 1    
    86   42  165 1    
    87   43  166 1    
    88   43  167 1    
    89   43  168 1    
    90   44   45 am   BACKBONE|DICT|INTERRES
    91   44  169 1    
    92   45   46 2    
    93   45   47 1    
    94   47   48 1    
    95   47   49 1    
    96   47  170 1    
    97   48  171 1    
    98   48  172 1    
    99   48  173 1    
   100   49   50 am   BACKBONE|DICT|INTERRES
   101   49  174 1    
   102   50   51 2    
   103   50   52 1    
   104   52   53 1    
   105   52   54 1    
   106   52  175 1    
   107   53  176 1    
   108   53  177 1    
   109   53  178 1    
   110   54   55 am   BACKBONE|DICT|INTERRES
   111   54  179 1    
   112   55   56 2    
   113   55   57 1    
   114   57   58 1    
   115   57   59 1    
   116   57  180 1    
   117   58  181 1    
   118   58  182 1    
   119   58  183 1    
   120   59   60 am   BACKBONE|DICT|INTERRES
   121   59  184 1    
   122   60   61 2    
   123   60   62 1    
   124   62   63 1    
   125   62   64 1    
   126   62  185 1    
   127   63  186 1    
   128   63  187 1    
   129   63  188 1    
   130   64   65 am   BACKBONE|DICT|INTERRES
   131   64  189 1    
   132   65   66 2    
   133   67   68 2    
   134   67   69 am   BACKBONE|DICT|INTERRES
   135   69   70 1    
   136   69  190 1    
   137   70   71 1    
   138   70   72 1    
   139   70  191 1    
   140   71  192 1    
   141   71  193 1    
   142   71  194 1    
   143   72   73 2    
   144   72   74 am   BACKBONE|DICT|INTERRES
   145   74   75 1    
   146   74  195 1    
   147   75   76 1    
   148   75   77 1    
   149   75  196 1    
   150   76  197 1    
   151   76  198 1    
   152   76  199 1    
   153   77   78 2    
   154   77   79 am   BACKBONE|DICT|INTERRES
   155   79   80 1    
   156   79  200 1    
   157   80   81 1    
   158   80   82 1    
   159   80  201 1    
   160   81  202 1    
   161   81  203 1    
   162   81  204 1    
   163   82   83 2    
   164   82   84 am   BACKBONE|DICT|INTERRES
   165   84   85 1    
   166   84  205 1    
   167   85   86 1    
   168   85   87 1    
   169   85  206 1    
   170   86  207 1    
   171   86  208 1    
   172   86  209 1    
   173   87   88 2    
   174   87   89 am   BACKBONE|DICT|INTERRES
   175   89   90 1    
   176   89  210 1    
   177   90   91 1    
   178   90   92 1    
   179   90  211 1    
   180   91  212 1    
   181   91  213 1    
   182   91  214 1    
   183   92   93 2    
   184   92   94 am   BACKBONE|DICT|INTERRES
   185   94   95 1    
   186   94  215 1    
   187   95   96 1    
   188   95   97 1    
   189   95  216 1    
   190   96  217 1    
   191   96  218 1    
   192   96  219 1    
   193   97   98 2    
   194   97   99 am   BACKBONE|DICT|INTERRES
   195   99  100 1    
   196   99  220 1    
   197  100  101 1    
   198  100  102 1    
   199  100  221 1    
   200  101  222 1    
   201  101  223 1    
   202  101  224 1    
   203  102  103 2    
   204  102  104 am   BACKBONE|DICT|INTERRES
   205  104  105 1    
   206  104  225 1    
   207  105  106 1    
   208  105  107 1    
   209  105  226 1    
   210  106  227 1    
   211  106  228 1    
   212  106  229 1    
   213  107  108 2    
   214  107  109 am   BACKBONE|DICT|INTERRES
   215  109  110 1    
   216  109  230 1    
   217  110  111 1    
   218  110  112 1    
   219  110  231 1    
   220  111  232 1    
   221  111  233 1    
   222  111  234 1    
   223  112  113 2    
   224  112  114 am   BACKBONE|DICT|INTERRES
   225  114  115 1    
   226  114  235 1    
   227  115  116 1    
   228  115  117 1    
   229  115  236 1    
   230  116  237 1    
   231  116  238 1    
   232  116  239 1    
   233  117  118 2    
   234  117  119 am   BACKBONE|DICT|INTERRES
   235  119  120 1    
   236  119  240 1    
   237  120  121 1    
   238  120  124 1    
   239  120  241 1    
   240  121  122 am   BACKBONE|DICT|INTERRES
   241  121  123 2    
   242  122  242 1    
   243  122  243 1    
   244  124  125 1    
   245  124  244 1    
   246  124  245 1    
   247  125  126 1    
   248  126  246 1    
   249  126  247 1    
@<TRIPOS>SUBSTRUCTURE
     1 UNK         1 GROUP             0       ****    0 ROOT    
