@<TRIPOS>MOLECULE
3R540
247   249    1
SMALL
USER_CHARGES


@<TRIPOS>ATOM
      1 CA          7.8657   -9.9379  -47.6712 C.3       0 UNK        -0.1800 
      2 C           6.7489  -10.9032  -47.3013 C.2       0 UNK         0.5000 
      3 O           6.7270  -11.4172  -46.1830 O.2       0 UNK        -0.5000 
      4 N           5.8136  -11.1451  -48.2285 N.am      1 UNK        -0.5000 
      5 CA          4.6528  -12.0293  -48.0717 C.3       1 UNK         0.1400 
      6 C6          4.1891  -12.5699  -49.4490 C.3       23 UNK        -0.0398 
      7 S7          3.1894  -14.0925  -49.3333 S.3       23 UNK        -0.2404 
      8 C8          4.4784  -15.3811  -49.3945 C.3       23 UNK        -0.0205 
      9 C9          3.9265  -16.7527  -49.7680 C.ar      23 UNK        -0.0193 
     10 C10         3.2511  -16.9244  -50.9816 C.ar      23 UNK        -0.1150 
     11 C11         2.8196  -18.1903  -51.3841 C.ar      23 UNK        -0.0193 
     12 C12         3.0849  -19.2934  -50.5713 C.ar      23 UNK        -0.1150 
     13 C13         3.7374  -19.1401  -49.3465 C.ar      23 UNK        -0.0193 
     14 C14         4.1513  -17.8642  -48.9446 C.ar      23 UNK        -0.1150 
     15 C15         4.0328  -20.3699  -48.4969 C.3       23 UNK        -0.0205 
     16 S16         2.7458  -20.7063  -47.2525 S.3       23 UNK        -0.2404 
     17 C17         1.2336  -20.8750  -48.2643 C.3       23 UNK        -0.0398 
     18 CA          0.1435  -21.7624  -47.6131 C.3       11 UNK         0.1400 
     19 N          -0.1636  -21.3915  -46.2262 N.am      11 UNK        -0.5000 
     20 C          -0.9523  -22.1018  -45.4063 C.2       10 UNK         0.5000 
     21 O          -1.4548  -23.1818  -45.7129 O.2       10 UNK        -0.5000 
     22 CA         -1.2848  -21.4798  -44.0395 C.3       10 UNK         0.1400 
     23 CB         -0.2279  -21.8527  -42.9887 C.3       10 UNK        -0.1800 
     24 N          -1.4182  -20.0253  -44.1292 N.am      10 UNK        -0.5000 
     25 C          -2.4791  -19.4035  -44.6671 C.2       9 UNK         0.5000 
     26 O          -3.4716  -19.9960  -45.0881 O.2       9 UNK        -0.5000 
     27 CA         -2.4002  -17.8697  -44.8052 C.3       9 UNK         0.1400 
     28 CB         -2.8589  -17.1806  -43.5112 C.3       9 UNK        -0.1800 
     29 N          -1.0562  -17.4053  -45.1438 N.am      9 UNK        -0.5000 
     30 C          -0.4062  -17.7053  -46.2767 C.2       8 UNK         0.5000 
     31 O          -0.9133  -18.3247  -47.2104 O.2       8 UNK        -0.5000 
     32 CA          1.0763  -17.3018  -46.3474 C.3       8 UNK         0.1400 
     33 CB          1.2470  -15.9805  -47.1003 C.3       8 UNK        -0.1800 
     34 N           1.7054  -17.1933  -45.0292 N.am      8 UNK        -0.5000 
     35 C           1.9160  -18.2223  -44.1956 C.2       7 UNK         0.5000 
     36 O           1.5035  -19.3584  -44.4257 O.2       7 UNK        -0.5000 
     37 CA          2.6431  -17.9361  -42.8646 C.3       7 UNK         0.1400 
     38 CB          3.5941  -19.0805  -42.4593 C.3       7 UNK        -0.1800 
     39 N           3.3221  -16.6365  -42.8243 N.am      7 UNK        -0.5000 
     40 C           4.3670  -16.2219  -43.5591 C.2       6 UNK         0.5000 
     41 O           4.9741  -16.9406  -44.3530 O.2       6 UNK        -0.5000 
     42 CA          4.7852  -14.7444  -43.4115 C.3       6 UNK         0.1400 
     43 CB          4.7877  -14.0406  -44.7764 C.3       6 UNK        -0.1800 
     44 N           3.8906  -14.0073  -42.5169 N.am      6 UNK        -0.5000 
     45 C           4.1247  -13.7570  -41.2217 C.2       5 UNK         0.5000 
     46 O           5.1801  -14.0334  -40.6512 O.2       5 UNK        -0.5000 
     47 CA          2.9713  -13.1273  -40.4141 C.3       5 UNK         0.1400 
     48 CB          3.1831  -11.6153  -40.2453 C.3       5 UNK        -0.1800 
     49 N           1.6530  -13.3835  -41.0067 N.am      5 UNK        -0.5000 
     50 C           1.0518  -14.5836  -40.9961 C.2       4 UNK         0.5000 
     51 O           1.5443  -15.5793  -40.4665 O.2       4 UNK        -0.5000 
     52 CA         -0.2887  -14.7301  -41.7427 C.3       4 UNK         0.1400 
     53 CB         -1.4682  -14.5808  -40.7713 C.3       4 UNK        -0.1800 
     54 N          -0.4650  -13.7982  -42.8571 N.am      4 UNK        -0.5000 
     55 C           0.3129  -13.7313  -43.9451 C.2       3 UNK         0.5000 
     56 O           1.2903  -14.4620  -44.1213 O.2       3 UNK        -0.5000 
     57 CA         -0.0327  -12.6590  -45.0024 C.3       3 UNK         0.1400 
     58 CB         -1.2543  -11.7847  -44.6406 C.3       3 UNK        -0.1800 
     59 N           1.1176  -11.8070  -45.3147 N.am      3 UNK        -0.5000 
     60 C           1.8636  -11.1055  -44.4511 C.2       2 UNK         0.5000 
     61 O           1.6699  -11.1107  -43.2339 O.2       2 UNK        -0.5000 
     62 CA          3.0107  -10.2581  -45.0483 C.3       2 UNK         0.1400 
     63 CB          3.9313   -9.6713  -43.9626 C.3       2 UNK        -0.1800 
     64 N           3.8467  -10.9843  -46.0072 N.am      2 UNK        -0.5000 
     65 C           3.5353  -11.3262  -47.2629 C.2       1 UNK         0.5000 
     66 O           2.4415  -11.0813  -47.7748 O.2       1 UNK        -0.5000 
     67 C          -1.1350  -21.7744  -48.4799 C.2       11 UNK         0.5000 
     68 O          -1.3720  -22.7381  -49.2079 O.2       11 UNK        -0.5000 
     69 N          -1.9658  -20.7312  -48.3395 N.am      12 UNK        -0.5000 
     70 CA         -3.2726  -20.6106  -48.9865 C.3       12 UNK         0.1400 
     71 CB         -3.8122  -19.1870  -48.7867 C.3       12 UNK        -0.1800 
     72 C          -4.2913  -21.6571  -48.4957 C.2       12 UNK         0.5000 
     73 O          -5.0970  -22.1283  -49.2940 O.2       12 UNK        -0.5000 
     74 N          -4.2293  -22.0291  -47.2091 N.am      13 UNK        -0.5000 
     75 CA         -5.0442  -23.1018  -46.6340 C.3       13 UNK         0.1400 
     76 CB         -4.9829  -23.0402  -45.1010 C.3       13 UNK        -0.1800 
     77 C          -4.6368  -24.4997  -47.1402 C.2       13 UNK         0.5000 
     78 O          -5.4941  -25.3743  -47.2578 O.2       13 UNK        -0.5000 
     79 N          -3.3440  -24.6909  -47.4334 N.am      14 UNK        -0.5000 
     80 CA         -2.8057  -25.9204  -48.0107 C.3       14 UNK         0.1400 
     81 CB         -1.2892  -25.9796  -47.7736 C.3       14 UNK        -0.1800 
     82 C          -3.1329  -26.0596  -49.5088 C.2       14 UNK         0.5000 
     83 O          -3.4186  -27.1725  -49.9532 O.2       14 UNK        -0.5000 
     84 N          -3.0884  -24.9396  -50.2491 N.am      15 UNK        -0.5000 
     85 CA         -3.3168  -24.8270  -51.6944 C.3       15 UNK         0.1400 
     86 CB         -3.2062  -23.3513  -52.1146 C.3       15 UNK        -0.1800 
     87 C          -4.6602  -25.4353  -52.1421 C.2       15 UNK         0.5000 
     88 O          -5.7118  -24.8185  -51.9617 O.2       15 UNK        -0.5000 
     89 N          -4.5953  -26.6684  -52.6658 N.am      16 UNK        -0.5000 
     90 CA         -5.7214  -27.5206  -53.0669 C.3       16 UNK         0.1400 
     91 CB         -6.3810  -26.9660  -54.3461 C.3       16 UNK        -0.1800 
     92 C          -6.7371  -27.7627  -51.9267 C.2       16 UNK         0.5000 
     93 O          -7.9362  -27.8615  -52.1854 O.2       16 UNK        -0.5000 
     94 N          -6.2431  -27.8075  -50.6788 N.am      17 UNK        -0.5000 
     95 CA         -7.0157  -27.8762  -49.4322 C.3       17 UNK         0.1400 
     96 CB         -7.7023  -29.2506  -49.2882 C.3       17 UNK        -0.1800 
     97 C          -7.9905  -26.6866  -49.2698 C.2       17 UNK         0.5000 
     98 O          -9.1343  -26.8719  -48.8510 O.2       17 UNK        -0.5000 
     99 N          -7.5056  -25.4893  -49.6290 N.am      18 UNK        -0.5000 
    100 CA        -8.1689  -24.1828  -49.5894 C.3       18 UNK         0.1400 
    101 CB        -8.7594  -23.8734  -48.1967 C.3       18 UNK        -0.1800 
    102 C         -9.1878  -23.9618  -50.7241 C.2       18 UNK         0.5000 
    103 O         -9.9069  -22.9614  -50.6983 O.2       18 UNK        -0.5000 
    104 N         -9.2215  -24.8590  -51.7208 N.am      19 UNK        -0.5000 
    105 CA        -9.9968  -24.6822  -52.9522 C.3       19 UNK         0.1400 
    106 CB       -10.2510  -26.0512  -53.6004 C.3       19 UNK        -0.1800 
    107 C         -9.3088  -23.7272  -53.9498 C.2       19 UNK         0.5000 
    108 O         -9.9616  -23.2625  -54.8855 O.2       19 UNK        -0.5000 
    109 N         -8.0171  -23.4510  -53.7373 N.am      20 UNK        -0.5000 
    110 CA        -7.2011  -22.5115  -54.4958 C.3       20 UNK         0.1400 
    111 CB        -6.2245  -23.3119  -55.3774 C.3       20 UNK        -0.1800 
    112 C         -6.4517  -21.5892  -53.5188 C.2       20 UNK         0.5000 
    113 O         -6.5810  -21.7311  -52.3014 O.2       20 UNK        -0.5000 
    114 N         -5.6710  -20.6608  -54.0748 N.am      21 UNK        -0.5000 
    115 CA        -4.7411  -19.7919  -53.3647 C.3       21 UNK         0.1400 
    116 CB        -5.4806  -18.5907  -52.7498 C.3       21 UNK        -0.1800 
    117 C         -3.6771  -19.3402  -54.3730 C.2       21 UNK         0.5000 
    118 O         -3.9810  -19.2217  -55.5636 O.2       21 UNK        -0.5000 
    119 N         -2.4560  -19.1046  -53.8862 N.am      22 UNK        -0.5000 
    120 CA        -1.2960  -18.6965  -54.6969 C.3       22 UNK         0.1400 
    121 C         -1.1055  -17.1563  -54.8344 C.2       22 UNK         0.5000 
    122 N         -1.9458  -16.3244  -54.2308 N.am      22 UNK        -0.7600 
    123 O         -0.1895  -16.7069  -55.5179 O.2       22 UNK        -0.5000 
    124 C124       -0.0083  -19.4210  -54.2312 C.3       23 UNK        -0.0398 
    125 S125        0.4445  -19.0935  -52.4913 S.3       23 UNK        -0.2404 
    126 C126        2.1067  -18.3836  -52.7131 C.3       23 UNK        -0.0205 
    127 H127        8.8321  -10.4361  -47.5943 H         1 UNK         0.0600 
    128 H128        7.8648   -9.0860  -46.9913 H         1 UNK         0.0600 
    129 H129        7.7566   -9.5617  -48.6887 H         1 UNK         0.0600 
    130 H130        5.8718  -10.6606  -49.1133 H         1 UNK         0.3000 
    131 H131        4.9758  -12.8894  -47.4818 H         1 UNK         0.0600 
    132 H132        3.6216  -11.8164  -49.9978 H         1 UNK         0.0800 
    133 H133        5.0551  -12.7864  -50.0759 H         1 UNK         0.0800 
    134 H134        5.2342  -15.1119  -50.1333 H         1 UNK         0.0800 
    135 H135        4.9859  -15.4163  -48.4292 H         1 UNK         0.0800 
    136 H136        3.0789  -16.0699  -51.6211 H         1 UNK         0.1150 
    137 H137        2.7785  -20.2765  -50.8993 H         1 UNK         0.1150 
    138 H138        4.6753  -17.7445  -48.0064 H         1 UNK         0.1150 
    139 H139        4.1522  -21.2485  -49.1329 H         1 UNK         0.0800 
    140 H140        4.9869  -20.2388  -47.9844 H         1 UNK         0.0800 
    141 H141        1.5082  -21.3036  -49.2289 H         1 UNK         0.0800 
    142 H142        0.8553  -19.8732  -48.4728 H         1 UNK         0.0800 
    143 H143        0.5259  -22.7853  -47.5890 H         1 UNK         0.0600 
    144 H144        0.2647  -20.5436  -45.8761 H         1 UNK         0.3000 
    145 H145       -2.2396  -21.8909  -43.7062 H         1 UNK         0.0600 
    146 H146       -0.4501  -21.3961  -42.0242 H         1 UNK         0.0600 
    147 H147       -0.2000  -22.9326  -42.8385 H         1 UNK         0.0600 
    148 H148        0.7739  -21.5432  -43.2852 H         1 UNK         0.0600 
    149 H149       -0.5982  -19.4862  -43.8852 H         1 UNK         0.3000 
    150 H150       -3.0732  -17.5719  -45.6120 H         1 UNK         0.0600 
    151 H151       -3.8759  -17.4777  -43.2520 H         1 UNK         0.0600 
    152 H152       -2.8556  -16.0957  -43.6187 H         1 UNK         0.0600 
    153 H153       -2.2177  -17.4371  -42.6670 H         1 UNK         0.0600 
    154 H154       -0.5551  -16.8904  -44.4362 H         1 UNK         0.3000 
    155 H155        1.6083  -18.0723  -46.9052 H         1 UNK         0.0600 
    156 H156        2.2845  -15.6498  -47.0693 H         1 UNK         0.0600 
    157 H157        0.6300  -15.1896  -46.6788 H         1 UNK         0.0600 
    158 H158        0.9678  -16.0927  -48.1488 H         1 UNK         0.0600 
    159 H159        1.9781  -16.2618  -44.7347 H         1 UNK         0.3000 
    160 H160        1.8597  -17.8832  -42.1077 H         1 UNK         0.0600 
    161 H161        4.3580  -19.2615  -43.2157 H         1 UNK         0.0600 
    162 H162        3.0463  -20.0138  -42.3238 H         1 UNK         0.0600 
    163 H163        4.0969  -18.8613  -41.5174 H         1 UNK         0.0600 
    164 H164        2.9119  -15.9672  -42.1863 H         1 UNK         0.3000 
    165 H165        5.8050  -14.7335  -43.0220 H         1 UNK         0.0600 
    166 H166        3.7930  -14.0161  -45.2236 H         1 UNK         0.0600 
    167 H167        5.1395  -13.0158  -44.6720 H         1 UNK         0.0600 
    168 H168        5.4550  -14.5389  -45.4806 H         1 UNK         0.0600 
    169 H169        2.9834  -13.7695  -42.9002 H         1 UNK         0.3000 
    170 H170        2.9863  -13.5772  -39.4190 H         1 UNK         0.0600 
    171 H171        4.1055  -11.4128  -39.6997 H         1 UNK         0.0600 
    172 H172        3.2580  -11.1052  -41.2047 H         1 UNK         0.0600 
    173 H173        2.3671  -11.1602  -39.6838 H         1 UNK         0.0600 
    174 H174        1.2266  -12.6178  -41.5143 H         1 UNK         0.3000 
    175 H175       -0.3154  -15.7407  -42.1548 H         1 UNK         0.0600 
    176 H176       -1.5149  -13.5769  -40.3473 H         1 UNK         0.0600 
    177 H177       -2.4176  -14.7809  -41.2684 H         1 UNK         0.0600 
    178 H178       -1.3836  -15.2843  -39.9419 H         1 UNK         0.0600 
    179 H179       -1.2284  -13.1424  -42.7762 H         1 UNK         0.3000 
    180 H180       -0.2764  -13.1972  -45.9181 H         1 UNK         0.0600 
    181 H181       -1.0940  -11.2110  -43.7268 H         1 UNK         0.0600 
    182 H182       -2.1517  -12.3901  -44.5069 H         1 UNK         0.0600 
    183 H183       -1.4700  -11.0736  -45.4382 H         1 UNK         0.0600 
    184 H184        1.3721  -11.7404  -46.2957 H         1 UNK         0.3000 
    185 H185        2.5416   -9.4231  -45.5721 H         1 UNK         0.0600 
    186 H186        4.4359  -10.4573  -43.3990 H         1 UNK         0.0600 
    187 H187        4.6965   -9.0290  -44.3991 H         1 UNK         0.0600 
    188 H188        3.3687   -9.0640  -43.2523 H         1 UNK         0.0600 
    189 H189        4.7893  -11.2012  -45.6993 H         1 UNK         0.3000 
    190 H190       -1.6713  -19.9457  -47.7637 H         1 UNK         0.3000 
    191 H191       -3.1286  -20.7700  -50.0572 H         1 UNK         0.0600 
    192 H192       -3.1280  -18.4449  -49.1987 H         1 UNK         0.0600 
    193 H193       -3.9578  -18.9578  -47.7305 H         1 UNK         0.0600 
    194 H194       -4.7724  -19.0595  -49.2884 H         1 UNK         0.0600 
    195 H195       -3.5948  -21.5467  -46.5846 H         1 UNK         0.3000 
    196 H196       -6.0794  -22.9298  -46.9331 H         1 UNK         0.0600 
    197 H197       -5.6365  -23.7916  -44.6564 H         1 UNK         0.0600 
    198 H198       -5.3072  -22.0677  -44.7304 H         1 UNK         0.0600 
    199 H199       -3.9755  -23.2243  -44.7298 H         1 UNK         0.0600 
    200 H200       -2.6828  -23.9494  -47.2323 H         1 UNK         0.3000 
    201 H201       -3.2562  -26.7699  -47.4928 H         1 UNK         0.0600 
    202 H202       -1.0556  -25.9353  -46.7096 H         1 UNK         0.0600 
    203 H203       -0.7685  -25.1567  -48.2630 H         1 UNK         0.0600 
    204 H204       -0.8703  -26.9092  -48.1607 H         1 UNK         0.0600 
    205 H205       -2.7992  -24.0856  -49.7847 H         1 UNK         0.3000 
    206 H206       -2.5109  -25.3704  -52.1910 H         1 UNK         0.0600 
    207 H207       -2.2253  -22.9414  -51.8738 H         1 UNK         0.0600 
    208 H208       -3.3521  -23.2381  -53.1895 H         1 UNK         0.0600 
    209 H209       -3.9573  -22.7368  -51.6188 H         1 UNK         0.0600 
    210 H210       -3.6874  -27.1100  -52.7147 H         1 UNK         0.3000 
    211 H211       -5.2993  -28.4970  -53.3080 H         1 UNK         0.0600 
    212 H212       -6.8839  -26.0179  -54.1599 H         1 UNK         0.0600 
    213 H213       -7.1252  -27.6605  -54.7372 H         1 UNK         0.0600 
    214 H214       -5.6445  -26.8046  -55.1330 H         1 UNK         0.0600 
    215 H215       -5.2402  -27.6896  -50.5617 H         1 UNK         0.3000 
    216 H216       -6.2915  -27.7848  -48.6213 H         1 UNK         0.0600 
    217 H217       -6.9828  -30.0629  -49.3906 H         1 UNK         0.0600 
    218 H218       -8.4820  -29.3962  -50.0363 H         1 UNK         0.0600 
    219 H219       -8.1680  -29.3526  -48.3074 H         1 UNK         0.0600 
    220 H220       -6.5754  -25.4622  -50.0285 H         1 UNK         0.3000 
    221 H221       -7.3730  -23.4596  -49.7703 H         1 UNK         0.0600 
    222 H222       -9.6811  -24.4268  -48.0157 H         1 UNK         0.0600 
    223 H223       -8.0594  -24.1233  -47.4005 H         1 UNK         0.0600 
    224 H224       -8.9953  -22.8130  -48.1032 H         1 UNK         0.0600 
    225 H225       -8.6178  -25.6698  -51.6720 H         1 UNK         0.3000 
    226 H226      -10.9667  -24.2501  -52.6970 H         1 UNK         0.0600 
    227 H227      -10.6986  -26.7494  -52.8929 H         1 UNK         0.0600 
    228 H228      -10.9348  -25.9594  -54.4450 H         1 UNK         0.0600 
    229 H229       -9.3307  -26.4967  -53.9767 H         1 UNK         0.0600 
    230 H230       -7.5630  -23.8229  -52.9102 H         1 UNK         0.3000 
    231 H231       -7.8294  -21.8821  -55.1292 H         1 UNK         0.0600 
    232 H232       -5.6384  -22.6560  -56.0216 H         1 UNK         0.0600 
    233 H233       -6.7594  -24.0051  -56.0269 H         1 UNK         0.0600 
    234 H234       -5.5251  -23.8928  -54.7750 H         1 UNK         0.0600 
    235 H235       -5.5974  -20.5928  -55.0828 H         1 UNK         0.3000 
    236 H236       -4.2524  -20.3633  -52.5723 H         1 UNK         0.0600 
    237 H237       -6.2263  -18.9146  -52.0236 H         1 UNK         0.0600 
    238 H238       -4.7876  -17.9305  -52.2271 H         1 UNK         0.0600 
    239 H239       -5.9897  -18.0000  -53.5123 H         1 UNK         0.0600 
    240 H240       -2.2781  -19.2060  -52.8973 H         1 UNK         0.3000 
    241 H241       -1.4675  -19.0351  -55.7206 H         1 UNK         0.0600 
    242 H242       -2.7067  -16.6777  -53.6743 H         1 UNK         0.3800 
    243 H243       -1.8176  -15.3298  -54.3329 H         1 UNK         0.3800 
    244 H244       -0.1448  -20.4981  -54.3363 H         1 UNK         0.0800 
    245 H245        0.8245  -19.1730  -54.8914 H         1 UNK         0.0800 
    246 H246        2.0207  -17.4383  -53.2518 H         1 UNK         0.0800 
    247 H247        2.7074  -19.0475  -53.3364 H         1 UNK         0.0800 
@<TRIPOS>BOND
     1    1    2 1    
     2    1  127 1    
     3    1  128 1    
     4    1  129 1    
     5    2    3 2    
     6    2    4 am   BACKBONE|DICT|INTERRES
     7    4    5 1    
     8    4  130 1    
     9    5    6 1    
    10    5   65 1    
    11    5  131 1    
    12    6    7 1    
    13    6  132 1    
    14    6  133 1    
    15    7    8 1    
    16    8    9 1    
    17    8  134 1    
    18    8  135 1    
    19    9   10 ar   
    20    9   14 ar   
    21   10   11 ar   
    22   10  136 1    
    23   11   12 ar   
    24   11  126 1    
    25   12   13 ar   
    26   12  137 1    
    27   13   14 ar   
    28   13   15 1    
    29   14  138 1    
    30   15   16 1    
    31   15  139 1    
    32   15  140 1    
    33   16   17 1    
    34   17   18 1    
    35   17  141 1    
    36   17  142 1    
    37   18   19 1    
    38   18   67 1    
    39   18  143 1    
    40   19   20 am   BACKBONE|DICT|INTERRES
    41   19  144 1    
    42   20   21 2    
    43   20   22 1    
    44   22   23 1    
    45   22   24 1    
    46   22  145 1    
    47   23  146 1    
    48   23  147 1    
    49   23  148 1    
    50   24   25 am   BACKBONE|DICT|INTERRES
    51   24  149 1    
    52   25   26 2    
    53   25   27 1    
    54   27   28 1    
    55   27   29 1    
    56   27  150 1    
    57   28  151 1    
    58   28  152 1    
    59   28  153 1    
    60   29   30 am   BACKBONE|DICT|INTERRES
    61   29  154 1    
    62   30   31 2    
    63   30   32 1    
    64   32   33 1    
    65   32   34 1    
    66   32  155 1    
    67   33  156 1    
    68   33  157 1    
    69   33  158 1    
    70   34   35 am   BACKBONE|DICT|INTERRES
    71   34  159 1    
    72   35   36 2    
    73   35   37 1    
    74   37   38 1    
    75   37   39 1    
    76   37  160 1    
    77   38  161 1    
    78   38  162 1    
    79   38  163 1    
    80   39   40 am   BACKBONE|DICT|INTERRES
    81   39  164 1    
    82   40   41 2    
    83   40   42 1    
    84   42   43 1    
    85   42   44 1    
    86   42  165 1    
    87   43  166 1    
    88   43  167 1    
    89   43  168 1    
    90   44   45 am   BACKBONE|DICT|INTERRES
    91   44  169 1    
    92   45   46 2    
    93   45   47 1    
    94   47   48 1    
    95   47   49 1    
    96   47  170 1    
    97   48  171 1    
    98   48  172 1    
    99   48  173 1    
   100   49   50 am   BACKBONE|DICT|INTERRES
   101   49  174 1    
   102   50   51 2    
   103   50   52 1    
   104   52   53 1    
   105   52   54 1    
   106   52  175 1    
   107   53  176 1    
   108   53  177 1    
   109   53  178 1    
   110   54   55 am   BACKBONE|DICT|INTERRES
   111   54  179 1    
   112   55   56 2    
   113   55   57 1    
   114   57   58 1    
   115   57   59 1    
   116   57  180 1    
   117   58  181 1    
   118   58  182 1    
   119   58  183 1    
   120   59   60 am   BACKBONE|DICT|INTERRES
   121   59  184 1    
   122   60   61 2    
   123   60   62 1    
   124   62   63 1    
   125   62   64 1    
   126   62  185 1    
   127   63  186 1    
   128   63  187 1    
   129   63  188 1    
   130   64   65 am   BACKBONE|DICT|INTERRES
   131   64  189 1    
   132   65   66 2    
   133   67   68 2    
   134   67   69 am   BACKBONE|DICT|INTERRES
   135   69   70 1    
   136   69  190 1    
   137   70   71 1    
   138   70   72 1    
   139   70  191 1    
   140   71  192 1    
   141   71  193 1    
   142   71  194 1    
   143   72   73 2    
   144   72   74 am   BACKBONE|DICT|INTERRES
   145   74   75 1    
   146   74  195 1    
   147   75   76 1    
   148   75   77 1    
   149   75  196 1    
   150   76  197 1    
   151   76  198 1    
   152   76  199 1    
   153   77   78 2    
   154   77   79 am   BACKBONE|DICT|INTERRES
   155   79   80 1    
   156   79  200 1    
   157   80   81 1    
   158   80   82 1    
   159   80  201 1    
   160   81  202 1    
   161   81  203 1    
   162   81  204 1    
   163   82   83 2    
   164   82   84 am   BACKBONE|DICT|INTERRES
   165   84   85 1    
   166   84  205 1    
   167   85   86 1    
   168   85   87 1    
   169   85  206 1    
   170   86  207 1    
   171   86  208 1    
   172   86  209 1    
   173   87   88 2    
   174   87   89 am   BACKBONE|DICT|INTERRES
   175   89   90 1    
   176   89  210 1    
   177   90   91 1    
   178   90   92 1    
   179   90  211 1    
   180   91  212 1    
   181   91  213 1    
   182   91  214 1    
   183   92   93 2    
   184   92   94 am   BACKBONE|DICT|INTERRES
   185   94   95 1    
   186   94  215 1    
   187   95   96 1    
   188   95   97 1    
   189   95  216 1    
   190   96  217 1    
   191   96  218 1    
   192   96  219 1    
   193   97   98 2    
   194   97   99 am   BACKBONE|DICT|INTERRES
   195   99  100 1    
   196   99  220 1    
   197  100  101 1    
   198  100  102 1    
   199  100  221 1    
   200  101  222 1    
   201  101  223 1    
   202  101  224 1    
   203  102  103 2    
   204  102  104 am   BACKBONE|DICT|INTERRES
   205  104  105 1    
   206  104  225 1    
   207  105  106 1    
   208  105  107 1    
   209  105  226 1    
   210  106  227 1    
   211  106  228 1    
   212  106  229 1    
   213  107  108 2    
   214  107  109 am   BACKBONE|DICT|INTERRES
   215  109  110 1    
   216  109  230 1    
   217  110  111 1    
   218  110  112 1    
   219  110  231 1    
   220  111  232 1    
   221  111  233 1    
   222  111  234 1    
   223  112  113 2    
   224  112  114 am   BACKBONE|DICT|INTERRES
   225  114  115 1    
   226  114  235 1    
   227  115  116 1    
   228  115  117 1    
   229  115  236 1    
   230  116  237 1    
   231  116  238 1    
   232  116  239 1    
   233  117  118 2    
   234  117  119 am   BACKBONE|DICT|INTERRES
   235  119  120 1    
   236  119  240 1    
   237  120  121 1    
   238  120  124 1    
   239  120  241 1    
   240  121  122 am   BACKBONE|DICT|INTERRES
   241  121  123 2    
   242  122  242 1    
   243  122  243 1    
   244  124  125 1    
   245  124  244 1    
   246  124  245 1    
   247  125  126 1    
   248  126  246 1    
   249  126  247 1    
@<TRIPOS>SUBSTRUCTURE
     1 UNK         1 GROUP             0       ****    0 ROOT    
