@<TRIPOS>MOLECULE
3R540
247   249    1
SMALL
USER_CHARGES


@<TRIPOS>ATOM
      1 CA         -0.1153  -12.5846  -49.9904 C.3       0 UNK        -0.1800 
      2 C           0.5008  -12.7548  -48.6091 C.2       0 UNK         0.5000 
      3 O          -0.1826  -13.2020  -47.6894 O.2       0 UNK        -0.5000 
      4 N           1.7879  -12.4057  -48.4703 N.am      1 UNK        -0.5000 
      5 CA          2.6090  -12.5302  -47.2545 C.3       1 UNK         0.1400 
      6 C6          2.8846  -13.9984  -46.8161 C.3       23 UNK        -0.0398 
      7 S7          3.4643  -15.0831  -48.1676 S.3       23 UNK        -0.2404 
      8 C8          2.0398  -16.2061  -48.2556 C.3       23 UNK        -0.0205 
      9 C9          2.1016  -17.1534  -49.4383 C.ar      23 UNK        -0.0193 
     10 C10         1.7594  -16.6993  -50.7142 C.ar      23 UNK        -0.1150 
     11 C11         1.7434  -17.5790  -51.7996 C.ar      23 UNK        -0.0193 
     12 C12         2.0722  -18.9237  -51.5996 C.ar      23 UNK        -0.1150 
     13 C13         2.4188  -19.3885  -50.3262 C.ar      23 UNK        -0.0193 
     14 C14         2.4408  -18.4957  -49.2506 C.ar      23 UNK        -0.1150 
     15 C15         2.7631  -20.8555  -50.1135 C.3       23 UNK        -0.0205 
     16 S16         1.2755  -21.8595  -49.7992 S.3       23 UNK        -0.2404 
     17 C17         0.8254  -21.3491  -48.1037 C.3       23 UNK        -0.0398 
     18 CA          0.3126  -22.5223  -47.2341 C.3       11 UNK         0.1400 
     19 N           0.3537  -22.2077  -45.8037 N.am      11 UNK        -0.5000 
     20 C           0.1072  -23.0868  -44.8208 C.2       10 UNK         0.5000 
     21 O          -0.1411  -24.2775  -45.0112 O.2       10 UNK        -0.5000 
     22 CA          0.0893  -22.5355  -43.3846 C.3       10 UNK         0.1400 
     23 CB          1.5187  -22.3543  -42.8531 C.3       10 UNK        -0.1800 
     24 N          -0.6461  -21.2750  -43.2722 N.am      10 UNK        -0.5000 
     25 C          -1.9555  -21.1335  -43.5265 C.2       9 UNK         0.5000 
     26 O          -2.6937  -22.0632  -43.8504 O.2       9 UNK        -0.5000 
     27 CA         -2.5279  -19.7057  -43.4597 C.3       9 UNK         0.1400 
     28 CB         -2.7552  -19.2685  -42.0052 C.3       9 UNK        -0.1800 
     29 N          -1.6779  -18.7291  -44.1397 N.am      9 UNK        -0.5000 
     30 C          -1.3786  -18.7592  -45.4465 C.2       8 UNK         0.5000 
     31 O          -1.8182  -19.5925  -46.2380 O.2       8 UNK        -0.5000 
     32 CA         -0.3639  -17.7176  -45.9375 C.3       8 UNK         0.1400 
     33 CB         -1.0312  -16.3494  -46.1438 C.3       8 UNK        -0.1800 
     34 N           0.7603  -17.5913  -45.0101 N.am      8 UNK        -0.5000 
     35 C           1.6781  -18.5475  -44.8061 C.2       7 UNK         0.5000 
     36 O           1.6956  -19.6181  -45.4121 O.2       7 UNK        -0.5000 
     37 CA          2.7284  -18.2771  -43.7164 C.3       7 UNK         0.1400 
     38 CB          3.8965  -17.4620  -44.2921 C.3       7 UNK        -0.1800 
     39 N           2.1574  -17.5822  -42.5614 N.am      7 UNK        -0.5000 
     40 C           1.2786  -18.1364  -41.7105 C.2       6 UNK         0.5000 
     41 O           0.9022  -19.3048  -41.7920 O.2       6 UNK        -0.5000 
     42 CA          0.6777  -17.2317  -40.6148 C.3       6 UNK         0.1400 
     43 CB          1.5271  -17.2999  -39.3375 C.3       6 UNK        -0.1800 
     44 N           0.5420  -15.8345  -41.0267 N.am      6 UNK        -0.5000 
     45 C          -0.1810  -15.4065  -42.0706 C.2       5 UNK         0.5000 
     46 O          -0.9145  -16.1437  -42.7307 O.2       5 UNK        -0.5000 
     47 CA         -0.0140  -13.9291  -42.4863 C.3       5 UNK         0.1400 
     48 CB         -1.2236  -13.1010  -42.0294 C.3       5 UNK        -0.1800 
     49 N           1.2162  -13.2777  -42.0137 N.am      5 UNK        -0.5000 
     50 C           2.4679  -13.6842  -42.2720 C.2       4 UNK         0.5000 
     51 O           2.7368  -14.7291  -42.8674 O.2       4 UNK        -0.5000 
     52 CA          3.5902  -12.7457  -41.8067 C.3       4 UNK         0.1400 
     53 CB          4.9968  -13.3415  -42.0156 C.3       4 UNK        -0.1800 
     54 N           3.4763  -11.4783  -42.5240 N.am      4 UNK        -0.5000 
     55 C           3.9081  -10.2945  -42.0692 C.2       3 UNK         0.5000 
     56 O           4.3954  -10.1409  -40.9481 O.2       3 UNK        -0.5000 
     57 CA          3.8134   -9.0742  -43.0112 C.3       3 UNK         0.1400 
     58 CB          5.2107   -8.6836  -43.5189 C.3       3 UNK        -0.1800 
     59 N           2.9427   -9.2826  -44.1688 N.am      3 UNK        -0.5000 
     60 C           1.6045   -9.2440  -44.1393 C.2       2 UNK         0.5000 
     61 O           0.9526   -8.9790  -43.1287 O.2       2 UNK        -0.5000 
     62 CA          0.8658   -9.5773  -45.4540 C.3       2 UNK         0.1400 
     63 CB          0.4810   -8.2870  -46.1938 C.3       2 UNK        -0.1800 
     64 N           1.5897  -10.4589  -46.3817 N.am      2 UNK        -0.5000 
     65 C           2.0462  -11.6856  -46.0879 C.2       1 UNK         0.5000 
     66 O           2.0198  -12.1527  -44.9512 O.2       1 UNK        -0.5000 
     67 C          -1.0904  -22.9932  -47.6674 C.2       11 UNK         0.5000 
     68 O          -1.2057  -24.0496  -48.2874 O.2       11 UNK        -0.5000 
     69 N          -2.1320  -22.2404  -47.2832 N.am      12 UNK        -0.5000 
     70 CA         -3.5322  -22.5660  -47.5538 C.3       12 UNK         0.1400 
     71 CB         -4.4340  -21.4123  -47.0928 C.3       12 UNK        -0.1800 
     72 C          -3.9789  -23.8936  -46.9181 C.2       12 UNK         0.5000 
     73 O          -4.6882  -24.6586  -47.5699 O.2       12 UNK        -0.5000 
     74 N          -3.5379  -24.1641  -45.6825 N.am      13 UNK        -0.5000 
     75 CA         -3.7884  -25.4224  -44.9804 C.3       13 UNK         0.1400 
     76 CB         -3.3387  -25.2996  -43.5166 C.3       13 UNK        -0.1800 
     77 C          -3.1129  -26.6248  -45.6649 C.2       13 UNK         0.5000 
     78 O          -3.7600  -27.6554  -45.8539 O.2       13 UNK        -0.5000 
     79 N          -1.8374  -26.4649  -46.0443 N.am      14 UNK        -0.5000 
     80 CA         -1.0370  -27.4899  -46.7157 C.3       14 UNK         0.1400 
     81 CB          0.4361  -27.0537  -46.7343 C.3       14 UNK        -0.1800 
     82 C          -1.5258  -27.8036  -48.1416 C.2       14 UNK         0.5000 
     83 O          -1.5839  -28.9735  -48.5218 O.2       14 UNK        -0.5000 
     84 N          -1.8702  -26.7565  -48.9009 N.am      15 UNK        -0.5000 
     85 CA         -2.2959  -26.8420  -50.2986 C.3       15 UNK         0.1400 
     86 CB         -1.8885  -25.5430  -51.0090 C.3       15 UNK        -0.1800 
     87 C          -3.8047  -27.1030  -50.4756 C.2       15 UNK         0.5000 
     88 O          -4.2564  -27.1945  -51.6177 O.2       15 UNK        -0.5000 
     89 N          -4.5622  -27.1848  -49.3706 N.am      16 UNK        -0.5000 
     90 CA         -6.0181  -27.3710  -49.3047 C.3       16 UNK         0.1400 
     91 CB         -6.4088  -28.7864  -49.7778 C.3       16 UNK        -0.1800 
     92 C          -6.7744  -26.2497  -50.0489 C.2       16 UNK         0.5000 
     93 O          -7.5500  -26.5130  -50.9690 O.2       16 UNK        -0.5000 
     94 N          -6.4643  -25.0069  -49.6580 N.am      17 UNK        -0.5000 
     95 CA         -6.9045  -23.7203  -50.2114 C.3       17 UNK         0.1400 
     96 CB         -8.4418  -23.6051  -50.2469 C.3       17 UNK        -0.1800 
     97 C          -6.2672  -23.3554  -51.5682 C.2       17 UNK         0.5000 
     98 O          -6.5258  -22.2600  -52.0679 O.2       17 UNK        -0.5000 
     99 N          -5.4453  -24.2516  -52.1387 N.am      18 UNK        -0.5000 
    100 CA        -4.6126  -24.0897  -53.3410 C.3       18 UNK         0.1400 
    101 CB        -3.5525  -22.9933  -53.0990 C.3       18 UNK        -0.1800 
    102 C         -5.3813  -23.8191  -54.6534 C.2       18 UNK         0.5000 
    103 O         -4.7470  -23.5029  -55.6602 O.2       18 UNK        -0.5000 
    104 N         -6.7203  -23.9060  -54.6207 N.am      19 UNK        -0.5000 
    105 CA        -7.6543  -23.3714  -55.6201 C.3       19 UNK         0.1400 
    106 CB        -7.5675  -24.1544  -56.9470 C.3       19 UNK        -0.1800 
    107 C         -7.4806  -21.8440  -55.7930 C.2       19 UNK         0.5000 
    108 O         -7.4478  -21.3408  -56.9174 O.2       19 UNK        -0.5000 
    109 N         -7.3147  -21.1477  -54.6575 N.am      20 UNK        -0.5000 
    110 CA        -7.0176  -19.7232  -54.4659 C.3       20 UNK         0.1400 
    111 CB        -8.0472  -18.8096  -55.1579 C.3       20 UNK        -0.1800 
    112 C         -5.5735  -19.3346  -54.8341 C.2       20 UNK         0.5000 
    113 O         -4.9413  -18.6052  -54.0683 O.2       20 UNK        -0.5000 
    114 N         -5.0734  -19.8348  -55.9733 N.am      21 UNK        -0.5000 
    115 CA        -3.7262  -19.6443  -56.5204 C.3       21 UNK         0.1400 
    116 CB        -2.7045  -20.4869  -55.7245 C.3       21 UNK        -0.1800 
    117 C         -3.3481  -18.1517  -56.6350 C.2       21 UNK         0.5000 
    118 O         -3.9210  -17.4469  -57.4679 O.2       21 UNK        -0.5000 
    119 N         -2.4085  -17.7003  -55.7965 N.am      22 UNK        -0.5000 
    120 CA        -1.9775  -16.3020  -55.6616 C.3       22 UNK         0.1400 
    121 C         -2.9989  -15.3575  -54.9574 C.2       22 UNK         0.5000 
    122 N         -4.0666  -15.8548  -54.3441 N.am      22 UNK        -0.7600 
    123 O         -2.8246  -14.1419  -54.9826 O.2       22 UNK        -0.5000 
    124 C124       -0.5657  -16.2100  -55.0242 C.3       23 UNK        -0.0398 
    125 S125       -0.4424  -17.0007  -53.3804 S.3       23 UNK        -0.2404 
    126 C126        1.3633  -17.0713  -53.1814 C.3       23 UNK        -0.0205 
    127 H127        0.5976  -12.1740  -50.7058 H         1 UNK         0.0600 
    128 H128       -0.9720  -11.9127  -49.9392 H         1 UNK         0.0600 
    129 H129       -0.4579  -13.5483  -50.3679 H         1 UNK         0.0600 
    130 H130        2.2796  -12.0488  -49.2776 H         1 UNK         0.3000 
    131 H131        3.5730  -12.0842  -47.5029 H         1 UNK         0.0600 
    132 H132        3.6464  -14.0164  -46.0345 H         1 UNK         0.0800 
    133 H133        1.9924  -14.4313  -46.3599 H         1 UNK         0.0800 
    134 H134        1.9956  -16.7683  -47.3244 H         1 UNK         0.0800 
    135 H135        1.1175  -15.6288  -48.3183 H         1 UNK         0.0800 
    136 H136        1.4899  -15.6622  -50.8593 H         1 UNK         0.1150 
    137 H137        2.0496  -19.6117  -52.4331 H         1 UNK         0.1150 
    138 H138        2.7008  -18.8490  -48.2625 H         1 UNK         0.1150 
    139 H139        3.2661  -21.2441  -51.0003 H         1 UNK         0.0800 
    140 H140        3.4713  -20.9702  -49.2915 H         1 UNK         0.0800 
    141 H141        0.1014  -20.5336  -48.1486 H         1 UNK         0.0800 
    142 H142        1.7184  -20.9337  -47.6385 H         1 UNK         0.0800 
    143 H143        0.9935  -23.3643  -47.3783 H         1 UNK         0.0600 
    144 H144        0.5900  -21.2510  -45.5585 H         1 UNK         0.3000 
    145 H145       -0.4153  -23.2708  -42.7545 H         1 UNK         0.0600 
    146 H146        1.5136  -22.0544  -41.8051 H         1 UNK         0.0600 
    147 H147        2.0826  -23.2854  -42.9219 H         1 UNK         0.0600 
    148 H148        2.0648  -21.5961  -43.4149 H         1 UNK         0.0600 
    149 H149       -0.1151  -20.4680  -42.9572 H         1 UNK         0.3000 
    150 H150       -3.4945  -19.7112  -43.9676 H         1 UNK         0.0600 
    151 H151       -3.1932  -18.2713  -41.9563 H         1 UNK         0.0600 
    152 H152       -3.4380  -19.9504  -41.4968 H         1 UNK         0.0600 
    153 H153       -1.8252  -19.2535  -41.4375 H         1 UNK         0.0600 
    154 H154       -1.2916  -17.9811  -43.5734 H         1 UNK         0.3000 
    155 H155        0.0237  -18.0573  -46.9002 H         1 UNK         0.0600 
    156 H156       -1.5601  -16.0109  -45.2533 H         1 UNK         0.0600 
    157 H157       -1.7584  -16.3934  -46.9552 H         1 UNK         0.0600 
    158 H158       -0.3010  -15.5842  -46.4020 H         1 UNK         0.0600 
    159 H159        0.7831  -16.7667  -44.4280 H         1 UNK         0.3000 
    160 H160        3.1183  -19.2389  -43.3769 H         1 UNK         0.0600 
    161 H161        3.5634  -16.5046  -44.6947 H         1 UNK         0.0600 
    162 H162        4.3850  -18.0030  -45.1035 H         1 UNK         0.0600 
    163 H163        4.6517  -17.2610  -43.5321 H         1 UNK         0.0600 
    164 H164        2.3905  -16.5972  -42.4684 H         1 UNK         0.3000 
    165 H165       -0.3205  -17.6084  -40.3842 H         1 UNK         0.0600 
    166 H166        1.0705  -16.7294  -38.5285 H         1 UNK         0.0600 
    167 H167        1.6281  -18.3293  -38.9908 H         1 UNK         0.0600 
    168 H168        2.5319  -16.9081  -39.5009 H         1 UNK         0.0600 
    169 H169        1.1185  -15.1613  -40.5446 H         1 UNK         0.3000 
    170 H170        0.0153  -13.9118  -43.5780 H         1 UNK         0.0600 
    171 H171       -2.1560  -13.5372  -42.3905 H         1 UNK         0.0600 
    172 H172       -1.2851  -13.0466  -40.9419 H         1 UNK         0.0600 
    173 H173       -1.1726  -12.0828  -42.4161 H         1 UNK         0.0600 
    174 H174        1.0942  -12.3973  -41.5346 H         1 UNK         0.3000 
    175 H175        3.4405  -12.5782  -40.7381 H         1 UNK         0.0600 
    176 H176        5.2083  -13.5068  -43.0728 H         1 UNK         0.0600 
    177 H177        5.7696  -12.6833  -41.6188 H         1 UNK         0.0600 
    178 H178        5.0953  -14.3006  -41.5055 H         1 UNK         0.0600 
    179 H179        3.0269  -11.5377  -43.4352 H         1 UNK         0.3000 
    180 H180        3.4207   -8.2406  -42.4250 H         1 UNK         0.0600 
    181 H181        5.6582   -9.4789  -44.1165 H         1 UNK         0.0600 
    182 H182        5.8868   -8.4779  -42.6879 H         1 UNK         0.0600 
    183 H183        5.1707   -7.7832  -44.1323 H         1 UNK         0.0600 
    184 H184        3.3941   -9.5124  -45.0417 H         1 UNK         0.3000 
    185 H185       -0.0544  -10.0951  -45.1757 H         1 UNK         0.0600 
    186 H186       -0.0851   -7.6170  -45.5452 H         1 UNK         0.0600 
    187 H187        1.3621   -7.7441  -46.5380 H         1 UNK         0.0600 
    188 H188       -0.1439   -8.5000  -47.0614 H         1 UNK         0.0600 
    189 H189        1.6449  -10.1496  -47.3412 H         1 UNK         0.3000 
    190 H190       -1.9596  -21.3718  -46.7817 H         1 UNK         0.3000 
    191 H191       -3.6412  -22.6689  -48.6356 H         1 UNK         0.0600 
    192 H192       -4.1857  -20.4870  -47.6130 H         1 UNK         0.0600 
    193 H193       -5.4834  -21.6289  -47.2965 H         1 UNK         0.0600 
    194 H194       -4.3365  -21.2295  -46.0221 H         1 UNK         0.0600 
    195 H195       -3.0059  -23.4580  -45.1817 H         1 UNK         0.3000 
    196 H196       -4.8659  -25.5997  -44.9872 H         1 UNK         0.0600 
    197 H197       -3.5225  -26.2262  -42.9716 H         1 UNK         0.0600 
    198 H198       -3.8835  -24.5070  -43.0035 H         1 UNK         0.0600 
    199 H199       -2.2743  -25.0768  -43.4380 H         1 UNK         0.0600 
    200 H200       -1.3662  -25.5904  -45.8294 H         1 UNK         0.3000 
    201 H201       -1.1097  -28.4091  -46.1307 H         1 UNK         0.0600 
    202 H202        0.8189  -26.9180  -45.7226 H         1 UNK         0.0600 
    203 H203        0.5701  -26.1129  -47.2700 H         1 UNK         0.0600 
    204 H204        1.0612  -27.8030  -47.2214 H         1 UNK         0.0600 
    205 H205       -1.7506  -25.8168  -48.5268 H         1 UNK         0.3000 
    206 H206       -1.7680  -27.6664  -50.7821 H         1 UNK         0.0600 
    207 H207       -0.8209  -25.3500  -50.9010 H         1 UNK         0.0600 
    208 H208       -2.1011  -25.5914  -52.0772 H         1 UNK         0.0600 
    209 H209       -2.4253  -24.6873  -50.5994 H         1 UNK         0.0600 
    210 H210       -4.1003  -27.0454  -48.4819 H         1 UNK         0.3000 
    211 H211       -6.2937  -27.2867  -48.2523 H         1 UNK         0.0600 
    212 H212       -6.1828  -28.9413  -50.8332 H         1 UNK         0.0600 
    213 H213       -7.4771  -28.9600  -49.6439 H         1 UNK         0.0600 
    214 H214       -5.8813  -29.5506  -49.2070 H         1 UNK         0.0600 
    215 H215       -5.7905  -24.9249  -48.8949 H         1 UNK         0.3000 
    216 H216       -6.5418  -22.9693  -49.5082 H         1 UNK         0.0600 
    217 H217       -8.7497  -22.5869  -50.4874 H         1 UNK         0.0600 
    218 H218       -8.8790  -23.8547  -49.2802 H         1 UNK         0.0600 
    219 H219       -8.8848  -24.2603  -50.9971 H         1 UNK         0.0600 
    220 H220       -5.3521  -25.1499  -51.6817 H         1 UNK         0.3000 
    221 H221       -4.0938  -25.0388  -53.4793 H         1 UNK         0.0600 
    222 H222       -3.9908  -21.9950  -53.1378 H         1 UNK         0.0600 
    223 H223       -3.0692  -23.1008  -52.1298 H         1 UNK         0.0600 
    224 H224       -2.7686  -23.0356  -53.8554 H         1 UNK         0.0600 
    225 H225       -7.1349  -24.1956  -53.7464 H         1 UNK         0.3000 
    226 H226       -8.6567  -23.5202  -55.2162 H         1 UNK         0.0600 
    227 H227       -7.6893  -25.2247  -56.7813 H         1 UNK         0.0600 
    228 H228       -8.3540  -23.8408  -57.6343 H         1 UNK         0.0600 
    229 H229       -6.6144  -23.9995  -57.4530 H         1 UNK         0.0600 
    230 H230       -7.2577  -21.6827  -53.7950 H         1 UNK         0.3000 
    231 H231       -7.1144  -19.5585  -53.3914 H         1 UNK         0.0600 
    232 H232       -7.9838  -18.8665  -56.2446 H         1 UNK         0.0600 
    233 H233       -7.8839  -17.7675  -54.8808 H         1 UNK         0.0600 
    234 H234       -9.0646  -19.0686  -54.8652 H         1 UNK         0.0600 
    235 H235       -5.7038  -20.3966  -56.5361 H         1 UNK         0.3000 
    236 H236       -3.7476  -20.0319  -57.5399 H         1 UNK         0.0600 
    237 H237       -2.9383  -21.5474  -55.8040 H         1 UNK         0.0600 
    238 H238       -1.6940  -20.3583  -56.1146 H         1 UNK         0.0600 
    239 H239       -2.6912  -20.2312  -54.6644 H         1 UNK         0.0600 
    240 H240       -2.0239  -18.3386  -55.1151 H         1 UNK         0.3000 
    241 H241       -1.8849  -15.9062  -56.6747 H         1 UNK         0.0600 
    242 H242       -4.2303  -16.8574  -54.2993 H         1 UNK         0.3800 
    243 H243       -4.7161  -15.2268  -53.8992 H         1 UNK         0.3800 
    244 H244       -0.2444  -15.1702  -54.9411 H         1 UNK         0.0800 
    245 H245        0.1552  -16.6885  -55.6886 H         1 UNK         0.0800 
    246 H246        1.7863  -16.0775  -53.3362 H         1 UNK         0.0800 
    247 H247        1.7897  -17.7140  -53.9533 H         1 UNK         0.0800 
@<TRIPOS>BOND
     1    1    2 1    
     2    1  127 1    
     3    1  128 1    
     4    1  129 1    
     5    2    3 2    
     6    2    4 am   BACKBONE|DICT|INTERRES
     7    4    5 1    
     8    4  130 1    
     9    5    6 1    
    10    5   65 1    
    11    5  131 1    
    12    6    7 1    
    13    6  132 1    
    14    6  133 1    
    15    7    8 1    
    16    8    9 1    
    17    8  134 1    
    18    8  135 1    
    19    9   10 ar   
    20    9   14 ar   
    21   10   11 ar   
    22   10  136 1    
    23   11   12 ar   
    24   11  126 1    
    25   12   13 ar   
    26   12  137 1    
    27   13   14 ar   
    28   13   15 1    
    29   14  138 1    
    30   15   16 1    
    31   15  139 1    
    32   15  140 1    
    33   16   17 1    
    34   17   18 1    
    35   17  141 1    
    36   17  142 1    
    37   18   19 1    
    38   18   67 1    
    39   18  143 1    
    40   19   20 am   BACKBONE|DICT|INTERRES
    41   19  144 1    
    42   20   21 2    
    43   20   22 1    
    44   22   23 1    
    45   22   24 1    
    46   22  145 1    
    47   23  146 1    
    48   23  147 1    
    49   23  148 1    
    50   24   25 am   BACKBONE|DICT|INTERRES
    51   24  149 1    
    52   25   26 2    
    53   25   27 1    
    54   27   28 1    
    55   27   29 1    
    56   27  150 1    
    57   28  151 1    
    58   28  152 1    
    59   28  153 1    
    60   29   30 am   BACKBONE|DICT|INTERRES
    61   29  154 1    
    62   30   31 2    
    63   30   32 1    
    64   32   33 1    
    65   32   34 1    
    66   32  155 1    
    67   33  156 1    
    68   33  157 1    
    69   33  158 1    
    70   34   35 am   BACKBONE|DICT|INTERRES
    71   34  159 1    
    72   35   36 2    
    73   35   37 1    
    74   37   38 1    
    75   37   39 1    
    76   37  160 1    
    77   38  161 1    
    78   38  162 1    
    79   38  163 1    
    80   39   40 am   BACKBONE|DICT|INTERRES
    81   39  164 1    
    82   40   41 2    
    83   40   42 1    
    84   42   43 1    
    85   42   44 1    
    86   42  165 1    
    87   43  166 1    
    88   43  167 1    
    89   43  168 1    
    90   44   45 am   BACKBONE|DICT|INTERRES
    91   44  169 1    
    92   45   46 2    
    93   45   47 1    
    94   47   48 1    
    95   47   49 1    
    96   47  170 1    
    97   48  171 1    
    98   48  172 1    
    99   48  173 1    
   100   49   50 am   BACKBONE|DICT|INTERRES
   101   49  174 1    
   102   50   51 2    
   103   50   52 1    
   104   52   53 1    
   105   52   54 1    
   106   52  175 1    
   107   53  176 1    
   108   53  177 1    
   109   53  178 1    
   110   54   55 am   BACKBONE|DICT|INTERRES
   111   54  179 1    
   112   55   56 2    
   113   55   57 1    
   114   57   58 1    
   115   57   59 1    
   116   57  180 1    
   117   58  181 1    
   118   58  182 1    
   119   58  183 1    
   120   59   60 am   BACKBONE|DICT|INTERRES
   121   59  184 1    
   122   60   61 2    
   123   60   62 1    
   124   62   63 1    
   125   62   64 1    
   126   62  185 1    
   127   63  186 1    
   128   63  187 1    
   129   63  188 1    
   130   64   65 am   BACKBONE|DICT|INTERRES
   131   64  189 1    
   132   65   66 2    
   133   67   68 2    
   134   67   69 am   BACKBONE|DICT|INTERRES
   135   69   70 1    
   136   69  190 1    
   137   70   71 1    
   138   70   72 1    
   139   70  191 1    
   140   71  192 1    
   141   71  193 1    
   142   71  194 1    
   143   72   73 2    
   144   72   74 am   BACKBONE|DICT|INTERRES
   145   74   75 1    
   146   74  195 1    
   147   75   76 1    
   148   75   77 1    
   149   75  196 1    
   150   76  197 1    
   151   76  198 1    
   152   76  199 1    
   153   77   78 2    
   154   77   79 am   BACKBONE|DICT|INTERRES
   155   79   80 1    
   156   79  200 1    
   157   80   81 1    
   158   80   82 1    
   159   80  201 1    
   160   81  202 1    
   161   81  203 1    
   162   81  204 1    
   163   82   83 2    
   164   82   84 am   BACKBONE|DICT|INTERRES
   165   84   85 1    
   166   84  205 1    
   167   85   86 1    
   168   85   87 1    
   169   85  206 1    
   170   86  207 1    
   171   86  208 1    
   172   86  209 1    
   173   87   88 2    
   174   87   89 am   BACKBONE|DICT|INTERRES
   175   89   90 1    
   176   89  210 1    
   177   90   91 1    
   178   90   92 1    
   179   90  211 1    
   180   91  212 1    
   181   91  213 1    
   182   91  214 1    
   183   92   93 2    
   184   92   94 am   BACKBONE|DICT|INTERRES
   185   94   95 1    
   186   94  215 1    
   187   95   96 1    
   188   95   97 1    
   189   95  216 1    
   190   96  217 1    
   191   96  218 1    
   192   96  219 1    
   193   97   98 2    
   194   97   99 am   BACKBONE|DICT|INTERRES
   195   99  100 1    
   196   99  220 1    
   197  100  101 1    
   198  100  102 1    
   199  100  221 1    
   200  101  222 1    
   201  101  223 1    
   202  101  224 1    
   203  102  103 2    
   204  102  104 am   BACKBONE|DICT|INTERRES
   205  104  105 1    
   206  104  225 1    
   207  105  106 1    
   208  105  107 1    
   209  105  226 1    
   210  106  227 1    
   211  106  228 1    
   212  106  229 1    
   213  107  108 2    
   214  107  109 am   BACKBONE|DICT|INTERRES
   215  109  110 1    
   216  109  230 1    
   217  110  111 1    
   218  110  112 1    
   219  110  231 1    
   220  111  232 1    
   221  111  233 1    
   222  111  234 1    
   223  112  113 2    
   224  112  114 am   BACKBONE|DICT|INTERRES
   225  114  115 1    
   226  114  235 1    
   227  115  116 1    
   228  115  117 1    
   229  115  236 1    
   230  116  237 1    
   231  116  238 1    
   232  116  239 1    
   233  117  118 2    
   234  117  119 am   BACKBONE|DICT|INTERRES
   235  119  120 1    
   236  119  240 1    
   237  120  121 1    
   238  120  124 1    
   239  120  241 1    
   240  121  122 am   BACKBONE|DICT|INTERRES
   241  121  123 2    
   242  122  242 1    
   243  122  243 1    
   244  124  125 1    
   245  124  244 1    
   246  124  245 1    
   247  125  126 1    
   248  126  246 1    
   249  126  247 1    
@<TRIPOS>SUBSTRUCTURE
     1 UNK         1 GROUP             0       ****    0 ROOT    
