@<TRIPOS>MOLECULE
3R540
247   249    1
SMALL
USER_CHARGES


@<TRIPOS>ATOM
      1 CA          7.1398  -11.8291  -46.2736 C.3       0 UNK        -0.1800 
      2 C           5.7356  -12.4070  -46.3704 C.2       0 UNK         0.5000 
      3 O           4.8344  -11.9447  -45.6728 O.2       0 UNK        -0.5000 
      4 N           5.5422  -13.4151  -47.2299 N.am      1 UNK        -0.5000 
      5 CA          4.2541  -14.0686  -47.4863 C.3       1 UNK         0.1400 
      6 C6          4.4398  -15.3140  -48.3857 C.3       23 UNK        -0.0398 
      7 S7          3.0160  -16.4543  -48.3383 S.3       23 UNK        -0.2404 
      8 C8          2.3438  -16.1917  -50.0077 C.3       23 UNK        -0.0205 
      9 C9          1.0726  -16.9925  -50.2262 C.ar      23 UNK        -0.0193 
     10 C10        -0.1736  -16.3624  -50.2241 C.ar      23 UNK        -0.1150 
     11 C11        -1.3381  -17.0992  -50.4536 C.ar      23 UNK        -0.0193 
     12 C12        -1.2519  -18.4804  -50.6502 C.ar      23 UNK        -0.1150 
     13 C13        -0.0126  -19.1279  -50.6466 C.ar      23 UNK        -0.0193 
     14 C14         1.1476  -18.3680  -50.4532 C.ar      23 UNK        -0.1150 
     15 C15         0.0421  -20.6398  -50.8695 C.3       23 UNK        -0.0205 
     16 S16         1.4357  -21.4842  -50.0395 S.3       23 UNK        -0.2404 
     17 C17         1.1135  -21.0672  -48.2903 C.3       23 UNK        -0.0398 
     18 CA          0.6872  -22.2753  -47.4277 C.3       11 UNK         0.1400 
     19 N           0.6645  -21.9307  -46.0063 N.am      11 UNK        -0.5000 
     20 C           0.4789  -22.8013  -45.0048 C.2       10 UNK         0.5000 
     21 O           0.3760  -24.0179  -45.1622 O.2       10 UNK        -0.5000 
     22 CA          0.3240  -22.2017  -43.5961 C.3       10 UNK         0.1400 
     23 CB          1.6945  -21.8679  -42.9888 C.3       10 UNK        -0.1800 
     24 N          -0.5263  -21.0092  -43.5922 N.am      10 UNK        -0.5000 
     25 C          -1.8263  -21.0104  -43.9216 C.2       9 UNK         0.5000 
     26 O          -2.4553  -22.0315  -44.1992 O.2       9 UNK        -0.5000 
     27 CA         -2.5343  -19.6451  -43.9939 C.3       9 UNK         0.1400 
     28 CB         -2.9447  -19.1695  -42.5928 C.3       9 UNK        -0.1800 
     29 N          -1.7243  -18.6163  -44.6486 N.am      9 UNK        -0.5000 
     30 C          -1.3462  -18.6446  -45.9349 C.2       8 UNK         0.5000 
     31 O          -1.6746  -19.5313  -46.7206 O.2       8 UNK        -0.5000 
     32 CA         -0.3972  -17.5287  -46.4110 C.3       8 UNK         0.1400 
     33 CB         -1.1677  -16.2436  -46.7449 C.3       8 UNK        -0.1800 
     34 N           0.6483  -17.2366  -45.4307 N.am      8 UNK        -0.5000 
     35 C           1.6029  -18.1063  -45.0698 C.2       7 UNK         0.5000 
     36 O           1.7292  -19.2299  -45.5570 O.2       7 UNK        -0.5000 
     37 CA          2.5321  -17.6658  -43.9267 C.3       7 UNK         0.1400 
     38 CB          3.6394  -16.7366  -44.4436 C.3       7 UNK        -0.1800 
     39 N           1.7932  -17.0011  -42.8525 N.am      7 UNK        -0.5000 
     40 C           0.9351  -17.6263  -42.0332 C.2       6 UNK         0.5000 
     41 O           0.7064  -18.8343  -42.0780 O.2       6 UNK        -0.5000 
     42 CA          0.1736  -16.7506  -41.0214 C.3       6 UNK         0.1400 
     43 CB          1.0057  -16.5528  -39.7459 C.3       6 UNK        -0.1800 
     44 N          -0.1985  -15.4434  -41.5638 N.am      6 UNK        -0.5000 
     45 C          -1.0397  -15.2512  -42.5904 C.2       5 UNK         0.5000 
     46 O          -1.6192  -16.1634  -43.1767 O.2       5 UNK        -0.5000 
     47 CA         -1.2291  -13.8009  -43.0717 C.3       5 UNK         0.1400 
     48 CB         -2.4253  -13.1487  -42.3639 C.3       5 UNK        -0.1800 
     49 N          -0.0365  -12.9746  -42.8706 N.am      5 UNK        -0.5000 
     50 C           1.1277  -13.1656  -43.5023 C.2       4 UNK         0.5000 
     51 O           1.3107  -14.0420  -44.3525 O.2       4 UNK        -0.5000 
     52 CA          2.2736  -12.2153  -43.1208 C.3       4 UNK         0.1400 
     53 CB          3.5712  -12.9934  -42.8460 C.3       4 UNK        -0.1800 
     54 N           2.4853  -11.2775  -44.2152 N.am      4 UNK        -0.5000 
     55 C           1.7311  -10.1944  -44.4461 C.2       3 UNK         0.5000 
     56 O           0.9108   -9.7458  -43.6442 O.2       3 UNK        -0.5000 
     57 CA          1.8606   -9.5619  -45.8439 C.3       3 UNK         0.1400 
     58 CB          3.1799   -8.7902  -46.0019 C.3       3 UNK        -0.1800 
     59 N           1.7540  -10.5930  -46.8773 N.am      3 UNK        -0.5000 
     60 C           0.6239  -11.2531  -47.1688 C.2       2 UNK         0.5000 
     61 O          -0.4823  -10.9267  -46.7376 O.2       2 UNK        -0.5000 
     62 CA          0.7382  -12.5211  -48.0351 C.3       2 UNK         0.1400 
     63 CB          0.5917  -12.2040  -49.5362 C.3       2 UNK        -0.1800 
     64 N           1.9336  -13.3219  -47.7366 N.am      2 UNK        -0.5000 
     65 C           3.2111  -13.0809  -48.0604 C.2       1 UNK         0.5000 
     66 O           3.5788  -12.1242  -48.7462 O.2       1 UNK        -0.5000 
     67 C          -0.6564  -22.8809  -47.8849 C.2       11 UNK         0.5000 
     68 O          -0.6524  -23.9375  -48.5126 O.2       11 UNK        -0.5000 
     69 N          -1.7777  -22.2403  -47.5232 N.am      12 UNK        -0.5000 
     70 CA         -3.1363  -22.7115  -47.7989 C.3       12 UNK         0.1400 
     71 CB         -4.1551  -21.6821  -47.2871 C.3       12 UNK        -0.1800 
     72 C          -3.4281  -24.0979  -47.1995 C.2       12 UNK         0.5000 
     73 O          -4.0149  -24.9391  -47.8807 O.2       12 UNK        -0.5000 
     74 N          -2.9852  -24.3217  -45.9548 N.am      13 UNK        -0.5000 
     75 CA         -3.0749  -25.6065  -45.2636 C.3       13 UNK         0.1400 
     76 CB         -2.6690  -25.4334  -43.7921 C.3       13 UNK        -0.1800 
     77 C          -2.2350  -26.7000  -45.9481 C.2       13 UNK         0.5000 
     78 O          -2.7509  -27.7904  -46.1957 O.2       13 UNK        -0.5000 
     79 N          -0.9763  -26.3784  -46.2811 N.am      14 UNK        -0.5000 
     80 CA         -0.0441  -27.2670  -46.9815 C.3       14 UNK         0.1400 
     81 CB          1.3500  -26.6224  -47.0126 C.3       14 UNK        -0.1800 
     82 C          -0.5054  -27.6328  -48.4056 C.2       14 UNK         0.5000 
     83 O          -0.3410  -28.7788  -48.8248 O.2       14 UNK        -0.5000 
     84 N          -1.1018  -26.6619  -49.1082 N.am      15 UNK        -0.5000 
     85 CA         -1.6765  -26.8115  -50.4451 C.3       15 UNK         0.1400 
     86 CB         -1.7807  -25.4219  -51.0934 C.3       15 UNK        -0.1800 
     87 C          -3.0503  -27.5121  -50.4571 C.2       15 UNK         0.5000 
     88 O          -3.5752  -27.7637  -51.5413 O.2       15 UNK        -0.5000 
     89 N          -3.6222  -27.7933  -49.2762 N.am      16 UNK        -0.5000 
     90 CA         -4.9383  -28.4008  -49.0541 C.3       16 UNK         0.1400 
     91 CB         -4.9575  -29.8662  -49.5371 C.3       16 UNK        -0.1800 
     92 C          -6.0791  -27.5453  -49.6439 C.2       16 UNK         0.5000 
     93 O          -6.9181  -28.0478  -50.3929 O.2       16 UNK        -0.5000 
     94 N          -6.0564  -26.2515  -49.2967 N.am      17 UNK        -0.5000 
     95 CA         -6.9884  -25.1818  -49.6676 C.3       17 UNK         0.1400 
     96 CB         -8.4545  -25.5522  -49.3622 C.3       17 UNK        -0.1800 
     97 C          -6.8080  -24.6312  -51.0958 C.2       17 UNK         0.5000 
     98 O          -7.4958  -23.6725  -51.4510 O.2       17 UNK        -0.5000 
     99 N          -5.8555  -25.1633  -51.8761 N.am      18 UNK        -0.5000 
    100 CA        -5.4499  -24.6303  -53.1824 C.3       18 UNK         0.1400 
    101 CB        -4.8576  -25.7658  -54.0346 C.3       18 UNK        -0.1800 
    102 C         -4.4792  -23.4414  -53.0091 C.2       18 UNK         0.5000 
    103 O         -3.3435  -23.4778  -53.4857 O.2       18 UNK        -0.5000 
    104 N         -4.9378  -22.4176  -52.2812 N.am      19 UNK        -0.5000 
    105 CA        -4.1788  -21.2622  -51.8072 C.3       19 UNK         0.1400 
    106 CB        -4.9416  -20.6602  -50.6154 C.3       19 UNK        -0.1800 
    107 C         -3.8981  -20.2209  -52.9098 C.2       19 UNK         0.5000 
    108 O         -4.2700  -19.0567  -52.7620 O.2       19 UNK        -0.5000 
    109 N         -3.2406  -20.6569  -53.9926 N.am      20 UNK        -0.5000 
    110 CA        -2.8437  -19.8711  -55.1645 C.3       20 UNK         0.1400 
    111 CB        -1.7043  -18.8943  -54.7922 C.3       20 UNK        -0.1800 
    112 C         -4.0608  -19.1934  -55.8303 C.2       20 UNK         0.5000 
    113 O         -4.8262  -19.8730  -56.5163 O.2       20 UNK        -0.5000 
    114 N         -4.2317  -17.8890  -55.5930 N.am      21 UNK        -0.5000 
    115 CA        -5.3840  -17.0895  -56.0031 C.3       21 UNK         0.1400 
    116 CB        -5.0681  -16.3757  -57.3309 C.3       21 UNK        -0.1800 
    117 C         -5.7766  -16.1207  -54.8705 C.2       21 UNK         0.5000 
    118 O         -6.1671  -14.9824  -55.1364 O.2       21 UNK        -0.5000 
    119 N         -5.6374  -16.5771  -53.6218 N.am      22 UNK        -0.5000 
    120 CA        -5.8256  -15.7944  -52.3942 C.3       22 UNK         0.1400 
    121 C         -6.3707  -16.6703  -51.2282 C.2       22 UNK         0.5000 
    122 N         -6.3111  -16.2068  -49.9859 N.am      22 UNK        -0.7600 
    123 O         -6.9152  -17.7517  -51.4378 O.2       22 UNK        -0.5000 
    124 C124       -4.5764  -14.9252  -52.0513 C.3       23 UNK        -0.0398 
    125 S125       -2.9693  -15.7816  -52.2123 S.3       23 UNK        -0.2404 
    126 C126       -2.6824  -16.3950  -50.5262 C.3       23 UNK        -0.0205 
    127 H127        7.5155  -11.9279  -45.2553 H         1 UNK         0.0600 
    128 H128        7.8344  -12.3353  -46.9443 H         1 UNK         0.0600 
    129 H129        7.1264  -10.7703  -46.5321 H         1 UNK         0.0600 
    130 H130        6.3161  -13.7291  -47.7973 H         1 UNK         0.3000 
    131 H131        3.8883  -14.4011  -46.5138 H         1 UNK         0.0600 
    132 H132        5.3016  -15.8881  -48.0423 H         1 UNK         0.0800 
    133 H133        4.6686  -15.0247  -49.4132 H         1 UNK         0.0800 
    134 H134        3.0884  -16.4852  -50.7492 H         1 UNK         0.0800 
    135 H135        2.1546  -15.1289  -50.1633 H         1 UNK         0.0800 
    136 H136       -0.2394  -15.2956  -50.0672 H         1 UNK         0.1150 
    137 H137       -2.1542  -19.0473  -50.8227 H         1 UNK         0.1150 
    138 H138        2.1183  -18.8421  -50.4644 H         1 UNK         0.1150 
    139 H139       -0.8857  -21.1009  -50.5274 H         1 UNK         0.0800 
    140 H140        0.1058  -20.8295  -51.9416 H         1 UNK         0.0800 
    141 H141        0.3752  -20.2689  -48.2193 H         1 UNK         0.0800 
    142 H142        2.0373  -20.6444  -47.8930 H         1 UNK         0.0800 
    143 H143        1.4469  -23.0506  -47.5479 H         1 UNK         0.0600 
    144 H144        0.7870  -20.9482  -45.7792 H         1 UNK         0.3000 
    145 H145       -0.1525  -22.9549  -42.9653 H         1 UNK         0.0600 
    146 H146        1.5947  -21.5234  -41.9594 H         1 UNK         0.0600 
    147 H147        2.3409  -22.7463  -42.9767 H         1 UNK         0.0600 
    148 H148        2.2077  -21.0889  -43.5532 H         1 UNK         0.0600 
    149 H149       -0.0876  -20.1370  -43.3122 H         1 UNK         0.3000 
    150 H150       -3.4432  -19.7743  -44.5846 H         1 UNK         0.0600 
    151 H151       -3.5772  -19.9085  -42.0995 H         1 UNK         0.0600 
    152 H152       -3.5098  -18.2385  -42.6423 H         1 UNK         0.0600 
    153 H153       -2.0776  -19.0009  -41.9544 H         1 UNK         0.0600 
    154 H154       -1.4670  -17.8126  -44.0818 H         1 UNK         0.3000 
    155 H155        0.0886  -17.8753  -47.3260 H         1 UNK         0.0600 
    156 H156       -1.9534  -16.4416  -47.4746 H         1 UNK         0.0600 
    157 H157       -0.5054  -15.4936  -47.1759 H         1 UNK         0.0600 
    158 H158       -1.6404  -15.8109  -45.8634 H         1 UNK         0.0600 
    159 H159        0.6107  -16.3379  -44.9696 H         1 UNK         0.3000 
    160 H160        3.0045  -18.5608  -43.5162 H         1 UNK         0.0600 
    161 H161        3.2282  -15.8076  -44.8345 H         1 UNK         0.0600 
    162 H162        4.2042  -17.2098  -45.2479 H         1 UNK         0.0600 
    163 H163        4.3454  -16.4838  -43.6525 H         1 UNK         0.0600 
    164 H164        1.8914  -15.9990  -42.7840 H         1 UNK         0.3000 
    165 H165       -0.7449  -17.2759  -40.7520 H         1 UNK         0.0600 
    166 H166        0.4446  -16.0027  -38.9902 H         1 UNK         0.0600 
    167 H167        1.2824  -17.5129  -39.3081 H         1 UNK         0.0600 
    168 H168        1.9276  -16.0050  -39.9456 H         1 UNK         0.0600 
    169 H169        0.2283  -14.6347  -41.1371 H         1 UNK         0.3000 
    170 H170       -1.4408  -13.8333  -44.1426 H         1 UNK         0.0600 
    171 H171       -3.3342  -13.7325  -42.5163 H         1 UNK         0.0600 
    172 H172       -2.2632  -13.0678  -41.2883 H         1 UNK         0.0600 
    173 H173       -2.6149  -12.1477  -42.7520 H         1 UNK         0.0600 
    174 H174       -0.1214  -12.2074  -42.2188 H         1 UNK         0.3000 
    175 H175        2.0102  -11.6664  -42.2143 H         1 UNK         0.0600 
    176 H176        3.8888  -13.5762  -43.7113 H         1 UNK         0.0600 
    177 H177        4.3860  -12.3178  -42.5851 H         1 UNK         0.0600 
    178 H178        3.4420  -13.6865  -42.0140 H         1 UNK         0.0600 
    179 H179        3.1792  -11.5547  -44.9057 H         1 UNK         0.3000 
    180 H180        1.0388   -8.8543  -45.9730 H         1 UNK         0.0600 
    181 H181        4.0493   -9.4398  -45.9052 H         1 UNK         0.0600 
    182 H182        3.2671   -8.0115  -45.2433 H         1 UNK         0.0600 
    183 H183        3.2349   -8.3031  -46.9755 H         1 UNK         0.0600 
    184 H184        2.6161  -10.9215  -47.2962 H         1 UNK         0.3000 
    185 H185       -0.1048  -13.1566  -47.7604 H         1 UNK         0.0600 
    186 H186        0.6922  -13.1008  -50.1460 H         1 UNK         0.0600 
    187 H187       -0.3906  -11.7782  -49.7440 H         1 UNK         0.0600 
    188 H188        1.3323  -11.4809  -49.8779 H         1 UNK         0.0600 
    189 H189        1.7556  -14.1153  -47.1352 H         1 UNK         0.3000 
    190 H190       -1.7003  -21.3439  -47.0471 H         1 UNK         0.3000 
    191 H191       -3.2410  -22.7909  -48.8827 H         1 UNK         0.0600 
    192 H192       -4.0953  -21.5556  -46.2071 H         1 UNK         0.0600 
    193 H193       -5.1747  -21.9917  -47.5195 H         1 UNK         0.0600 
    194 H194       -3.9954  -20.7053  -47.7432 H         1 UNK         0.0600 
    195 H195       -2.5611  -23.5537  -45.4424 H         1 UNK         0.3000 
    196 H196       -4.1190  -25.9253  -45.2893 H         1 UNK         0.0600 
    197 H197       -2.7503  -26.3769  -43.2510 H         1 UNK         0.0600 
    198 H198       -3.3137  -24.7125  -43.2891 H         1 UNK         0.0600 
    199 H199       -1.6409  -25.0851  -43.6931 H         1 UNK         0.0600 
    200 H200       -0.6194  -25.4624  -46.0225 H         1 UNK         0.3000 
    201 H201        0.0234  -28.1941  -46.4086 H         1 UNK         0.0600 
    202 H202        1.7207  -26.4369  -46.0044 H         1 UNK         0.0600 
    203 H203        1.3408  -25.6708  -47.5451 H         1 UNK         0.0600 
    204 H204        2.0709  -27.2718  -47.5106 H         1 UNK         0.0600 
    205 H205       -1.1241  -25.7227  -48.7156 H         1 UNK         0.3000 
    206 H206       -0.9971  -27.4172  -51.0479 H         1 UNK         0.0600 
    207 H207       -0.8148  -24.9168  -51.1076 H         1 UNK         0.0600 
    208 H208       -2.1157  -25.4982  -52.1276 H         1 UNK         0.0600 
    209 H209       -2.4867  -24.7814  -50.5629 H         1 UNK         0.0600 
    210 H210       -3.1215  -27.5279  -48.4374 H         1 UNK         0.3000 
    211 H211       -5.0904  -28.4109  -47.9737 H         1 UNK         0.0600 
    212 H212       -4.8507  -29.9414  -50.6196 H         1 UNK         0.0600 
    213 H213       -5.8959  -30.3519  -49.2677 H         1 UNK         0.0600 
    214 H214       -4.1518  -30.4408  -49.0801 H         1 UNK         0.0600 
    215 H215       -5.2768  -25.9335  -48.7208 H         1 UNK         0.3000 
    216 H216       -6.7301  -24.3513  -49.0087 H         1 UNK         0.0600 
    217 H217       -9.1031  -24.6808  -49.4584 H         1 UNK         0.0600 
    218 H218       -8.5647  -25.9258  -48.3441 H         1 UNK         0.0600 
    219 H219       -8.8354  -26.3119  -50.0447 H         1 UNK         0.0600 
    220 H220       -5.3185  -25.9425  -51.5203 H         1 UNK         0.3000 
    221 H221       -6.3318  -24.2566  -53.7069 H         1 UNK         0.0600 
    222 H222       -3.9366  -26.1586  -53.6051 H         1 UNK         0.0600 
    223 H223       -5.5601  -26.5935  -54.1332 H         1 UNK         0.0600 
    224 H224       -4.6241  -25.4154  -55.0406 H         1 UNK         0.0600 
    225 H225       -5.8984  -22.4787  -51.9618 H         1 UNK         0.3000 
    226 H226       -3.2124  -21.6151  -51.4418 H         1 UNK         0.0600 
    227 H227       -5.1523  -21.4173  -49.8627 H         1 UNK         0.0600 
    228 H228       -4.3690  -19.8648  -50.1372 H         1 UNK         0.0600 
    229 H229       -5.8976  -20.2370  -50.9255 H         1 UNK         0.0600 
    230 H230       -3.0360  -21.6518  -54.0322 H         1 UNK         0.3000 
    231 H231       -2.4463  -20.5774  -55.8948 H         1 UNK         0.0600 
    232 H232       -0.8269  -19.4391  -54.4433 H         1 UNK         0.0600 
    233 H233       -1.9891  -18.2004  -54.0007 H         1 UNK         0.0600 
    234 H234       -1.3938  -18.3050  -55.6559 H         1 UNK         0.0600 
    235 H235       -3.5830  -17.4291  -54.9680 H         1 UNK         0.3000 
    236 H236       -6.2475  -17.7396  -56.1578 H         1 UNK         0.0600 
    237 H237       -5.9271  -15.8046  -57.6852 H         1 UNK         0.0600 
    238 H238       -4.2316  -15.6842  -57.2235 H         1 UNK         0.0600 
    239 H239       -4.8128  -17.0919  -58.1120 H         1 UNK         0.0600 
    240 H240       -5.3165  -17.5291  -53.4596 H         1 UNK         0.3000 
    241 H241       -6.6496  -15.1035  -52.5811 H         1 UNK         0.0600 
    242 H242       -6.6935  -16.7715  -49.2440 H         1 UNK         0.3800 
    243 H243       -5.9265  -15.3021  -49.7679 H         1 UNK         0.3800 
    244 H244       -4.6516  -14.4582  -51.0695 H         1 UNK         0.0800 
    245 H245       -4.5442  -14.0893  -52.7511 H         1 UNK         0.0800 
    246 H246       -3.4830  -17.0806  -50.2445 H         1 UNK         0.0800 
    247 H247       -2.7113  -15.5646  -49.8194 H         1 UNK         0.0800 
@<TRIPOS>BOND
     1    1    2 1    
     2    1  127 1    
     3    1  128 1    
     4    1  129 1    
     5    2    3 2    
     6    2    4 am   BACKBONE|DICT|INTERRES
     7    4    5 1    
     8    4  130 1    
     9    5    6 1    
    10    5   65 1    
    11    5  131 1    
    12    6    7 1    
    13    6  132 1    
    14    6  133 1    
    15    7    8 1    
    16    8    9 1    
    17    8  134 1    
    18    8  135 1    
    19    9   10 ar   
    20    9   14 ar   
    21   10   11 ar   
    22   10  136 1    
    23   11   12 ar   
    24   11  126 1    
    25   12   13 ar   
    26   12  137 1    
    27   13   14 ar   
    28   13   15 1    
    29   14  138 1    
    30   15   16 1    
    31   15  139 1    
    32   15  140 1    
    33   16   17 1    
    34   17   18 1    
    35   17  141 1    
    36   17  142 1    
    37   18   19 1    
    38   18   67 1    
    39   18  143 1    
    40   19   20 am   BACKBONE|DICT|INTERRES
    41   19  144 1    
    42   20   21 2    
    43   20   22 1    
    44   22   23 1    
    45   22   24 1    
    46   22  145 1    
    47   23  146 1    
    48   23  147 1    
    49   23  148 1    
    50   24   25 am   BACKBONE|DICT|INTERRES
    51   24  149 1    
    52   25   26 2    
    53   25   27 1    
    54   27   28 1    
    55   27   29 1    
    56   27  150 1    
    57   28  151 1    
    58   28  152 1    
    59   28  153 1    
    60   29   30 am   BACKBONE|DICT|INTERRES
    61   29  154 1    
    62   30   31 2    
    63   30   32 1    
    64   32   33 1    
    65   32   34 1    
    66   32  155 1    
    67   33  156 1    
    68   33  157 1    
    69   33  158 1    
    70   34   35 am   BACKBONE|DICT|INTERRES
    71   34  159 1    
    72   35   36 2    
    73   35   37 1    
    74   37   38 1    
    75   37   39 1    
    76   37  160 1    
    77   38  161 1    
    78   38  162 1    
    79   38  163 1    
    80   39   40 am   BACKBONE|DICT|INTERRES
    81   39  164 1    
    82   40   41 2    
    83   40   42 1    
    84   42   43 1    
    85   42   44 1    
    86   42  165 1    
    87   43  166 1    
    88   43  167 1    
    89   43  168 1    
    90   44   45 am   BACKBONE|DICT|INTERRES
    91   44  169 1    
    92   45   46 2    
    93   45   47 1    
    94   47   48 1    
    95   47   49 1    
    96   47  170 1    
    97   48  171 1    
    98   48  172 1    
    99   48  173 1    
   100   49   50 am   BACKBONE|DICT|INTERRES
   101   49  174 1    
   102   50   51 2    
   103   50   52 1    
   104   52   53 1    
   105   52   54 1    
   106   52  175 1    
   107   53  176 1    
   108   53  177 1    
   109   53  178 1    
   110   54   55 am   BACKBONE|DICT|INTERRES
   111   54  179 1    
   112   55   56 2    
   113   55   57 1    
   114   57   58 1    
   115   57   59 1    
   116   57  180 1    
   117   58  181 1    
   118   58  182 1    
   119   58  183 1    
   120   59   60 am   BACKBONE|DICT|INTERRES
   121   59  184 1    
   122   60   61 2    
   123   60   62 1    
   124   62   63 1    
   125   62   64 1    
   126   62  185 1    
   127   63  186 1    
   128   63  187 1    
   129   63  188 1    
   130   64   65 am   BACKBONE|DICT|INTERRES
   131   64  189 1    
   132   65   66 2    
   133   67   68 2    
   134   67   69 am   BACKBONE|DICT|INTERRES
   135   69   70 1    
   136   69  190 1    
   137   70   71 1    
   138   70   72 1    
   139   70  191 1    
   140   71  192 1    
   141   71  193 1    
   142   71  194 1    
   143   72   73 2    
   144   72   74 am   BACKBONE|DICT|INTERRES
   145   74   75 1    
   146   74  195 1    
   147   75   76 1    
   148   75   77 1    
   149   75  196 1    
   150   76  197 1    
   151   76  198 1    
   152   76  199 1    
   153   77   78 2    
   154   77   79 am   BACKBONE|DICT|INTERRES
   155   79   80 1    
   156   79  200 1    
   157   80   81 1    
   158   80   82 1    
   159   80  201 1    
   160   81  202 1    
   161   81  203 1    
   162   81  204 1    
   163   82   83 2    
   164   82   84 am   BACKBONE|DICT|INTERRES
   165   84   85 1    
   166   84  205 1    
   167   85   86 1    
   168   85   87 1    
   169   85  206 1    
   170   86  207 1    
   171   86  208 1    
   172   86  209 1    
   173   87   88 2    
   174   87   89 am   BACKBONE|DICT|INTERRES
   175   89   90 1    
   176   89  210 1    
   177   90   91 1    
   178   90   92 1    
   179   90  211 1    
   180   91  212 1    
   181   91  213 1    
   182   91  214 1    
   183   92   93 2    
   184   92   94 am   BACKBONE|DICT|INTERRES
   185   94   95 1    
   186   94  215 1    
   187   95   96 1    
   188   95   97 1    
   189   95  216 1    
   190   96  217 1    
   191   96  218 1    
   192   96  219 1    
   193   97   98 2    
   194   97   99 am   BACKBONE|DICT|INTERRES
   195   99  100 1    
   196   99  220 1    
   197  100  101 1    
   198  100  102 1    
   199  100  221 1    
   200  101  222 1    
   201  101  223 1    
   202  101  224 1    
   203  102  103 2    
   204  102  104 am   BACKBONE|DICT|INTERRES
   205  104  105 1    
   206  104  225 1    
   207  105  106 1    
   208  105  107 1    
   209  105  226 1    
   210  106  227 1    
   211  106  228 1    
   212  106  229 1    
   213  107  108 2    
   214  107  109 am   BACKBONE|DICT|INTERRES
   215  109  110 1    
   216  109  230 1    
   217  110  111 1    
   218  110  112 1    
   219  110  231 1    
   220  111  232 1    
   221  111  233 1    
   222  111  234 1    
   223  112  113 2    
   224  112  114 am   BACKBONE|DICT|INTERRES
   225  114  115 1    
   226  114  235 1    
   227  115  116 1    
   228  115  117 1    
   229  115  236 1    
   230  116  237 1    
   231  116  238 1    
   232  116  239 1    
   233  117  118 2    
   234  117  119 am   BACKBONE|DICT|INTERRES
   235  119  120 1    
   236  119  240 1    
   237  120  121 1    
   238  120  124 1    
   239  120  241 1    
   240  121  122 am   BACKBONE|DICT|INTERRES
   241  121  123 2    
   242  122  242 1    
   243  122  243 1    
   244  124  125 1    
   245  124  244 1    
   246  124  245 1    
   247  125  126 1    
   248  126  246 1    
   249  126  247 1    
@<TRIPOS>SUBSTRUCTURE
     1 UNK         1 GROUP             0       ****    0 ROOT    
