@<TRIPOS>MOLECULE
3R540
247   249    1
SMALL
USER_CHARGES


@<TRIPOS>ATOM
      1 CA         -2.2400   -8.6309  -49.8335 C.3       0 UNK        -0.1800 
      2 C          -0.8363   -9.0192  -49.3902 C.2       0 UNK         0.5000 
      3 O           0.1291   -8.3463  -49.7535 O.2       0 UNK        -0.5000 
      4 N          -0.7196  -10.1051  -48.6168 N.am      1 UNK        -0.5000 
      5 CA          0.5379  -10.6079  -48.0545 C.3       1 UNK         0.1400 
      6 C6          0.3761  -12.0274  -47.4588 C.3       23 UNK        -0.0398 
      7 S7         -0.1625  -13.2707  -48.6803 S.3       23 UNK        -0.2404 
      8 C8          0.2507  -14.7920  -47.7721 C.3       23 UNK        -0.0205 
      9 C9         -0.4630  -16.0164  -48.3195 C.ar      23 UNK        -0.0193 
     10 C10        -1.8545  -16.1088  -48.2330 C.ar      23 UNK        -0.1150 
     11 C11        -2.5230  -17.2571  -48.6642 C.ar      23 UNK        -0.0193 
     12 C12        -1.7831  -18.3133  -49.2048 C.ar      23 UNK        -0.1150 
     13 C13        -0.3884  -18.2400  -49.2859 C.ar      23 UNK        -0.0193 
     14 C14         0.2657  -17.0861  -48.8458 C.ar      23 UNK        -0.1150 
     15 C15         0.4145  -19.4121  -49.8324 C.3       23 UNK        -0.0205 
     16 S16         0.8076  -20.6370  -48.5382 S.3       23 UNK        -0.2404 
     17 C17        -0.8484  -21.3185  -48.2156 C.3       23 UNK        -0.0398 
     18 CA         -0.8425  -22.6849  -47.4949 C.3       11 UNK         0.1400 
     19 N          -0.3500  -22.6137  -46.1162 N.am      11 UNK        -0.5000 
     20 C          -0.2189  -23.6678  -45.2958 C.2       10 UNK         0.5000 
     21 O          -0.4251  -24.8326  -45.6357 O.2       10 UNK        -0.5000 
     22 CA          0.1271  -23.3688  -43.8284 C.3       10 UNK         0.1400 
     23 CB          1.6340  -23.1324  -43.6446 C.3       10 UNK        -0.1800 
     24 N          -0.6313  -22.2273  -43.3165 N.am      10 UNK        -0.5000 
     25 C          -1.9556  -22.2365  -43.1054 C.2       9 UNK         0.5000 
     26 O          -2.6686  -23.2236  -43.2838 O.2       9 UNK        -0.5000 
     27 CA         -2.5971  -20.9114  -42.6560 C.3       9 UNK         0.1400 
     28 CB         -2.4754  -20.7387  -41.1350 C.3       9 UNK        -0.1800 
     29 N          -2.0119  -19.7491  -43.3232 N.am      9 UNK        -0.5000 
     30 C          -2.1342  -19.4830  -44.6313 C.2       8 UNK         0.5000 
     31 O          -2.7876  -20.1738  -45.4136 O.2       8 UNK        -0.5000 
     32 CA         -1.3466  -18.2684  -45.1570 C.3       8 UNK         0.1400 
     33 CB         -2.1471  -16.9773  -44.9339 C.3       8 UNK        -0.1800 
     34 N          -0.0188  -18.1276  -44.5505 N.am      8 UNK        -0.5000 
     35 C           0.9478  -19.0571  -44.6002 C.2       7 UNK         0.5000 
     36 O           0.7961  -20.1576  -45.1278 O.2       7 UNK        -0.5000 
     37 CA          2.3009  -18.7353  -43.9413 C.3       7 UNK         0.1400 
     38 CB          3.4027  -18.6196  -45.0070 C.3       7 UNK        -0.1800 
     39 N           2.2677  -17.5080  -43.1446 N.am      7 UNK        -0.5000 
     40 C           1.9266  -17.4487  -41.8489 C.2       6 UNK         0.5000 
     41 O           1.5967  -18.4351  -41.1899 O.2       6 UNK        -0.5000 
     42 CA          1.9479  -16.0623  -41.1694 C.3       6 UNK         0.1400 
     43 CB          3.2737  -15.8532  -40.4223 C.3       6 UNK        -0.1800 
     44 N           1.7531  -14.9504  -42.1007 N.am      6 UNK        -0.5000 
     45 C           0.6130  -14.6978  -42.7588 C.2       5 UNK         0.5000 
     46 O          -0.4240  -15.3375  -42.5886 O.2       5 UNK        -0.5000 
     47 CA          0.6498  -13.5862  -43.8280 C.3       5 UNK         0.1400 
     48 CB          0.1340  -12.2630  -43.2462 C.3       5 UNK        -0.1800 
     49 N           1.9736  -13.3739  -44.4289 N.am      5 UNK        -0.5000 
     50 C           2.6994  -14.3192  -45.0504 C.2       4 UNK         0.5000 
     51 O           2.2870  -15.4635  -45.2283 O.2       4 UNK        -0.5000 
     52 CA          4.1218  -13.9664  -45.5339 C.3       4 UNK         0.1400 
     53 CB          4.1819  -13.9505  -47.0694 C.3       4 UNK        -0.1800 
     54 N           4.6332  -12.6931  -45.0290 N.am      4 UNK        -0.5000 
     55 C           4.9022  -12.4011  -43.7484 C.2       3 UNK         0.5000 
     56 O           4.8123  -13.2155  -42.8288 O.2       3 UNK        -0.5000 
     57 CA          5.2777  -10.9344  -43.4438 C.3       3 UNK         0.1400 
     58 CB          6.8015  -10.7839  -43.3231 C.3       3 UNK        -0.1800 
     59 N           4.7784   -9.9751  -44.4404 N.am      3 UNK        -0.5000 
     60 C           3.4854   -9.7710  -44.7349 C.2       2 UNK         0.5000 
     61 O           2.5717  -10.3709  -44.1675 O.2       2 UNK        -0.5000 
     62 CA          3.1506   -8.7942  -45.8818 C.3       2 UNK         0.1400 
     63 CB          4.3849   -8.1235  -46.5184 C.3       2 UNK        -0.1800 
     64 N           2.4178   -9.5146  -46.9238 N.am      2 UNK        -0.5000 
     65 C           1.0863   -9.6500  -46.9742 C.2       1 UNK         0.5000 
     66 O           0.3057   -9.0911  -46.1989 O.2       1 UNK        -0.5000 
     67 C          -2.2575  -23.2885  -47.5554 C.2       11 UNK         0.5000 
     68 O          -2.4908  -24.1963  -48.3524 O.2       11 UNK        -0.5000 
     69 N          -3.1739  -22.7844  -46.7172 N.am      12 UNK        -0.5000 
     70 CA         -4.5536  -23.2610  -46.6181 C.3       12 UNK         0.1400 
     71 CB         -5.3402  -22.3675  -45.6480 C.3       12 UNK        -0.1800 
     72 C          -4.6487  -24.7420  -46.2083 C.2       12 UNK         0.5000 
     73 O          -5.4076  -25.4914  -46.8235 O.2       12 UNK        -0.5000 
     74 N          -3.8647  -25.1326  -45.1957 N.am      13 UNK        -0.5000 
     75 CA         -3.8370  -26.4851  -44.6483 C.3       13 UNK         0.1400 
     76 CB         -3.1559  -26.4640  -43.2702 C.3       13 UNK        -0.1800 
     77 C          -3.1577  -27.5087  -45.5750 C.2       13 UNK         0.5000 
     78 O          -3.7628  -28.5361  -45.8843 O.2       13 UNK        -0.5000 
     79 N          -1.9033  -27.2412  -45.9612 N.am      14 UNK        -0.5000 
     80 CA         -1.0289  -28.2309  -46.5928 C.3       14 UNK         0.1400 
     81 CB          0.4070  -28.0321  -46.0816 C.3       14 UNK        -0.1800 
     82 C          -1.0524  -28.1785  -48.1270 C.2       14 UNK         0.5000 
     83 O          -0.9134  -29.2260  -48.7601 O.2       14 UNK        -0.5000 
     84 N          -1.2010  -26.9777  -48.7008 N.am      15 UNK        -0.5000 
     85 CA         -1.0881  -26.7407  -50.1438 C.3       15 UNK         0.1400 
     86 CB         -0.1258  -25.5627  -50.3791 C.3       15 UNK        -0.1800 
     87 C          -2.4494  -26.4882  -50.8167 C.2       15 UNK         0.5000 
     88 O          -2.4737  -26.1983  -52.0130 O.2       15 UNK        -0.5000 
     89 N          -3.5470  -26.5674  -50.0477 N.am      16 UNK        -0.5000 
     90 CA         -4.9330  -26.3010  -50.4530 C.3       16 UNK         0.1400 
     91 CB         -5.4336  -27.3889  -51.4258 C.3       16 UNK        -0.1800 
     92 C          -5.1124  -24.8700  -51.0032 C.2       16 UNK         0.5000 
     93 O          -5.6554  -24.6814  -52.0933 O.2       16 UNK        -0.5000 
     94 N          -4.5824  -23.8929  -50.2523 N.am      17 UNK        -0.5000 
     95 CA         -4.5053  -22.4619  -50.5756 C.3       17 UNK         0.1400 
     96 CB         -5.9108  -21.8363  -50.6674 C.3       17 UNK        -0.1800 
     97 C          -3.6278  -22.1942  -51.8156 C.2       17 UNK         0.5000 
     98 O          -3.9173  -21.2952  -52.6071 O.2       17 UNK        -0.5000 
     99 N          -2.5823  -23.0215  -51.9671 N.am      18 UNK        -0.5000 
    100 CA        -1.6362  -23.0817  -53.0861 C.3       18 UNK         0.1400 
    101 CB        -0.7671  -21.8085  -53.1309 C.3       18 UNK        -0.1800 
    102 C         -2.2991  -23.4066  -54.4425 C.2       18 UNK         0.5000 
    103 O         -1.7579  -23.0381  -55.4858 O.2       18 UNK        -0.5000 
    104 N         -3.4721  -24.0602  -54.4078 N.am      19 UNK        -0.5000 
    105 CA        -4.3625  -24.4505  -55.5124 C.3       19 UNK         0.1400 
    106 CB        -3.6617  -25.4300  -56.4719 C.3       19 UNK        -0.1800 
    107 C         -5.0005  -23.2752  -56.2860 C.2       19 UNK         0.5000 
    108 O         -6.1460  -23.3898  -56.7224 O.2       19 UNK        -0.5000 
    109 N         -4.2699  -22.1635  -56.4244 N.am      20 UNK        -0.5000 
    110 CA        -4.6835  -20.9168  -57.0687 C.3       20 UNK         0.1400 
    111 CB        -3.4199  -20.1002  -57.3853 C.3       20 UNK        -0.1800 
    112 C         -5.6705  -20.0761  -56.2319 C.2       20 UNK         0.5000 
    113 O         -6.2022  -19.0956  -56.7540 O.2       20 UNK        -0.5000 
    114 N         -5.8880  -20.4653  -54.9666 N.am      21 UNK        -0.5000 
    115 CA        -6.6910  -19.7877  -53.9462 C.3       21 UNK         0.1400 
    116 CB        -8.1646  -19.6268  -54.3781 C.3       21 UNK        -0.1800 
    117 C         -6.0231  -18.4759  -53.4946 C.2       21 UNK         0.5000 
    118 O         -6.6260  -17.4036  -53.5786 O.2       21 UNK        -0.5000 
    119 N         -4.7805  -18.6131  -53.0142 N.am      22 UNK        -0.5000 
    120 CA        -3.9147  -17.5492  -52.4775 C.3       22 UNK         0.1400 
    121 C         -3.4137  -16.5415  -53.5584 C.2       22 UNK         0.5000 
    122 N         -2.7092  -15.4867  -53.1680 N.am      22 UNK        -0.7600 
    123 O         -3.6078  -16.7198  -54.7590 O.2       22 UNK        -0.5000 
    124 C124       -4.5292  -16.8545  -51.2254 C.3       23 UNK        -0.0398 
    125 S125       -4.9267  -18.0510  -49.9022 S.3       23 UNK        -0.2404 
    126 C126       -4.0328  -17.3614  -48.4727 C.3       23 UNK        -0.0205 
    127 H127       -2.3048   -8.6349  -50.9216 H         1 UNK         0.0600 
    128 H128       -2.4811   -7.6283  -49.4799 H         1 UNK         0.0600 
    129 H129       -2.9925   -9.3181  -49.4456 H         1 UNK         0.0600 
    130 H130       -1.5495  -10.6128  -48.3471 H         1 UNK         0.3000 
    131 H131        1.2654  -10.6603  -48.8678 H         1 UNK         0.0600 
    132 H132       -0.3423  -12.0207  -46.6367 H         1 UNK         0.0800 
    133 H133        1.3227  -12.3620  -47.0338 H         1 UNK         0.0800 
    134 H134       -0.0296  -14.6810  -46.7263 H         1 UNK         0.0800 
    135 H135        1.3316  -14.9336  -47.7916 H         1 UNK         0.0800 
    136 H136       -2.4130  -15.2911  -47.7994 H         1 UNK         0.1150 
    137 H137       -2.2940  -19.2048  -49.5376 H         1 UNK         0.1150 
    138 H138        1.3442  -17.0311  -48.8934 H         1 UNK         0.1150 
    139 H139       -0.1321  -19.8900  -50.6453 H         1 UNK         0.0800 
    140 H140        1.3477  -19.0519  -50.2678 H         1 UNK         0.0800 
    141 H141       -1.3528  -21.4076  -49.1799 H         1 UNK         0.0800 
    142 H142       -1.4118  -20.5875  -47.6356 H         1 UNK         0.0800 
    143 H143       -0.1779  -23.3577  -48.0399 H         1 UNK         0.0600 
    144 H144       -0.0981  -21.6911  -45.7685 H         1 UNK         0.3000 
    145 H145       -0.1473  -24.2457  -43.2380 H         1 UNK         0.0600 
    146 H146        1.8794  -22.9453  -42.5992 H         1 UNK         0.0600 
    147 H147        1.9920  -22.2861  -44.2301 H         1 UNK         0.0600 
    148 H148        2.2026  -24.0081  -43.9599 H         1 UNK         0.0600 
    149 H149       -0.1287  -21.3584  -43.2130 H         1 UNK         0.3000 
    150 H150       -3.6580  -20.9514  -42.9117 H         1 UNK         0.0600 
    151 H151       -2.9160  -21.5872  -40.6097 H         1 UNK         0.0600 
    152 H152       -2.9963  -19.8426  -40.7973 H         1 UNK         0.0600 
    153 H153       -1.4341  -20.6610  -40.8191 H         1 UNK         0.0600 
    154 H154       -1.4467  -19.1320  -42.7583 H         1 UNK         0.3000 
    155 H155       -1.2007  -18.4057  -46.2298 H         1 UNK         0.0600 
    156 H156       -3.1065  -17.0192  -45.4504 H         1 UNK         0.0600 
    157 H157       -1.6104  -16.1075  -45.3117 H         1 UNK         0.0600 
    158 H158       -2.3519  -16.8078  -43.8763 H         1 UNK         0.0600 
    159 H159        0.1799  -17.2519  -44.0879 H         1 UNK         0.3000 
    160 H160        2.5542  -19.5777  -43.2943 H         1 UNK         0.0600 
    161 H161        3.1739  -17.8532  -45.7476 H         1 UNK         0.0600 
    162 H162        3.5217  -19.5613  -45.5446 H         1 UNK         0.0600 
    163 H163        4.3659  -18.3783  -44.5575 H         1 UNK         0.0600 
    164 H164        2.4590  -16.6502  -43.6516 H         1 UNK         0.3000 
    165 H165        1.1360  -16.0412  -40.4394 H         1 UNK         0.0600 
    166 H166        3.2713  -14.9132  -39.8700 H         1 UNK         0.0600 
    167 H167        3.4477  -16.6528  -39.7010 H         1 UNK         0.0600 
    168 H168        4.1225  -15.8368  -41.1074 H         1 UNK         0.0600 
    169 H169        2.5632  -14.3797  -42.3025 H         1 UNK         0.3000 
    170 H170       -0.0329  -13.8880  -44.6221 H         1 UNK         0.0600 
    171 H171        0.8004  -11.8780  -42.4734 H         1 UNK         0.0600 
    172 H172        0.0429  -11.5007  -44.0204 H         1 UNK         0.0600 
    173 H173       -0.8528  -12.3884  -42.7986 H         1 UNK         0.0600 
    174 H174        2.3667  -12.4454  -44.3174 H         1 UNK         0.3000 
    175 H175        4.7836  -14.7573  -45.1752 H         1 UNK         0.0600 
    176 H176        3.5561  -13.1645  -47.4924 H         1 UNK         0.0600 
    177 H177        5.2014  -13.7925  -47.4215 H         1 UNK         0.0600 
    178 H178        3.8435  -14.9006  -47.4852 H         1 UNK         0.0600 
    179 H179        4.7465  -11.9557  -45.7080 H         1 UNK         0.3000 
    180 H180        4.8296  -10.6783  -42.4816 H         1 UNK         0.0600 
    181 H181        7.3035  -11.0035  -44.2662 H         1 UNK         0.0600 
    182 H182        7.2032  -11.4645  -42.5711 H         1 UNK         0.0600 
    183 H183        7.0760   -9.7725  -43.0229 H         1 UNK         0.0600 
    184 H184        5.4767   -9.4516  -44.9486 H         1 UNK         0.3000 
    185 H185        2.5231   -8.0065  -45.4597 H         1 UNK         0.0600 
    186 H186        5.0614   -8.8495  -46.9713 H         1 UNK         0.0600 
    187 H187        4.0839   -7.4257  -47.3002 H         1 UNK         0.0600 
    188 H188        4.9479   -7.5482  -45.7821 H         1 UNK         0.0600 
    189 H189        2.9828  -10.0076  -47.5999 H         1 UNK         0.3000 
    190 H190       -2.9217  -22.0030  -46.1183 H         1 UNK         0.3000 
    191 H191       -5.0134  -23.1603  -47.6019 H         1 UNK         0.0600 
    192 H192       -5.3460  -21.3308  -45.9853 H         1 UNK         0.0600 
    193 H193       -4.9162  -22.3894  -44.6441 H         1 UNK         0.0600 
    194 H194       -6.3791  -22.6912  -45.5735 H         1 UNK         0.0600 
    195 H195       -3.2940  -24.4396  -44.7207 H         1 UNK         0.3000 
    196 H196       -4.8694  -26.8095  -44.5004 H         1 UNK         0.0600 
    197 H197       -3.7011  -25.8276  -42.5729 H         1 UNK         0.0600 
    198 H198       -2.1328  -26.0904  -43.3303 H         1 UNK         0.0600 
    199 H199       -3.1172  -27.4637  -42.8358 H         1 UNK         0.0600 
    200 H200       -1.4738  -26.3525  -45.7112 H         1 UNK         0.3000 
    201 H201       -1.3408  -29.2344  -46.2943 H         1 UNK         0.0600 
    202 H202        0.4499  -28.0844  -44.9936 H         1 UNK         0.0600 
    203 H203        0.8167  -27.0690  -46.3875 H         1 UNK         0.0600 
    204 H204        1.0695  -28.8061  -46.4709 H         1 UNK         0.0600 
    205 H205       -1.3559  -26.1628  -48.1202 H         1 UNK         0.3000 
    206 H206       -0.6557  -27.6131  -50.6377 H         1 UNK         0.0600 
    207 H207        0.8076  -25.6987  -49.8326 H         1 UNK         0.0600 
    208 H208       -0.5578  -24.6110  -50.0732 H         1 UNK         0.0600 
    209 H209        0.1324  -25.4796  -51.4349 H         1 UNK         0.0600 
    210 H210       -3.4078  -26.7766  -49.0693 H         1 UNK         0.3000 
    211 H211       -5.5395  -26.3613  -49.5482 H         1 UNK         0.0600 
    212 H212       -4.8965  -27.3658  -52.3746 H         1 UNK         0.0600 
    213 H213       -6.4931  -27.2556  -51.6475 H         1 UNK         0.0600 
    214 H214       -5.3147  -28.3842  -50.9978 H         1 UNK         0.0600 
    215 H215       -4.0581  -24.1755  -49.4282 H         1 UNK         0.3000 
    216 H216       -3.9933  -21.9819  -49.7410 H         1 UNK         0.0600 
    217 H217       -5.8499  -20.7561  -50.7977 H         1 UNK         0.0600 
    218 H218       -6.4809  -22.0184  -49.7566 H         1 UNK         0.0600 
    219 H219       -6.4818  -22.2366  -51.5050 H         1 UNK         0.0600 
    220 H220       -2.4816  -23.7599  -51.2857 H         1 UNK         0.3000 
    221 H221       -0.9727  -23.9214  -52.8800 H         1 UNK         0.0600 
    222 H222       -1.3569  -20.9187  -53.3530 H         1 UNK         0.0600 
    223 H223       -0.2612  -21.6519  -52.1793 H         1 UNK         0.0600 
    224 H224        0.0078  -21.8861  -53.8943 H         1 UNK         0.0600 
    225 H225       -3.8292  -24.2984  -53.4905 H         1 UNK         0.3000 
    226 H226       -5.1858  -24.9889  -55.0400 H         1 UNK         0.0600 
    227 H227       -3.2666  -26.2921  -55.9343 H         1 UNK         0.0600 
    228 H228       -4.3598  -25.8057  -57.2209 H         1 UNK         0.0600 
    229 H229       -2.8359  -24.9590  -57.0055 H         1 UNK         0.0600 
    230 H230       -3.3165  -22.1995  -56.0742 H         1 UNK         0.3000 
    231 H231       -5.1800  -21.1640  -58.0091 H         1 UNK         0.0600 
    232 H232       -3.6690  -19.1772  -57.9104 H         1 UNK         0.0600 
    233 H233       -2.7360  -20.6610  -58.0226 H         1 UNK         0.0600 
    234 H234       -2.8833  -19.8256  -56.4759 H         1 UNK         0.0600 
    235 H235       -5.3532  -21.2561  -54.6342 H         1 UNK         0.3000 
    236 H236       -6.6896  -20.4462  -53.0788 H         1 UNK         0.0600 
    237 H237       -8.2804  -18.9221  -55.2015 H         1 UNK         0.0600 
    238 H238       -8.5902  -20.5807  -54.6893 H         1 UNK         0.0600 
    239 H239       -8.7691  -19.2557  -53.5499 H         1 UNK         0.0600 
    240 H240       -4.3846  -19.5500  -52.9840 H         1 UNK         0.3000 
    241 H241       -3.0127  -18.0686  -52.1516 H         1 UNK         0.0600 
    242 H242       -2.3708  -14.8459  -53.8689 H         1 UNK         0.3800 
    243 H243       -2.4839  -15.3203  -52.2001 H         1 UNK         0.3800 
    244 H244       -5.4385  -16.3131  -51.4882 H         1 UNK         0.0800 
    245 H245       -3.8470  -16.1055  -50.8236 H         1 UNK         0.0800 
    246 H246       -4.4601  -16.3851  -48.2386 H         1 UNK         0.0800 
    247 H247       -4.2244  -17.9968  -47.6070 H         1 UNK         0.0800 
@<TRIPOS>BOND
     1    1    2 1    
     2    1  127 1    
     3    1  128 1    
     4    1  129 1    
     5    2    3 2    
     6    2    4 am   BACKBONE|DICT|INTERRES
     7    4    5 1    
     8    4  130 1    
     9    5    6 1    
    10    5   65 1    
    11    5  131 1    
    12    6    7 1    
    13    6  132 1    
    14    6  133 1    
    15    7    8 1    
    16    8    9 1    
    17    8  134 1    
    18    8  135 1    
    19    9   10 ar   
    20    9   14 ar   
    21   10   11 ar   
    22   10  136 1    
    23   11   12 ar   
    24   11  126 1    
    25   12   13 ar   
    26   12  137 1    
    27   13   14 ar   
    28   13   15 1    
    29   14  138 1    
    30   15   16 1    
    31   15  139 1    
    32   15  140 1    
    33   16   17 1    
    34   17   18 1    
    35   17  141 1    
    36   17  142 1    
    37   18   19 1    
    38   18   67 1    
    39   18  143 1    
    40   19   20 am   BACKBONE|DICT|INTERRES
    41   19  144 1    
    42   20   21 2    
    43   20   22 1    
    44   22   23 1    
    45   22   24 1    
    46   22  145 1    
    47   23  146 1    
    48   23  147 1    
    49   23  148 1    
    50   24   25 am   BACKBONE|DICT|INTERRES
    51   24  149 1    
    52   25   26 2    
    53   25   27 1    
    54   27   28 1    
    55   27   29 1    
    56   27  150 1    
    57   28  151 1    
    58   28  152 1    
    59   28  153 1    
    60   29   30 am   BACKBONE|DICT|INTERRES
    61   29  154 1    
    62   30   31 2    
    63   30   32 1    
    64   32   33 1    
    65   32   34 1    
    66   32  155 1    
    67   33  156 1    
    68   33  157 1    
    69   33  158 1    
    70   34   35 am   BACKBONE|DICT|INTERRES
    71   34  159 1    
    72   35   36 2    
    73   35   37 1    
    74   37   38 1    
    75   37   39 1    
    76   37  160 1    
    77   38  161 1    
    78   38  162 1    
    79   38  163 1    
    80   39   40 am   BACKBONE|DICT|INTERRES
    81   39  164 1    
    82   40   41 2    
    83   40   42 1    
    84   42   43 1    
    85   42   44 1    
    86   42  165 1    
    87   43  166 1    
    88   43  167 1    
    89   43  168 1    
    90   44   45 am   BACKBONE|DICT|INTERRES
    91   44  169 1    
    92   45   46 2    
    93   45   47 1    
    94   47   48 1    
    95   47   49 1    
    96   47  170 1    
    97   48  171 1    
    98   48  172 1    
    99   48  173 1    
   100   49   50 am   BACKBONE|DICT|INTERRES
   101   49  174 1    
   102   50   51 2    
   103   50   52 1    
   104   52   53 1    
   105   52   54 1    
   106   52  175 1    
   107   53  176 1    
   108   53  177 1    
   109   53  178 1    
   110   54   55 am   BACKBONE|DICT|INTERRES
   111   54  179 1    
   112   55   56 2    
   113   55   57 1    
   114   57   58 1    
   115   57   59 1    
   116   57  180 1    
   117   58  181 1    
   118   58  182 1    
   119   58  183 1    
   120   59   60 am   BACKBONE|DICT|INTERRES
   121   59  184 1    
   122   60   61 2    
   123   60   62 1    
   124   62   63 1    
   125   62   64 1    
   126   62  185 1    
   127   63  186 1    
   128   63  187 1    
   129   63  188 1    
   130   64   65 am   BACKBONE|DICT|INTERRES
   131   64  189 1    
   132   65   66 2    
   133   67   68 2    
   134   67   69 am   BACKBONE|DICT|INTERRES
   135   69   70 1    
   136   69  190 1    
   137   70   71 1    
   138   70   72 1    
   139   70  191 1    
   140   71  192 1    
   141   71  193 1    
   142   71  194 1    
   143   72   73 2    
   144   72   74 am   BACKBONE|DICT|INTERRES
   145   74   75 1    
   146   74  195 1    
   147   75   76 1    
   148   75   77 1    
   149   75  196 1    
   150   76  197 1    
   151   76  198 1    
   152   76  199 1    
   153   77   78 2    
   154   77   79 am   BACKBONE|DICT|INTERRES
   155   79   80 1    
   156   79  200 1    
   157   80   81 1    
   158   80   82 1    
   159   80  201 1    
   160   81  202 1    
   161   81  203 1    
   162   81  204 1    
   163   82   83 2    
   164   82   84 am   BACKBONE|DICT|INTERRES
   165   84   85 1    
   166   84  205 1    
   167   85   86 1    
   168   85   87 1    
   169   85  206 1    
   170   86  207 1    
   171   86  208 1    
   172   86  209 1    
   173   87   88 2    
   174   87   89 am   BACKBONE|DICT|INTERRES
   175   89   90 1    
   176   89  210 1    
   177   90   91 1    
   178   90   92 1    
   179   90  211 1    
   180   91  212 1    
   181   91  213 1    
   182   91  214 1    
   183   92   93 2    
   184   92   94 am   BACKBONE|DICT|INTERRES
   185   94   95 1    
   186   94  215 1    
   187   95   96 1    
   188   95   97 1    
   189   95  216 1    
   190   96  217 1    
   191   96  218 1    
   192   96  219 1    
   193   97   98 2    
   194   97   99 am   BACKBONE|DICT|INTERRES
   195   99  100 1    
   196   99  220 1    
   197  100  101 1    
   198  100  102 1    
   199  100  221 1    
   200  101  222 1    
   201  101  223 1    
   202  101  224 1    
   203  102  103 2    
   204  102  104 am   BACKBONE|DICT|INTERRES
   205  104  105 1    
   206  104  225 1    
   207  105  106 1    
   208  105  107 1    
   209  105  226 1    
   210  106  227 1    
   211  106  228 1    
   212  106  229 1    
   213  107  108 2    
   214  107  109 am   BACKBONE|DICT|INTERRES
   215  109  110 1    
   216  109  230 1    
   217  110  111 1    
   218  110  112 1    
   219  110  231 1    
   220  111  232 1    
   221  111  233 1    
   222  111  234 1    
   223  112  113 2    
   224  112  114 am   BACKBONE|DICT|INTERRES
   225  114  115 1    
   226  114  235 1    
   227  115  116 1    
   228  115  117 1    
   229  115  236 1    
   230  116  237 1    
   231  116  238 1    
   232  116  239 1    
   233  117  118 2    
   234  117  119 am   BACKBONE|DICT|INTERRES
   235  119  120 1    
   236  119  240 1    
   237  120  121 1    
   238  120  124 1    
   239  120  241 1    
   240  121  122 am   BACKBONE|DICT|INTERRES
   241  121  123 2    
   242  122  242 1    
   243  122  243 1    
   244  124  125 1    
   245  124  244 1    
   246  124  245 1    
   247  125  126 1    
   248  126  246 1    
   249  126  247 1    
@<TRIPOS>SUBSTRUCTURE
     1 UNK         1 GROUP             0       ****    0 ROOT    
