@<TRIPOS>MOLECULE
3R540
247   249    1
SMALL
USER_CHARGES


@<TRIPOS>ATOM
      1 CA         -3.6104  -13.3321  -47.2193 C.3       0 UNK        -0.1800 
      2 C          -3.1620  -13.7515  -45.8199 C.2       0 UNK         0.5000 
      3 O          -3.9315  -13.6052  -44.8725 O.2       0 UNK        -0.5000 
      4 N          -1.9465  -14.2842  -45.6340 N.am      1 UNK        -0.5000 
      5 CA         -0.8949  -14.4501  -46.6413 C.3       1 UNK         0.1400 
      6 C6          0.1484  -15.5037  -46.1874 C.3       23 UNK        -0.0398 
      7 S7          1.0996  -16.2127  -47.5779 S.3       23 UNK        -0.2404 
      8 C8          0.1480  -17.7193  -47.9611 C.3       23 UNK        -0.0205 
      9 C9         -1.2525  -17.3875  -48.4503 C.ar      23 UNK        -0.0193 
     10 C10        -1.4530  -16.9369  -49.7578 C.ar      23 UNK        -0.1150 
     11 C11        -2.7321  -16.5845  -50.1977 C.ar      23 UNK        -0.0193 
     12 C12        -3.8166  -16.7049  -49.3229 C.ar      23 UNK        -0.1150 
     13 C13        -3.6264  -17.1386  -48.0074 C.ar      23 UNK        -0.0193 
     14 C14        -2.3412  -17.4817  -47.5798 C.ar      23 UNK        -0.1150 
     15 C15        -4.7969  -17.1689  -47.0339 C.3       23 UNK        -0.0205 
     16 S16        -5.5120  -18.8328  -46.8490 S.3       23 UNK        -0.2404 
     17 C17        -4.3245  -19.6309  -45.7119 C.3       23 UNK        -0.0398 
     18 CA         -3.3780  -20.6083  -46.4481 C.3       11 UNK         0.1400 
     19 N          -2.1108  -20.7997  -45.7386 N.am      11 UNK        -0.5000 
     20 C          -1.0692  -21.4865  -46.2346 C.2       10 UNK         0.5000 
     21 O          -1.0499  -21.9574  -47.3721 O.2       10 UNK        -0.5000 
     22 CA          0.1273  -21.7516  -45.2989 C.3       10 UNK         0.1400 
     23 CB          1.2302  -20.7103  -45.5378 C.3       10 UNK        -0.1800 
     24 N          -0.2170  -21.7570  -43.8759 N.am      10 UNK        -0.5000 
     25 C          -1.1549  -22.5098  -43.2811 C.2       9 UNK         0.5000 
     26 O          -1.7918  -23.3913  -43.8586 O.2       9 UNK        -0.5000 
     27 CA         -1.4927  -22.1641  -41.8174 C.3       9 UNK         0.1400 
     28 CB         -0.7788  -23.1322  -40.8634 C.3       9 UNK        -0.1800 
     29 N          -1.1560  -20.7867  -41.4389 N.am      9 UNK        -0.5000 
     30 C          -1.6045  -19.6628  -42.0157 C.2       8 UNK         0.5000 
     31 O          -2.4017  -19.6547  -42.9549 O.2       8 UNK        -0.5000 
     32 CA         -1.0038  -18.3298  -41.5249 C.3       8 UNK         0.1400 
     33 CB         -1.8219  -17.7431  -40.3596 C.3       8 UNK        -0.1800 
     34 N           0.4344  -18.3939  -41.2106 N.am      8 UNK        -0.5000 
     35 C           1.0586  -19.0297  -40.2064 C.2       7 UNK         0.5000 
     36 O           0.4631  -19.6828  -39.3487 O.2       7 UNK        -0.5000 
     37 CA          2.6025  -18.9859  -40.1867 C.3       7 UNK         0.1400 
     38 CB          3.1958  -20.3478  -39.7822 C.3       7 UNK        -0.1800 
     39 N           3.1810  -18.6005  -41.4778 N.am      7 UNK        -0.5000 
     40 C           3.4761  -17.3503  -41.8504 C.2       6 UNK         0.5000 
     41 O           3.2372  -16.3554  -41.1630 O.2       6 UNK        -0.5000 
     42 CA          4.0916  -17.1952  -43.2540 C.3       6 UNK         0.1400 
     43 CB          2.9837  -17.0021  -44.2992 C.3       6 UNK        -0.1800 
     44 N           5.0253  -16.0712  -43.3296 N.am      6 UNK        -0.5000 
     45 C           6.2139  -16.0313  -42.7081 C.2       5 UNK         0.5000 
     46 O           6.6539  -16.9629  -42.0319 O.2       5 UNK        -0.5000 
     47 CA          7.0812  -14.7668  -42.8828 C.3       5 UNK         0.1400 
     48 CB          8.3182  -15.0789  -43.7409 C.3       5 UNK        -0.1800 
     49 N           6.3695  -13.6436  -43.4919 N.am      5 UNK        -0.5000 
     50 C           5.5091  -12.8351  -42.8588 C.2       4 UNK         0.5000 
     51 O           5.2432  -12.9244  -41.6601 O.2       4 UNK        -0.5000 
     52 CA          4.8284  -11.7438  -43.7114 C.3       4 UNK         0.1400 
     53 CB          5.5040  -10.3829  -43.4825 C.3       4 UNK        -0.1800 
     54 N           4.8265  -12.0373  -45.1493 N.am      4 UNK        -0.5000 
     55 C           4.1160  -13.0175  -45.7204 C.2       3 UNK         0.5000 
     56 O           3.3856  -13.7861  -45.0930 O.2       3 UNK        -0.5000 
     57 CA          4.2679  -13.1888  -47.2394 C.3       3 UNK         0.1400 
     58 CB          4.8056  -14.5880  -47.5806 C.3       3 UNK        -0.1800 
     59 N           2.9742  -12.9996  -47.8848 N.am      3 UNK        -0.5000 
     60 C           2.4301  -11.8066  -48.1622 C.2       2 UNK         0.5000 
     61 O           3.0130  -10.7344  -47.9961 O.2       2 UNK        -0.5000 
     62 CA          0.9877  -11.8099  -48.7061 C.3       2 UNK         0.1400 
     63 CB          0.9889  -11.8120  -50.2424 C.3       2 UNK        -0.1800 
     64 N           0.2112  -12.9552  -48.2288 N.am      2 UNK        -0.5000 
     65 C          -0.2225  -13.1027  -46.9705 C.2       1 UNK         0.5000 
     66 O          -0.0921  -12.2459  -46.0933 O.2       1 UNK        -0.5000 
     67 C          -4.0806  -21.9467  -46.7613 C.2       11 UNK         0.5000 
     68 O          -4.6367  -22.0976  -47.8468 O.2       11 UNK        -0.5000 
     69 N          -4.0072  -22.9078  -45.8329 N.am      12 UNK        -0.5000 
     70 CA         -4.5289  -24.2579  -46.0210 C.3       12 UNK         0.1400 
     71 CB         -5.0258  -24.8011  -44.6720 C.3       12 UNK        -0.1800 
     72 C          -3.4603  -25.1856  -46.6199 C.2       12 UNK         0.5000 
     73 O          -3.7591  -25.9347  -47.5493 O.2       12 UNK        -0.5000 
     74 N          -2.2418  -25.1308  -46.0659 N.am      13 UNK        -0.5000 
     75 CA         -1.1666  -26.0800  -46.3495 C.3       13 UNK         0.1400 
     76 CB         -0.1171  -25.9998  -45.2301 C.3       13 UNK        -0.1800 
     77 C          -0.5018  -25.9073  -47.7267 C.2       13 UNK         0.5000 
     78 O          -0.0634  -26.9077  -48.2966 O.2       13 UNK        -0.5000 
     79 N          -0.4144  -24.6673  -48.2271 N.am      14 UNK        -0.5000 
     80 CA          0.2679  -24.3380  -49.4795 C.3       14 UNK         0.1400 
     81 CB          1.4331  -23.3727  -49.1995 C.3       14 UNK        -0.1800 
     82 C          -0.7032  -23.7484  -50.5103 C.2       14 UNK         0.5000 
     83 O          -0.7381  -24.2289  -51.6433 O.2       14 UNK        -0.5000 
     84 N          -1.4695  -22.7209  -50.1163 N.am      15 UNK        -0.5000 
     85 CA         -2.3727  -22.0018  -51.0196 C.3       15 UNK         0.1400 
     86 CB         -2.6793  -20.6094  -50.4475 C.3       15 UNK        -0.1800 
     87 C          -3.6792  -22.7561  -51.3198 C.2       15 UNK         0.5000 
     88 O          -4.3016  -22.4777  -52.3463 O.2       15 UNK        -0.5000 
     89 N          -4.0771  -23.6697  -50.4219 N.am      16 UNK        -0.5000 
     90 CA         -5.3018  -24.4773  -50.4596 C.3       16 UNK         0.1400 
     91 CB         -5.2240  -25.5119  -51.6018 C.3       16 UNK        -0.1800 
     92 C          -6.5785  -23.6116  -50.5181 C.2       16 UNK         0.5000 
     93 O          -7.4537  -23.8535  -51.3475 O.2       16 UNK        -0.5000 
     94 N          -6.6323  -22.5716  -49.6735 N.am      17 UNK        -0.5000 
     95 CA         -7.6521  -21.5149  -49.6359 C.3       17 UNK         0.1400 
     96 CB         -9.0149  -22.0779  -49.1829 C.3       17 UNK        -0.1800 
     97 C          -7.7266  -20.7278  -50.9638 C.2       17 UNK         0.5000 
     98 O          -8.8118  -20.3566  -51.4125 O.2       17 UNK        -0.5000 
     99 N          -6.5486  -20.5257  -51.5706 N.am      18 UNK        -0.5000 
    100 CA        -6.2753  -19.9143  -52.8738 C.3       18 UNK         0.1400 
    101 CB        -6.8332  -18.4794  -52.9624 C.3       18 UNK        -0.1800 
    102 C         -6.6747  -20.7830  -54.0864 C.2       18 UNK         0.5000 
    103 O         -6.5466  -20.3128  -55.2179 O.2       18 UNK        -0.5000 
    104 N         -7.0907  -22.0424  -53.8718 N.am      19 UNK        -0.5000 
    105 CA        -7.4101  -22.9926  -54.9445 C.3       19 UNK         0.1400 
    106 CB        -8.1703  -24.1994  -54.3770 C.3       19 UNK        -0.1800 
    107 C         -6.1682  -23.4610  -55.7277 C.2       19 UNK         0.5000 
    108 O         -6.2984  -23.8250  -56.8966 O.2       19 UNK        -0.5000 
    109 N         -4.9857  -23.4023  -55.0972 N.am      20 UNK        -0.5000 
    110 CA        -3.6866  -23.6480  -55.7302 C.3       20 UNK         0.1400 
    111 CB        -2.7507  -24.3203  -54.7107 C.3       20 UNK        -0.1800 
    112 C         -3.0673  -22.3515  -56.2986 C.2       20 UNK         0.5000 
    113 O         -1.8597  -22.3114  -56.5426 O.2       20 UNK        -0.5000 
    114 N         -3.8852  -21.2962  -56.4542 N.am      21 UNK        -0.5000 
    115 CA        -3.5415  -19.9526  -56.9389 C.3       21 UNK         0.1400 
    116 CB        -3.1285  -20.0013  -58.4245 C.3       21 UNK        -0.1800 
    117 C         -2.5033  -19.2268  -56.0565 C.2       21 UNK         0.5000 
    118 O         -1.8105  -18.3278  -56.5361 O.2       21 UNK        -0.5000 
    119 N         -2.4106  -19.6458  -54.7868 N.am      22 UNK        -0.5000 
    120 CA        -1.4251  -19.1984  -53.7893 C.3       22 UNK         0.1400 
    121 C          0.0445  -19.6121  -54.1119 C.2       22 UNK         0.5000 
    122 N          0.2816  -20.5853  -54.9858 N.am      22 UNK        -0.7600 
    123 O          0.9863  -19.0705  -53.5402 O.2       22 UNK        -0.5000 
    124 C124       -1.5755  -17.7002  -53.4075 C.3       23 UNK        -0.0398 
    125 S125       -3.2636  -17.2968  -52.8332 S.3       23 UNK        -0.2404 
    126 C126       -2.9405  -16.0095  -51.5912 C.3       23 UNK        -0.0205 
    127 H127       -3.0245  -12.4867  -47.5787 H         1 UNK         0.0600 
    128 H128       -4.6573  -13.0282  -47.2076 H         1 UNK         0.0600 
    129 H129       -3.5178  -14.1530  -47.9288 H         1 UNK         0.0600 
    130 H130       -1.6715  -14.5111  -44.6899 H         1 UNK         0.3000 
    131 H131       -1.3705  -14.8128  -47.5518 H         1 UNK         0.0600 
    132 H132        0.8465  -15.0707  -45.4692 H         1 UNK         0.0800 
    133 H133       -0.3408  -16.3238  -45.6606 H         1 UNK         0.0800 
    134 H134        0.1061  -18.3601  -47.0804 H         1 UNK         0.0800 
    135 H135        0.6753  -18.2887  -48.7279 H         1 UNK         0.0800 
    136 H136       -0.6047  -16.8318  -50.4184 H         1 UNK         0.1150 
    137 H137       -4.8057  -16.4243  -49.6568 H         1 UNK         0.1150 
    138 H138       -2.1810  -17.7975  -46.5596 H         1 UNK         0.1150 
    139 H139       -4.4876  -16.7819  -46.0617 H         1 UNK         0.0800 
    140 H140       -5.5820  -16.4959  -47.3819 H         1 UNK         0.0800 
    141 H141       -4.8759  -20.1360  -44.9166 H         1 UNK         0.0800 
    142 H142       -3.7509  -18.8532  -45.2079 H         1 UNK         0.0800 
    143 H143       -3.1098  -20.1556  -47.4019 H         1 UNK         0.0600 
    144 H144       -2.0704  -20.4538  -44.7852 H         1 UNK         0.3000 
    145 H145        0.5250  -22.7350  -45.5517 H         1 UNK         0.0600 
    146 H146        2.1312  -20.9537  -44.9745 H         1 UNK         0.0600 
    147 H147        1.5101  -20.6682  -46.5915 H         1 UNK         0.0600 
    148 H148        0.9090  -19.7116  -45.2410 H         1 UNK         0.0600 
    149 H149        0.2439  -21.0650  -43.3052 H         1 UNK         0.3000 
    150 H150       -2.5704  -22.2870  -41.6950 H         1 UNK         0.0600 
    151 H151       -1.0231  -24.1685  -41.1012 H         1 UNK         0.0600 
    152 H152       -1.0769  -22.9579  -39.8293 H         1 UNK         0.0600 
    153 H153        0.3054  -23.0273  -40.9217 H         1 UNK         0.0600 
    154 H154       -0.5267  -20.6712  -40.6496 H         1 UNK         0.3000 
    155 H155       -1.0867  -17.6317  -42.3596 H         1 UNK         0.0600 
    156 H156       -1.8349  -18.4035  -39.4924 H         1 UNK         0.0600 
    157 H157       -2.8586  -17.5821  -40.6580 H         1 UNK         0.0600 
    158 H158       -1.4218  -16.7800  -40.0428 H         1 UNK         0.0600 
    159 H159        1.0306  -17.9015  -41.8594 H         1 UNK         0.3000 
    160 H160        2.8903  -18.2572  -39.4261 H         1 UNK         0.0600 
    161 H161        2.8987  -21.1379  -40.4729 H         1 UNK         0.0600 
    162 H162        2.8672  -20.6423  -38.7846 H         1 UNK         0.0600 
    163 H163        4.2852  -20.3122  -39.7613 H         1 UNK         0.0600 
    164 H164        3.3887  -19.3595  -42.1113 H         1 UNK         0.3000 
    165 H165        4.6425  -18.1056  -43.4997 H         1 UNK         0.0600 
    166 H166        3.3967  -16.8832  -45.3010 H         1 UNK         0.0600 
    167 H167        2.3106  -17.8593  -44.3254 H         1 UNK         0.0600 
    168 H168        2.3837  -16.1200  -44.0766 H         1 UNK         0.0600 
    169 H169        4.7045  -15.2523  -43.8288 H         1 UNK         0.3000 
    170 H170        7.4226  -14.4671  -41.8897 H         1 UNK         0.0600 
    171 H171        8.9069  -15.8858  -43.3023 H         1 UNK         0.0600 
    172 H172        8.0407  -15.3864  -44.7500 H         1 UNK         0.0600 
    173 H173        8.9723  -14.2104  -43.8214 H         1 UNK         0.0600 
    174 H174        6.5327  -13.4860  -44.4751 H         1 UNK         0.3000 
    175 H175        3.7907  -11.6706  -43.3787 H         1 UNK         0.0600 
    176 H176        6.5438  -10.3891  -43.8120 H         1 UNK         0.0600 
    177 H177        4.9849   -9.5891  -44.0199 H         1 UNK         0.0600 
    178 H178        5.4966  -10.1154  -42.4249 H         1 UNK         0.0600 
    179 H179        5.3931  -11.4368  -45.7314 H         1 UNK         0.3000 
    180 H180        4.9761  -12.4508  -47.6224 H         1 UNK         0.0600 
    181 H181        4.1331  -15.3759  -47.2393 H         1 UNK         0.0600 
    182 H182        5.7753  -14.7591  -47.1114 H         1 UNK         0.0600 
    183 H183        4.9389  -14.7066  -48.6560 H         1 UNK         0.0600 
    184 H184        2.4100  -13.8282  -48.0055 H         1 UNK         0.3000 
    185 H185        0.5005  -10.8938  -48.3652 H         1 UNK         0.0600 
    186 H186        1.5403  -10.9557  -50.6330 H         1 UNK         0.0600 
    187 H187        1.4540  -12.7130  -50.6444 H         1 UNK         0.0600 
    188 H188       -0.0253  -11.7517  -50.6379 H         1 UNK         0.0600 
    189 H189        0.0685  -13.7059  -48.8896 H         1 UNK         0.3000 
    190 H190       -3.4643  -22.7457  -44.9939 H         1 UNK         0.3000 
    191 H191       -5.3810  -24.2378  -46.7043 H         1 UNK         0.0600 
    192 H192       -4.2277  -24.8403  -43.9296 H         1 UNK         0.0600 
    193 H193       -5.4234  -25.8110  -44.7808 H         1 UNK         0.0600 
    194 H194       -5.8254  -24.1790  -44.2696 H         1 UNK         0.0600 
    195 H195       -2.0857  -24.4913  -45.2900 H         1 UNK         0.3000 
    196 H196       -1.5968  -27.0837  -46.3245 H         1 UNK         0.0600 
    197 H197        0.6740  -26.7352  -45.3821 H         1 UNK         0.0600 
    198 H198       -0.5635  -26.2000  -44.2558 H         1 UNK         0.0600 
    199 H199        0.3529  -25.0181  -45.1857 H         1 UNK         0.0600 
    200 H200       -0.8160  -23.8893  -47.7160 H         1 UNK         0.3000 
    201 H201        0.6979  -25.2345  -49.9309 H         1 UNK         0.0600 
    202 H202        2.1477  -23.8130  -48.5041 H         1 UNK         0.0600 
    203 H203        1.0953  -22.4276  -48.7753 H         1 UNK         0.0600 
    204 H204        1.9741  -23.1415  -50.1179 H         1 UNK         0.0600 
    205 H205       -1.3744  -22.3642  -49.1684 H         1 UNK         0.3000 
    206 H206       -1.8579  -21.8676  -51.9725 H         1 UNK         0.0600 
    207 H207       -1.7668  -20.0561  -50.2247 H         1 UNK         0.0600 
    208 H208       -3.2589  -20.0121  -51.1519 H         1 UNK         0.0600 
    209 H209       -3.2659  -20.6728  -49.5356 H         1 UNK         0.0600 
    210 H210       -3.5047  -23.7865  -49.5983 H         1 UNK         0.3000 
    211 H211       -5.3477  -25.0242  -49.5178 H         1 UNK         0.0600 
    212 H212       -5.2181  -25.0353  -52.5822 H         1 UNK         0.0600 
    213 H213       -6.0772  -26.1903  -51.5736 H         1 UNK         0.0600 
    214 H214       -4.3228  -26.1196  -51.5205 H         1 UNK         0.0600 
    215 H215       -5.8523  -22.4403  -49.0269 H         1 UNK         0.3000 
    216 H216       -7.3220  -20.8022  -48.8786 H         1 UNK         0.0600 
    217 H217       -9.7344  -21.2744  -49.0221 H         1 UNK         0.0600 
    218 H218       -8.9226  -22.6227  -48.2434 H         1 UNK         0.0600 
    219 H219       -9.4422  -22.7547  -49.9233 H         1 UNK         0.0600 
    220 H220       -5.7392  -20.9362  -51.1273 H         1 UNK         0.3000 
    221 H221       -5.1888  -19.8340  -52.9267 H         1 UNK         0.0600 
    222 H222       -7.9219  -18.4660  -53.0122 H         1 UNK         0.0600 
    223 H223       -6.5251  -17.8833  -52.1033 H         1 UNK         0.0600 
    224 H224       -6.4618  -17.9728  -53.8540 H         1 UNK         0.0600 
    225 H225       -7.1531  -22.3925  -52.9228 H         1 UNK         0.3000 
    226 H226       -8.0718  -22.4855  -55.6499 H         1 UNK         0.0600 
    227 H227       -9.0249  -23.8862  -53.7769 H         1 UNK         0.0600 
    228 H228       -8.5504  -24.8300  -55.1815 H         1 UNK         0.0600 
    229 H229       -7.5287  -24.8233  -53.7546 H         1 UNK         0.0600 
    230 H230       -4.9569  -23.0803  -54.1334 H         1 UNK         0.3000 
    231 H231       -3.8127  -24.3374  -56.5672 H         1 UNK         0.0600 
    232 H232       -3.2208  -25.1886  -54.2492 H         1 UNK         0.0600 
    233 H233       -2.4580  -23.6344  -53.9165 H         1 UNK         0.0600 
    234 H234       -1.8347  -24.6662  -55.1908 H         1 UNK         0.0600 
    235 H235       -4.8555  -21.4105  -56.1890 H         1 UNK         0.3000 
    236 H236       -4.4564  -19.3624  -56.8706 H         1 UNK         0.0600 
    237 H237       -2.1777  -20.5164  -58.5641 H         1 UNK         0.0600 
    238 H238       -3.8796  -20.5138  -59.0256 H         1 UNK         0.0600 
    239 H239       -3.0186  -18.9966  -58.8343 H         1 UNK         0.0600 
    240 H240       -3.0202  -20.3952  -54.4979 H         1 UNK         0.3000 
    241 H241       -1.6556  -19.7646  -52.8914 H         1 UNK         0.0600 
    242 H242       -0.4746  -21.0535  -55.4706 H         1 UNK         0.3800 
    243 H243        1.2341  -20.8512  -55.1790 H         1 UNK         0.3800 
    244 H244       -1.3298  -17.0564  -54.2526 H         1 UNK         0.0800 
    245 H245       -0.8675  -17.4451  -52.6196 H         1 UNK         0.0800 
    246 H246       -3.7898  -15.3248  -51.5788 H         1 UNK         0.0800 
    247 H247       -2.0800  -15.4084  -51.8888 H         1 UNK         0.0800 
@<TRIPOS>BOND
     1    1    2 1    
     2    1  127 1    
     3    1  128 1    
     4    1  129 1    
     5    2    3 2    
     6    2    4 am   BACKBONE|DICT|INTERRES
     7    4    5 1    
     8    4  130 1    
     9    5    6 1    
    10    5   65 1    
    11    5  131 1    
    12    6    7 1    
    13    6  132 1    
    14    6  133 1    
    15    7    8 1    
    16    8    9 1    
    17    8  134 1    
    18    8  135 1    
    19    9   10 ar   
    20    9   14 ar   
    21   10   11 ar   
    22   10  136 1    
    23   11   12 ar   
    24   11  126 1    
    25   12   13 ar   
    26   12  137 1    
    27   13   14 ar   
    28   13   15 1    
    29   14  138 1    
    30   15   16 1    
    31   15  139 1    
    32   15  140 1    
    33   16   17 1    
    34   17   18 1    
    35   17  141 1    
    36   17  142 1    
    37   18   19 1    
    38   18   67 1    
    39   18  143 1    
    40   19   20 am   BACKBONE|DICT|INTERRES
    41   19  144 1    
    42   20   21 2    
    43   20   22 1    
    44   22   23 1    
    45   22   24 1    
    46   22  145 1    
    47   23  146 1    
    48   23  147 1    
    49   23  148 1    
    50   24   25 am   BACKBONE|DICT|INTERRES
    51   24  149 1    
    52   25   26 2    
    53   25   27 1    
    54   27   28 1    
    55   27   29 1    
    56   27  150 1    
    57   28  151 1    
    58   28  152 1    
    59   28  153 1    
    60   29   30 am   BACKBONE|DICT|INTERRES
    61   29  154 1    
    62   30   31 2    
    63   30   32 1    
    64   32   33 1    
    65   32   34 1    
    66   32  155 1    
    67   33  156 1    
    68   33  157 1    
    69   33  158 1    
    70   34   35 am   BACKBONE|DICT|INTERRES
    71   34  159 1    
    72   35   36 2    
    73   35   37 1    
    74   37   38 1    
    75   37   39 1    
    76   37  160 1    
    77   38  161 1    
    78   38  162 1    
    79   38  163 1    
    80   39   40 am   BACKBONE|DICT|INTERRES
    81   39  164 1    
    82   40   41 2    
    83   40   42 1    
    84   42   43 1    
    85   42   44 1    
    86   42  165 1    
    87   43  166 1    
    88   43  167 1    
    89   43  168 1    
    90   44   45 am   BACKBONE|DICT|INTERRES
    91   44  169 1    
    92   45   46 2    
    93   45   47 1    
    94   47   48 1    
    95   47   49 1    
    96   47  170 1    
    97   48  171 1    
    98   48  172 1    
    99   48  173 1    
   100   49   50 am   BACKBONE|DICT|INTERRES
   101   49  174 1    
   102   50   51 2    
   103   50   52 1    
   104   52   53 1    
   105   52   54 1    
   106   52  175 1    
   107   53  176 1    
   108   53  177 1    
   109   53  178 1    
   110   54   55 am   BACKBONE|DICT|INTERRES
   111   54  179 1    
   112   55   56 2    
   113   55   57 1    
   114   57   58 1    
   115   57   59 1    
   116   57  180 1    
   117   58  181 1    
   118   58  182 1    
   119   58  183 1    
   120   59   60 am   BACKBONE|DICT|INTERRES
   121   59  184 1    
   122   60   61 2    
   123   60   62 1    
   124   62   63 1    
   125   62   64 1    
   126   62  185 1    
   127   63  186 1    
   128   63  187 1    
   129   63  188 1    
   130   64   65 am   BACKBONE|DICT|INTERRES
   131   64  189 1    
   132   65   66 2    
   133   67   68 2    
   134   67   69 am   BACKBONE|DICT|INTERRES
   135   69   70 1    
   136   69  190 1    
   137   70   71 1    
   138   70   72 1    
   139   70  191 1    
   140   71  192 1    
   141   71  193 1    
   142   71  194 1    
   143   72   73 2    
   144   72   74 am   BACKBONE|DICT|INTERRES
   145   74   75 1    
   146   74  195 1    
   147   75   76 1    
   148   75   77 1    
   149   75  196 1    
   150   76  197 1    
   151   76  198 1    
   152   76  199 1    
   153   77   78 2    
   154   77   79 am   BACKBONE|DICT|INTERRES
   155   79   80 1    
   156   79  200 1    
   157   80   81 1    
   158   80   82 1    
   159   80  201 1    
   160   81  202 1    
   161   81  203 1    
   162   81  204 1    
   163   82   83 2    
   164   82   84 am   BACKBONE|DICT|INTERRES
   165   84   85 1    
   166   84  205 1    
   167   85   86 1    
   168   85   87 1    
   169   85  206 1    
   170   86  207 1    
   171   86  208 1    
   172   86  209 1    
   173   87   88 2    
   174   87   89 am   BACKBONE|DICT|INTERRES
   175   89   90 1    
   176   89  210 1    
   177   90   91 1    
   178   90   92 1    
   179   90  211 1    
   180   91  212 1    
   181   91  213 1    
   182   91  214 1    
   183   92   93 2    
   184   92   94 am   BACKBONE|DICT|INTERRES
   185   94   95 1    
   186   94  215 1    
   187   95   96 1    
   188   95   97 1    
   189   95  216 1    
   190   96  217 1    
   191   96  218 1    
   192   96  219 1    
   193   97   98 2    
   194   97   99 am   BACKBONE|DICT|INTERRES
   195   99  100 1    
   196   99  220 1    
   197  100  101 1    
   198  100  102 1    
   199  100  221 1    
   200  101  222 1    
   201  101  223 1    
   202  101  224 1    
   203  102  103 2    
   204  102  104 am   BACKBONE|DICT|INTERRES
   205  104  105 1    
   206  104  225 1    
   207  105  106 1    
   208  105  107 1    
   209  105  226 1    
   210  106  227 1    
   211  106  228 1    
   212  106  229 1    
   213  107  108 2    
   214  107  109 am   BACKBONE|DICT|INTERRES
   215  109  110 1    
   216  109  230 1    
   217  110  111 1    
   218  110  112 1    
   219  110  231 1    
   220  111  232 1    
   221  111  233 1    
   222  111  234 1    
   223  112  113 2    
   224  112  114 am   BACKBONE|DICT|INTERRES
   225  114  115 1    
   226  114  235 1    
   227  115  116 1    
   228  115  117 1    
   229  115  236 1    
   230  116  237 1    
   231  116  238 1    
   232  116  239 1    
   233  117  118 2    
   234  117  119 am   BACKBONE|DICT|INTERRES
   235  119  120 1    
   236  119  240 1    
   237  120  121 1    
   238  120  124 1    
   239  120  241 1    
   240  121  122 am   BACKBONE|DICT|INTERRES
   241  121  123 2    
   242  122  242 1    
   243  122  243 1    
   244  124  125 1    
   245  124  244 1    
   246  124  245 1    
   247  125  126 1    
   248  126  246 1    
   249  126  247 1    
@<TRIPOS>SUBSTRUCTURE
     1 UNK         1 GROUP             0       ****    0 ROOT    
