@<TRIPOS>MOLECULE
3R540
247   249    1
SMALL
USER_CHARGES


@<TRIPOS>ATOM
      1 CA         -5.1225  -15.0950  -43.1375 C.3       0 UNK        -0.1800 
      2 C          -3.6393  -14.9224  -43.4257 C.2       0 UNK         0.5000 
      3 O          -3.0755  -13.8666  -43.1361 O.2       0 UNK        -0.5000 
      4 N          -2.9924  -15.9607  -43.9714 N.am      1 UNK        -0.5000 
      5 CA         -1.5833  -15.9583  -44.3991 C.3       1 UNK         0.1400 
      6 C6         -1.2660  -17.1142  -45.3774 C.3       23 UNK        -0.0398 
      7 S7         -2.2358  -16.9482  -46.9148 S.3       23 UNK        -0.2404 
      8 C8         -1.0082  -16.2631  -48.0765 C.3       23 UNK        -0.0205 
      9 C9         -0.7550  -17.2457  -49.2052 C.ar      23 UNK        -0.0193 
     10 C10        -1.4457  -17.1238  -50.4131 C.ar      23 UNK        -0.1150 
     11 C11        -1.2994  -18.0890  -51.4122 C.ar      23 UNK        -0.0193 
     12 C12        -0.4585  -19.1835  -51.1879 C.ar      23 UNK        -0.1150 
     13 C13         0.2656  -19.3034  -49.9988 C.ar      23 UNK        -0.0193 
     14 C14         0.1253  -18.3132  -49.0181 C.ar      23 UNK        -0.1150 
     15 C15         1.1616  -20.5280  -49.8006 C.3       23 UNK        -0.0205 
     16 S16         1.3189  -21.0998  -48.0708 S.3       23 UNK        -0.2404 
     17 C17        -0.4301  -21.2036  -47.5665 C.3       23 UNK        -0.0398 
     18 CA         -0.7464  -22.4712  -46.7487 C.3       11 UNK         0.1400 
     19 N           0.0059  -22.5177  -45.4937 N.am      11 UNK        -0.5000 
     20 C           0.0052  -23.5445  -44.6324 C.2       10 UNK         0.5000 
     21 O          -0.6001  -24.5969  -44.8333 O.2       10 UNK        -0.5000 
     22 CA          0.7497  -23.3488  -43.2980 C.3       10 UNK         0.1400 
     23 CB          2.1427  -23.9910  -43.3677 C.3       10 UNK        -0.1800 
     24 N           0.8917  -21.9492  -42.8876 N.am      10 UNK        -0.5000 
     25 C          -0.1067  -21.0731  -42.6956 C.2       9 UNK         0.5000 
     26 O          -1.2976  -21.3493  -42.8415 O.2       9 UNK        -0.5000 
     27 CA          0.3012  -19.6350  -42.3213 C.3       9 UNK         0.1400 
     28 CB          0.2734  -19.4648  -40.7958 C.3       9 UNK        -0.1800 
     29 N           1.6284  -19.2555  -42.8179 N.am      9 UNK        -0.5000 
     30 C           1.9763  -19.1753  -44.1095 C.2       8 UNK         0.5000 
     31 O           1.2022  -19.3915  -45.0452 O.2       8 UNK        -0.5000 
     32 CA          3.4519  -18.8616  -44.3882 C.3       8 UNK         0.1400 
     33 CB          4.3326  -20.0885  -44.0810 C.3       8 UNK        -0.1800 
     34 N           3.6190  -18.4748  -45.7857 N.am      8 UNK        -0.5000 
     35 C           4.6427  -17.7593  -46.2658 C.2       7 UNK         0.5000 
     36 O           5.5570  -17.3220  -45.5662 O.2       7 UNK        -0.5000 
     37 CA          4.6331  -17.4378  -47.7658 C.3       7 UNK         0.1400 
     38 CB          4.0583  -18.5637  -48.6429 C.3       7 UNK        -0.1800 
     39 N           3.8660  -16.2150  -47.9481 N.am      7 UNK        -0.5000 
     40 C           4.0841  -15.2838  -48.8835 C.2       6 UNK         0.5000 
     41 O           4.9274  -15.3873  -49.7751 O.2       6 UNK        -0.5000 
     42 CA          3.2206  -14.0092  -48.7938 C.3       6 UNK         0.1400 
     43 CB          2.0115  -14.1135  -49.7366 C.3       6 UNK        -0.1800 
     44 N           2.7394  -13.7545  -47.4342 N.am      6 UNK        -0.5000 
     45 C           3.4917  -13.3675  -46.3976 C.2       5 UNK         0.5000 
     46 O           4.6790  -13.0552  -46.5027 O.2       5 UNK        -0.5000 
     47 CA          2.7974  -13.3574  -45.0174 C.3       5 UNK         0.1400 
     48 CB          3.7458  -12.9567  -43.8737 C.3       5 UNK        -0.1800 
     49 N           1.6072  -12.5074  -44.9507 N.am      5 UNK        -0.5000 
     50 C           0.4253  -12.7330  -45.5365 C.2       4 UNK         0.5000 
     51 O           0.2144  -13.6689  -46.3097 O.2       4 UNK        -0.5000 
     52 CA         -0.7172  -11.7798  -45.1388 C.3       4 UNK         0.1400 
     53 CB         -1.9929  -12.0018  -45.9716 C.3       4 UNK        -0.1800 
     54 N          -1.0428  -11.9489  -43.7231 N.am      4 UNK        -0.5000 
     55 C          -0.3777  -11.3944  -42.7004 C.2       3 UNK         0.5000 
     56 O           0.5757  -10.6276  -42.8441 O.2       3 UNK        -0.5000 
     57 CA         -0.8229  -11.8030  -41.2884 C.3       3 UNK         0.1400 
     58 CB         -2.1704  -11.1566  -40.9290 C.3       3 UNK        -0.1800 
     59 N          -0.9421  -13.2571  -41.1985 N.am      3 UNK        -0.5000 
     60 C          -0.0000  -14.0754  -40.7078 C.2       2 UNK         0.5000 
     61 O           1.0569  -13.6856  -40.2109 O.2       2 UNK        -0.5000 
     62 CA         -0.2817  -15.5900  -40.7918 C.3       2 UNK         0.1400 
     63 CB         -1.0511  -16.0589  -39.5469 C.3       2 UNK        -0.1800 
     64 N          -1.0457  -15.9460  -41.9875 N.am      2 UNK        -0.5000 
     65 C          -0.5654  -15.8861  -43.2375 C.2       1 UNK         0.5000 
     66 O           0.6297  -15.7385  -43.4906 O.2       1 UNK        -0.5000 
     67 C          -2.2711  -22.5754  -46.5406 C.2       11 UNK         0.5000 
     68 O          -2.9554  -23.0792  -47.4310 O.2       11 UNK        -0.5000 
     69 N          -2.7831  -22.1127  -45.3903 N.am      12 UNK        -0.5000 
     70 CA         -4.1978  -22.2246  -45.0345 C.3       12 UNK         0.1400 
     71 CB         -4.5258  -21.2346  -43.9073 C.3       12 UNK        -0.1800 
     72 C          -4.5773  -23.6619  -44.6351 C.2       12 UNK         0.5000 
     73 O          -5.6705  -24.1158  -44.9722 O.2       12 UNK        -0.5000 
     74 N          -3.6574  -24.3605  -43.9546 N.am      13 UNK        -0.5000 
     75 CA         -3.8062  -25.7604  -43.5536 C.3       13 UNK         0.1400 
     76 CB         -2.7961  -26.0835  -42.4415 C.3       13 UNK        -0.1800 
     77 C          -3.6390  -26.7209  -44.7446 C.2       13 UNK         0.5000 
     78 O          -4.3983  -27.6825  -44.8655 O.2       13 UNK        -0.5000 
     79 N          -2.6643  -26.4254  -45.6156 N.am      14 UNK        -0.5000 
     80 CA         -2.3785  -27.1700  -46.8443 C.3       14 UNK         0.1400 
     81 CB         -0.9666  -26.7965  -47.3236 C.3       14 UNK        -0.1800 
     82 C          -3.4024  -26.9213  -47.9709 C.2       14 UNK         0.5000 
     83 O          -3.4215  -27.6795  -48.9405 O.2       14 UNK        -0.5000 
     84 N          -4.2008  -25.8513  -47.8385 N.am      15 UNK        -0.5000 
     85 CA         -5.1769  -25.3231  -48.7998 C.3       15 UNK         0.1400 
     86 CB         -6.2786  -26.3535  -49.1206 C.3       15 UNK        -0.1800 
     87 C          -4.5343  -24.7200  -50.0681 C.2       15 UNK         0.5000 
     88 O          -5.2316  -24.4745  -51.0525 O.2       15 UNK        -0.5000 
     89 N          -3.2285  -24.4266  -50.0068 N.am      16 UNK        -0.5000 
     90 CA         -2.4755  -23.7046  -51.0325 C.3       16 UNK         0.1400 
     91 CB         -0.9736  -23.8330  -50.7397 C.3       16 UNK        -0.1800 
     92 C          -2.8865  -22.2235  -51.1220 C.2       16 UNK         0.5000 
     93 O          -2.7927  -21.6344  -52.1971 O.2       16 UNK        -0.5000 
     94 N          -3.3781  -21.6641  -50.0058 N.am      17 UNK        -0.5000 
     95 CA         -3.9211  -20.3074  -49.9164 C.3       17 UNK         0.1400 
     96 CB         -4.1442  -19.9484  -48.4398 C.3       17 UNK        -0.1800 
     97 C          -5.2182  -20.1062  -50.7251 C.2       17 UNK         0.5000 
     98 O          -5.5275  -18.9745  -51.0977 O.2       17 UNK        -0.5000 
     99 N          -5.9536  -21.1982  -50.9796 N.am      18 UNK        -0.5000 
    100 CA        -7.1928  -21.1987  -51.7564 C.3       18 UNK         0.1400 
    101 CB        -8.0538  -22.3955  -51.3220 C.3       18 UNK        -0.1800 
    102 C         -6.9502  -21.2292  -53.2780 C.2       18 UNK         0.5000 
    103 O         -7.8687  -20.9079  -54.0336 O.2       18 UNK        -0.5000 
    104 N         -5.7424  -21.6177  -53.7121 N.am      19 UNK        -0.5000 
    105 CA        -5.3463  -21.6369  -55.1177 C.3       19 UNK         0.1400 
    106 CB        -4.1456  -22.5800  -55.2989 C.3       19 UNK        -0.1800 
    107 C         -4.9941  -20.2159  -55.5819 C.2       19 UNK         0.5000 
    108 O         -4.1594  -19.5659  -54.9524 O.2       19 UNK        -0.5000 
    109 N         -5.5993  -19.7680  -56.6893 N.am      20 UNK        -0.5000 
    110 CA        -5.3911  -18.4331  -57.2641 C.3       20 UNK         0.1400 
    111 CB        -6.4143  -18.2045  -58.3872 C.3       20 UNK        -0.1800 
    112 C         -3.9579  -18.1971  -57.7823 C.2       20 UNK         0.5000 
    113 O         -3.4871  -17.0593  -57.7762 O.2       20 UNK        -0.5000 
    114 N         -3.2907  -19.2787  -58.2056 N.am      21 UNK        -0.5000 
    115 CA        -1.8929  -19.2832  -58.6382 C.3       21 UNK         0.1400 
    116 CB        -1.6875  -20.4592  -59.6067 C.3       21 UNK        -0.1800 
    117 C         -0.8953  -19.3738  -57.4646 C.2       21 UNK         0.5000 
    118 O          0.2973  -19.1562  -57.6813 O.2       21 UNK        -0.5000 
    119 N         -1.3830  -19.7144  -56.2620 N.am      22 UNK        -0.5000 
    120 CA        -0.6077  -19.9083  -55.0225 C.3       22 UNK         0.1400 
    121 C          0.4033  -21.0966  -55.0464 C.2       22 UNK         0.5000 
    122 N          0.2958  -22.0400  -55.9744 N.am      22 UNK        -0.7600 
    123 O          1.2782  -21.1917  -54.1902 O.2       22 UNK        -0.5000 
    124 C124        0.0252  -18.5880  -54.4907 C.3       23 UNK        -0.0398 
    125 S125       -1.1992  -17.2886  -54.0965 S.3       23 UNK        -0.2404 
    126 C126       -2.1224  -17.9972  -52.6897 C.3       23 UNK        -0.0205 
    127 H127       -5.6981  -14.3489  -43.6851 H         1 UNK         0.0600 
    128 H128       -5.3153  -14.9621  -42.0730 H         1 UNK         0.0600 
    129 H129       -5.4801  -16.0829  -43.4289 H         1 UNK         0.0600 
    130 H130       -3.5094  -16.8000  -44.1918 H         1 UNK         0.3000 
    131 H131       -1.4391  -15.0307  -44.9507 H         1 UNK         0.0600 
    132 H132       -0.2038  -17.1448  -45.6247 H         1 UNK         0.0800 
    133 H133       -1.4943  -18.0791  -44.9224 H         1 UNK         0.0800 
    134 H134       -1.3827  -15.3169  -48.4700 H         1 UNK         0.0800 
    135 H135       -0.0708  -16.0274  -47.5726 H         1 UNK         0.0800 
    136 H136       -2.1295  -16.2995  -50.5588 H         1 UNK         0.1150 
    137 H137       -0.3818  -19.9587  -51.9369 H         1 UNK         0.1150 
    138 H138        0.6556  -18.3944  -48.0805 H         1 UNK         0.1150 
    139 H139        0.7860  -21.3610  -50.3960 H         1 UNK         0.0800 
    140 H140        2.1546  -20.3010  -50.1893 H         1 UNK         0.0800 
    141 H141       -1.0489  -21.1733  -48.4644 H         1 UNK         0.0800 
    142 H142       -0.6763  -20.3059  -46.9956 H         1 UNK         0.0800 
    143 H143       -0.4465  -23.3403  -47.3367 H         1 UNK         0.0600 
    144 H144        0.5262  -21.6821  -45.2591 H         1 UNK         0.3000 
    145 H145        0.1710  -23.8610  -42.5268 H         1 UNK         0.0600 
    146 H146        2.6476  -23.9465  -42.4026 H         1 UNK         0.0600 
    147 H147        2.0748  -25.0431  -43.6485 H         1 UNK         0.0600 
    148 H148        2.7774  -23.4950  -44.1033 H         1 UNK         0.0600 
    149 H149        1.8349  -21.6211  -42.7452 H         1 UNK         0.3000 
    150 H150       -0.4311  -18.9557  -42.7609 H         1 UNK         0.0600 
    151 H151        0.9454  -20.1666  -40.2999 H         1 UNK         0.0600 
    152 H152       -0.7295  -19.6363  -40.4026 H         1 UNK         0.0600 
    153 H153        0.5717  -18.4598  -40.5028 H         1 UNK         0.0600 
    154 H154        2.3274  -19.0653  -42.1143 H         1 UNK         0.3000 
    155 H155        3.7438  -18.0273  -43.7465 H         1 UNK         0.0600 
    156 H156        4.0628  -20.9403  -44.7069 H         1 UNK         0.0600 
    157 H157        4.2341  -20.3995  -43.0405 H         1 UNK         0.0600 
    158 H158        5.3877  -19.8728  -44.2499 H         1 UNK         0.0600 
    159 H159        2.8684  -18.7778  -46.3941 H         1 UNK         0.3000 
    160 H160        5.6708  -17.2675  -48.0612 H         1 UNK         0.0600 
    161 H161        2.9884  -18.6813  -48.4869 H         1 UNK         0.0600 
    162 H162        4.5370  -19.5196  -48.4266 H         1 UNK         0.0600 
    163 H163        4.2136  -18.3530  -49.7010 H         1 UNK         0.0600 
    164 H164        3.1736  -16.0211  -47.2395 H         1 UNK         0.3000 
    165 H165        3.8350  -13.1629  -49.1076 H         1 UNK         0.0600 
    166 H166        1.4073  -13.2066  -49.7069 H         1 UNK         0.0600 
    167 H167        2.3329  -14.2571  -50.7689 H         1 UNK         0.0600 
    168 H168        1.3679  -14.9541  -49.4749 H         1 UNK         0.0600 
    169 H169        1.7514  -13.9195  -47.2515 H         1 UNK         0.3000 
    170 H170        2.4821  -14.3850  -44.8285 H         1 UNK         0.0600 
    171 H171        4.6249  -13.6021  -43.8474 H         1 UNK         0.0600 
    172 H172        4.0928  -11.9282  -43.9808 H         1 UNK         0.0600 
    173 H173        3.2525  -13.0458  -42.9052 H         1 UNK         0.0600 
    174 H174        1.6604  -11.7200  -44.3150 H         1 UNK         0.3000 
    175 H175       -0.3761  -10.7576  -45.3154 H         1 UNK         0.0600 
    176 H176       -1.7913  -11.8741  -47.0358 H         1 UNK         0.0600 
    177 H177       -2.4016  -13.0031  -45.8329 H         1 UNK         0.0600 
    178 H178       -2.7686  -11.2860  -45.6995 H         1 UNK         0.0600 
    179 H179       -1.8039  -12.5915  -43.5163 H         1 UNK         0.3000 
    180 H180       -0.0765  -11.4391  -40.5791 H         1 UNK         0.0600 
    181 H181       -2.9705  -11.4841  -41.5941 H         1 UNK         0.0600 
    182 H182       -2.1114  -10.0695  -40.9956 H         1 UNK         0.0600 
    183 H183       -2.4634  -11.4044  -39.9088 H         1 UNK         0.0600 
    184 H184       -1.7602  -13.6615  -41.6403 H         1 UNK         0.3000 
    185 H185        0.6790  -16.1075  -40.8253 H         1 UNK         0.0600 
    186 H186       -0.4799  -15.8602  -38.6393 H         1 UNK         0.0600 
    187 H187       -2.0096  -15.5473  -39.4496 H         1 UNK         0.0600 
    188 H188       -1.2484  -17.1301  -39.5784 H         1 UNK         0.0600 
    189 H189       -2.0390  -16.0813  -41.8693 H         1 UNK         0.3000 
    190 H190       -2.1649  -21.7333  -44.6809 H         1 UNK         0.3000 
    191 H191       -4.7984  -21.9518  -45.9046 H         1 UNK         0.0600 
    192 H192       -4.2723  -20.2135  -44.1932 H         1 UNK         0.0600 
    193 H193       -5.5907  -21.2526  -43.6721 H         1 UNK         0.0600 
    194 H194       -3.9847  -21.4709  -42.9906 H         1 UNK         0.0600 
    195 H195       -2.7721  -23.9206  -43.7493 H         1 UNK         0.3000 
    196 H196       -4.8109  -25.8998  -43.1485 H         1 UNK         0.0600 
    197 H197       -2.9088  -27.1138  -42.1016 H         1 UNK         0.0600 
    198 H198       -2.9437  -25.4381  -41.5756 H         1 UNK         0.0600 
    199 H199       -1.7664  -25.9613  -42.7788 H         1 UNK         0.0600 
    200 H200       -2.0334  -25.6582  -45.3952 H         1 UNK         0.3000 
    201 H201       -2.3931  -28.2374  -46.6145 H         1 UNK         0.0600 
    202 H202       -0.6897  -27.3645  -48.2127 H         1 UNK         0.0600 
    203 H203       -0.2207  -27.0091  -46.5574 H         1 UNK         0.0600 
    204 H204       -0.8949  -25.7379  -47.5745 H         1 UNK         0.0600 
    205 H205       -4.0700  -25.2843  -47.0120 H         1 UNK         0.3000 
    206 H206       -5.6572  -24.4858  -48.2914 H         1 UNK         0.0600 
    207 H207       -6.7129  -26.7629  -48.2085 H         1 UNK         0.0600 
    208 H208       -7.0894  -25.8933  -49.6866 H         1 UNK         0.0600 
    209 H209       -5.8995  -27.1840  -49.7162 H         1 UNK         0.0600 
    210 H210       -2.7610  -24.5863  -49.1258 H         1 UNK         0.3000 
    211 H211       -2.6806  -24.1672  -52.0002 H         1 UNK         0.0600 
    212 H212       -0.7091  -23.3860  -49.7817 H         1 UNK         0.0600 
    213 H213       -0.3837  -23.3345  -51.5101 H         1 UNK         0.0600 
    214 H214       -0.6638  -24.8780  -50.7191 H         1 UNK         0.0600 
    215 H215       -3.4038  -22.2228  -49.1588 H         1 UNK         0.3000 
    216 H216       -3.1800  -19.6211  -50.3201 H         1 UNK         0.0600 
    217 H217       -4.5524  -18.9418  -48.3398 H         1 UNK         0.0600 
    218 H218       -3.2087  -19.9674  -47.8817 H         1 UNK         0.0600 
    219 H219       -4.8409  -20.6360  -47.9601 H         1 UNK         0.0600 
    220 H220       -5.6178  -22.0981  -50.6663 H         1 UNK         0.3000 
    221 H221       -7.7506  -20.2870  -51.5318 H         1 UNK         0.0600 
    222 H222       -7.5782  -23.3457  -51.5654 H         1 UNK         0.0600 
    223 H223       -8.2436  -22.3788  -50.2486 H         1 UNK         0.0600 
    224 H224       -9.0226  -22.3794  -51.8227 H         1 UNK         0.0600 
    225 H225       -5.0100  -21.7882  -53.0365 H         1 UNK         0.3000 
    226 H226       -6.1745  -22.0223  -55.7163 H         1 UNK         0.0600 
    227 H227       -3.8676  -22.6587  -56.3505 H         1 UNK         0.0600 
    228 H228       -3.2674  -22.2301  -54.7553 H         1 UNK         0.0600 
    229 H229       -4.3771  -23.5856  -54.9470 H         1 UNK         0.0600 
    230 H230       -6.2762  -20.3569  -57.1532 H         1 UNK         0.3000 
    231 H231       -5.5779  -17.6984  -56.4780 H         1 UNK         0.0600 
    232 H232       -6.2946  -18.9282  -59.1945 H         1 UNK         0.0600 
    233 H233       -6.3038  -17.2092  -58.8197 H         1 UNK         0.0600 
    234 H234       -7.4353  -18.2827  -58.0133 H         1 UNK         0.0600 
    235 H235       -3.7652  -20.1693  -58.1904 H         1 UNK         0.3000 
    236 H236       -1.6813  -18.3576  -59.1778 H         1 UNK         0.0600 
    237 H237       -2.3449  -20.3760  -60.4724 H         1 UNK         0.0600 
    238 H238       -0.6632  -20.4847  -59.9811 H         1 UNK         0.0600 
    239 H239       -1.8852  -21.4178  -59.1255 H         1 UNK         0.0600 
    240 H240       -2.3850  -19.8035  -56.1529 H         1 UNK         0.3000 
    241 H241       -1.3410  -20.2413  -54.2906 H         1 UNK         0.0600 
    242 H242       -0.4191  -21.9878  -56.6809 H         1 UNK         0.3800 
    243 H243        0.9468  -22.8093  -55.9743 H         1 UNK         0.3800 
    244 H244        0.6341  -18.7592  -53.6042 H         1 UNK         0.0800 
    245 H245        0.7171  -18.1825  -55.2293 H         1 UNK         0.0800 
    246 H246       -3.0011  -17.3743  -52.5158 H         1 UNK         0.0800 
    247 H247       -2.5210  -18.9785  -52.9428 H         1 UNK         0.0800 
@<TRIPOS>BOND
     1    1    2 1    
     2    1  127 1    
     3    1  128 1    
     4    1  129 1    
     5    2    3 2    
     6    2    4 am   BACKBONE|DICT|INTERRES
     7    4    5 1    
     8    4  130 1    
     9    5    6 1    
    10    5   65 1    
    11    5  131 1    
    12    6    7 1    
    13    6  132 1    
    14    6  133 1    
    15    7    8 1    
    16    8    9 1    
    17    8  134 1    
    18    8  135 1    
    19    9   10 ar   
    20    9   14 ar   
    21   10   11 ar   
    22   10  136 1    
    23   11   12 ar   
    24   11  126 1    
    25   12   13 ar   
    26   12  137 1    
    27   13   14 ar   
    28   13   15 1    
    29   14  138 1    
    30   15   16 1    
    31   15  139 1    
    32   15  140 1    
    33   16   17 1    
    34   17   18 1    
    35   17  141 1    
    36   17  142 1    
    37   18   19 1    
    38   18   67 1    
    39   18  143 1    
    40   19   20 am   BACKBONE|DICT|INTERRES
    41   19  144 1    
    42   20   21 2    
    43   20   22 1    
    44   22   23 1    
    45   22   24 1    
    46   22  145 1    
    47   23  146 1    
    48   23  147 1    
    49   23  148 1    
    50   24   25 am   BACKBONE|DICT|INTERRES
    51   24  149 1    
    52   25   26 2    
    53   25   27 1    
    54   27   28 1    
    55   27   29 1    
    56   27  150 1    
    57   28  151 1    
    58   28  152 1    
    59   28  153 1    
    60   29   30 am   BACKBONE|DICT|INTERRES
    61   29  154 1    
    62   30   31 2    
    63   30   32 1    
    64   32   33 1    
    65   32   34 1    
    66   32  155 1    
    67   33  156 1    
    68   33  157 1    
    69   33  158 1    
    70   34   35 am   BACKBONE|DICT|INTERRES
    71   34  159 1    
    72   35   36 2    
    73   35   37 1    
    74   37   38 1    
    75   37   39 1    
    76   37  160 1    
    77   38  161 1    
    78   38  162 1    
    79   38  163 1    
    80   39   40 am   BACKBONE|DICT|INTERRES
    81   39  164 1    
    82   40   41 2    
    83   40   42 1    
    84   42   43 1    
    85   42   44 1    
    86   42  165 1    
    87   43  166 1    
    88   43  167 1    
    89   43  168 1    
    90   44   45 am   BACKBONE|DICT|INTERRES
    91   44  169 1    
    92   45   46 2    
    93   45   47 1    
    94   47   48 1    
    95   47   49 1    
    96   47  170 1    
    97   48  171 1    
    98   48  172 1    
    99   48  173 1    
   100   49   50 am   BACKBONE|DICT|INTERRES
   101   49  174 1    
   102   50   51 2    
   103   50   52 1    
   104   52   53 1    
   105   52   54 1    
   106   52  175 1    
   107   53  176 1    
   108   53  177 1    
   109   53  178 1    
   110   54   55 am   BACKBONE|DICT|INTERRES
   111   54  179 1    
   112   55   56 2    
   113   55   57 1    
   114   57   58 1    
   115   57   59 1    
   116   57  180 1    
   117   58  181 1    
   118   58  182 1    
   119   58  183 1    
   120   59   60 am   BACKBONE|DICT|INTERRES
   121   59  184 1    
   122   60   61 2    
   123   60   62 1    
   124   62   63 1    
   125   62   64 1    
   126   62  185 1    
   127   63  186 1    
   128   63  187 1    
   129   63  188 1    
   130   64   65 am   BACKBONE|DICT|INTERRES
   131   64  189 1    
   132   65   66 2    
   133   67   68 2    
   134   67   69 am   BACKBONE|DICT|INTERRES
   135   69   70 1    
   136   69  190 1    
   137   70   71 1    
   138   70   72 1    
   139   70  191 1    
   140   71  192 1    
   141   71  193 1    
   142   71  194 1    
   143   72   73 2    
   144   72   74 am   BACKBONE|DICT|INTERRES
   145   74   75 1    
   146   74  195 1    
   147   75   76 1    
   148   75   77 1    
   149   75  196 1    
   150   76  197 1    
   151   76  198 1    
   152   76  199 1    
   153   77   78 2    
   154   77   79 am   BACKBONE|DICT|INTERRES
   155   79   80 1    
   156   79  200 1    
   157   80   81 1    
   158   80   82 1    
   159   80  201 1    
   160   81  202 1    
   161   81  203 1    
   162   81  204 1    
   163   82   83 2    
   164   82   84 am   BACKBONE|DICT|INTERRES
   165   84   85 1    
   166   84  205 1    
   167   85   86 1    
   168   85   87 1    
   169   85  206 1    
   170   86  207 1    
   171   86  208 1    
   172   86  209 1    
   173   87   88 2    
   174   87   89 am   BACKBONE|DICT|INTERRES
   175   89   90 1    
   176   89  210 1    
   177   90   91 1    
   178   90   92 1    
   179   90  211 1    
   180   91  212 1    
   181   91  213 1    
   182   91  214 1    
   183   92   93 2    
   184   92   94 am   BACKBONE|DICT|INTERRES
   185   94   95 1    
   186   94  215 1    
   187   95   96 1    
   188   95   97 1    
   189   95  216 1    
   190   96  217 1    
   191   96  218 1    
   192   96  219 1    
   193   97   98 2    
   194   97   99 am   BACKBONE|DICT|INTERRES
   195   99  100 1    
   196   99  220 1    
   197  100  101 1    
   198  100  102 1    
   199  100  221 1    
   200  101  222 1    
   201  101  223 1    
   202  101  224 1    
   203  102  103 2    
   204  102  104 am   BACKBONE|DICT|INTERRES
   205  104  105 1    
   206  104  225 1    
   207  105  106 1    
   208  105  107 1    
   209  105  226 1    
   210  106  227 1    
   211  106  228 1    
   212  106  229 1    
   213  107  108 2    
   214  107  109 am   BACKBONE|DICT|INTERRES
   215  109  110 1    
   216  109  230 1    
   217  110  111 1    
   218  110  112 1    
   219  110  231 1    
   220  111  232 1    
   221  111  233 1    
   222  111  234 1    
   223  112  113 2    
   224  112  114 am   BACKBONE|DICT|INTERRES
   225  114  115 1    
   226  114  235 1    
   227  115  116 1    
   228  115  117 1    
   229  115  236 1    
   230  116  237 1    
   231  116  238 1    
   232  116  239 1    
   233  117  118 2    
   234  117  119 am   BACKBONE|DICT|INTERRES
   235  119  120 1    
   236  119  240 1    
   237  120  121 1    
   238  120  124 1    
   239  120  241 1    
   240  121  122 am   BACKBONE|DICT|INTERRES
   241  121  123 2    
   242  122  242 1    
   243  122  243 1    
   244  124  125 1    
   245  124  244 1    
   246  124  245 1    
   247  125  126 1    
   248  126  246 1    
   249  126  247 1    
@<TRIPOS>SUBSTRUCTURE
     1 UNK         1 GROUP             0       ****    0 ROOT    
