@<TRIPOS>MOLECULE
3R540
247   249    1
SMALL
USER_CHARGES


@<TRIPOS>ATOM
      1 CA          0.7396  -14.6589  -53.9267 C.3       0 UNK        -0.1800 
      2 C           0.8339  -14.7415  -52.4092 C.2       0 UNK         0.5000 
      3 O           1.9367  -14.8339  -51.8698 O.2       0 UNK        -0.5000 
      4 N          -0.3174  -14.7210  -51.7269 N.am      1 UNK        -0.5000 
      5 CA         -0.4258  -14.7818  -50.2663 C.3       1 UNK         0.1400 
      6 C6         -1.8417  -15.2431  -49.8285 C.3       23 UNK        -0.0398 
      7 S7         -1.8103  -16.1569  -48.2477 S.3       23 UNK        -0.2404 
      8 C8         -1.8108  -17.8848  -48.8180 C.3       23 UNK        -0.0205 
      9 C9         -0.5660  -18.2306  -49.6207 C.ar      23 UNK        -0.0193 
     10 C10        -0.6182  -18.2783  -51.0174 C.ar      23 UNK        -0.1150 
     11 C11         0.5340  -18.5487  -51.7595 C.ar      23 UNK        -0.0193 
     12 C12         1.7387  -18.7911  -51.0955 C.ar      23 UNK        -0.1150 
     13 C13         1.8056  -18.7470  -49.7003 C.ar      23 UNK        -0.0193 
     14 C14         0.6456  -18.4744  -48.9679 C.ar      23 UNK        -0.1150 
     15 C15         3.1482  -18.9339  -49.0071 C.3       23 UNK        -0.0205 
     16 S16         3.4405  -20.6529  -48.4906 S.3       23 UNK        -0.2404 
     17 C17         2.6628  -20.7075  -46.8396 C.3       23 UNK        -0.0398 
     18 CA          1.7839  -21.9670  -46.6540 C.3       11 UNK         0.1400 
     19 N           1.7420  -22.4087  -45.2577 N.am      11 UNK        -0.5000 
     20 C           1.3767  -23.6408  -44.8771 C.2       10 UNK         0.5000 
     21 O           1.0580  -24.5324  -45.6647 O.2       10 UNK        -0.5000 
     22 CA          1.3100  -23.8993  -43.3606 C.3       10 UNK         0.1400 
     23 CB          2.7055  -24.2090  -42.7993 C.3       10 UNK        -0.1800 
     24 N           0.7231  -22.7846  -42.6124 N.am      10 UNK        -0.5000 
     25 C          -0.5232  -22.3242  -42.7731 C.2       9 UNK         0.5000 
     26 O          -1.3060  -22.7877  -43.6005 O.2       9 UNK        -0.5000 
     27 CA         -0.9843  -21.1392  -41.9056 C.3       9 UNK         0.1400 
     28 CB         -1.7708  -21.6285  -40.6761 C.3       9 UNK        -0.1800 
     29 N           0.0618  -20.1857  -41.5201 N.am      9 UNK        -0.5000 
     30 C           1.0960  -20.3399  -40.6819 C.2       8 UNK         0.5000 
     31 O           1.4278  -21.4171  -40.1867 O.2       8 UNK        -0.5000 
     32 CA          1.8930  -19.0666  -40.3362 C.3       8 UNK         0.1400 
     33 CB          3.1018  -18.9204  -41.2726 C.3       8 UNK        -0.1800 
     34 N           1.0771  -17.8488  -40.3939 N.am      8 UNK        -0.5000 
     35 C           0.0662  -17.5678  -39.5568 C.2       7 UNK         0.5000 
     36 O          -0.2312  -18.2661  -38.5868 O.2       7 UNK        -0.5000 
     37 CA         -0.7729  -16.3134  -39.8670 C.3       7 UNK         0.1400 
     38 CB         -0.1110  -15.0569  -39.2817 C.3       7 UNK        -0.1800 
     39 N          -1.0095  -16.1255  -41.3001 N.am      7 UNK        -0.5000 
     40 C          -1.7654  -16.9306  -42.0621 C.2       6 UNK         0.5000 
     41 O          -2.3930  -17.8950  -41.6254 O.2       6 UNK        -0.5000 
     42 CA         -1.7879  -16.6406  -43.5752 C.3       6 UNK         0.1400 
     43 CB         -2.7985  -15.5363  -43.9169 C.3       6 UNK        -0.1800 
     44 N          -0.4703  -16.2713  -44.0879 N.am      6 UNK        -0.5000 
     45 C           0.5907  -17.0884  -44.1184 C.2       5 UNK         0.5000 
     46 O           0.5512  -18.2770  -43.7979 O.2       5 UNK        -0.5000 
     47 CA          1.9306  -16.4551  -44.5302 C.3       5 UNK         0.1400 
     48 CB          2.0769  -16.4254  -46.0555 C.3       5 UNK        -0.1800 
     49 N           2.0857  -15.1018  -43.9988 N.am      5 UNK        -0.5000 
     50 C           2.3170  -14.8206  -42.7096 C.2       4 UNK         0.5000 
     51 O           2.4425  -15.6790  -41.8374 O.2       4 UNK        -0.5000 
     52 CA          2.3833  -13.3307  -42.3264 C.3       4 UNK         0.1400 
     53 CB          3.7961  -12.7755  -42.5595 C.3       4 UNK        -0.1800 
     54 N           1.4152  -12.5164  -43.0625 N.am      4 UNK        -0.5000 
     55 C           0.0859  -12.6066  -42.9157 C.2       3 UNK         0.5000 
     56 O          -0.4627  -13.3631  -42.1156 O.2       3 UNK        -0.5000 
     57 CA         -0.7740  -11.7473  -43.8617 C.3       3 UNK         0.1400 
     58 CB         -0.9695  -10.3379  -43.2837 C.3       3 UNK        -0.1800 
     59 N          -0.2280  -11.6470  -45.2198 N.am      3 UNK        -0.5000 
     60 C          -0.0239  -12.6911  -46.0330 C.2       2 UNK         0.5000 
     61 O          -0.2355  -13.8623  -45.7069 O.2       2 UNK        -0.5000 
     62 CA          0.5511  -12.3838  -47.4214 C.3       2 UNK         0.1400 
     63 CB          2.0749  -12.1885  -47.3524 C.3       2 UNK        -0.1800 
     64 N           0.2472  -13.5097  -48.2948 N.am      2 UNK        -0.5000 
     65 C          -0.0275  -13.4455  -49.5997 C.2       1 UNK         0.5000 
     66 O          -0.0075  -12.3982  -50.2527 O.2       1 UNK        -0.5000 
     67 C           0.3657  -21.7826  -47.2320 C.2       11 UNK         0.5000 
     68 O           0.1398  -22.1078  -48.3955 O.2       11 UNK        -0.5000 
     69 N          -0.5826  -21.3257  -46.3991 N.am      12 UNK        -0.5000 
     70 CA         -1.9964  -21.2230  -46.7608 C.3       12 UNK         0.1400 
     71 CB         -2.7597  -20.4002  -45.7136 C.3       12 UNK        -0.1800 
     72 C          -2.6452  -22.5975  -46.9820 C.2       12 UNK         0.5000 
     73 O          -3.3954  -22.7548  -47.9434 O.2       12 UNK        -0.5000 
     74 N          -2.3081  -23.5781  -46.1342 N.am      13 UNK        -0.5000 
     75 CA         -2.7083  -24.9779  -46.2790 C.3       13 UNK         0.1400 
     76 CB         -2.2787  -25.7723  -45.0370 C.3       13 UNK        -0.1800 
     77 C          -2.1556  -25.6156  -47.5674 C.2       13 UNK         0.5000 
     78 O          -2.9052  -26.2888  -48.2756 O.2       13 UNK        -0.5000 
     79 N          -0.8809  -25.3397  -47.8845 N.am      14 UNK        -0.5000 
     80 CA         -0.2315  -25.7352  -49.1395 C.3       14 UNK         0.1400 
     81 CB          1.2699  -25.4197  -49.0658 C.3       14 UNK        -0.1800 
     82 C          -0.8728  -25.0814  -50.3819 C.2       14 UNK         0.5000 
     83 O          -0.9673  -25.7236  -51.4276 O.2       14 UNK        -0.5000 
     84 N          -1.3596  -23.8439  -50.2240 N.am      15 UNK        -0.5000 
     85 CA         -2.1452  -23.0868  -51.2006 C.3       15 UNK         0.1400 
     86 CB         -1.9411  -21.5844  -50.9363 C.3       15 UNK        -0.1800 
     87 C          -3.6453  -23.4659  -51.2125 C.2       15 UNK         0.5000 
     88 O          -4.4533  -22.6968  -51.7355 O.2       15 UNK        -0.5000 
     89 N          -4.0022  -24.6266  -50.6404 N.am      16 UNK        -0.5000 
     90 CA         -5.3400  -25.2258  -50.5897 C.3       16 UNK         0.1400 
     91 CB         -5.8210  -25.6027  -52.0071 C.3       16 UNK        -0.1800 
     92 C          -6.3519  -24.3623  -49.8107 C.2       16 UNK         0.5000 
     93 O          -7.4563  -24.1122  -50.2931 O.2       16 UNK        -0.5000 
     94 N          -5.9320  -23.9083  -48.6220 N.am      17 UNK        -0.5000 
     95 CA         -6.6206  -22.9648  -47.7331 C.3       17 UNK         0.1400 
     96 CB         -7.9767  -23.5194  -47.2479 C.3       17 UNK        -0.1800 
     97 C          -6.7121  -21.5603  -48.3636 C.2       17 UNK         0.5000 
     98 O          -7.7596  -20.9144  -48.3041 O.2       17 UNK        -0.5000 
     99 N          -5.5925  -21.1331  -48.9680 N.am      18 UNK        -0.5000 
    100 CA        -5.3833  -19.8715  -49.6874 C.3       18 UNK         0.1400 
    101 CB        -5.4376  -18.6771  -48.7112 C.3       18 UNK        -0.1800 
    102 C         -6.3067  -19.6902  -50.9138 C.2       18 UNK         0.5000 
    103 O         -6.6306  -18.5580  -51.2771 O.2       18 UNK        -0.5000 
    104 N         -6.7128  -20.8054  -51.5341 N.am      19 UNK        -0.5000 
    105 CA        -7.5329  -20.8301  -52.7438 C.3       19 UNK         0.1400 
    106 CB        -8.3349  -22.1385  -52.7854 C.3       19 UNK        -0.1800 
    107 C         -6.6872  -20.6798  -54.0200 C.2       19 UNK         0.5000 
    108 O         -7.1914  -20.1600  -55.0170 O.2       19 UNK        -0.5000 
    109 N         -5.4290  -21.1409  -53.9787 N.am      20 UNK        -0.5000 
    110 CA        -4.4688  -21.0295  -55.0750 C.3       20 UNK         0.1400 
    111 CB        -3.2597  -21.9292  -54.7804 C.3       20 UNK        -0.1800 
    112 C         -4.0275  -19.5717  -55.3109 C.2       20 UNK         0.5000 
    113 O         -3.9493  -18.7854  -54.3642 O.2       20 UNK        -0.5000 
    114 N         -3.7460  -19.2542  -56.5804 N.am      21 UNK        -0.5000 
    115 CA        -3.3485  -17.9326  -57.0651 C.3       21 UNK         0.1400 
    116 CB        -3.2868  -17.9381  -58.6010 C.3       21 UNK        -0.1800 
    117 C         -2.0823  -17.3037  -56.4299 C.2       21 UNK         0.5000 
    118 O         -2.1469  -16.1254  -56.0835 O.2       21 UNK        -0.5000 
    119 N         -0.9443  -17.9906  -56.2380 N.am      22 UNK        -0.5000 
    120 CA        -0.5437  -19.3424  -56.6714 C.3       22 UNK         0.1400 
    121 C         -0.0252  -19.4065  -58.1381 C.2       22 UNK         0.5000 
    122 N          0.1889  -18.2880  -58.8207 N.am      22 UNK        -0.7600 
    123 O          0.1703  -20.4939  -58.6728 O.2       22 UNK        -0.5000 
    124 C124        0.5139  -19.9441  -55.7082 C.3       23 UNK        -0.0398 
    125 S125       -0.0589  -20.1036  -53.9796 S.3       23 UNK        -0.2404 
    126 C126        0.4968  -18.5199  -53.2778 C.3       23 UNK        -0.0205 
    127 H127       -0.2948  -14.6828  -54.2713 H         1 UNK         0.0600 
    128 H128        1.1962  -13.7349  -54.2812 H         1 UNK         0.0600 
    129 H129        1.2667  -15.4973  -54.3820 H         1 UNK         0.0600 
    130 H130       -1.1849  -14.5975  -52.2281 H         1 UNK         0.3000 
    131 H131        0.2990  -15.5294  -49.9357 H         1 UNK         0.0600 
    132 H132       -2.2858  -15.8935  -50.5829 H         1 UNK         0.0800 
    133 H133       -2.5285  -14.3993  -49.7389 H         1 UNK         0.0800 
    134 H134       -1.8667  -18.5197  -47.9370 H         1 UNK         0.0800 
    135 H135       -2.7093  -18.0798  -49.4031 H         1 UNK         0.0800 
    136 H136       -1.5489  -18.0844  -51.5317 H         1 UNK         0.1150 
    137 H137        2.6337  -18.9893  -51.6682 H         1 UNK         0.1150 
    138 H138        0.6788  -18.4297  -47.8908 H         1 UNK         0.1150 
    139 H139        3.9498  -18.6477  -49.6898 H         1 UNK         0.0800 
    140 H140        3.2438  -18.2613  -48.1566 H         1 UNK         0.0800 
    141 H141        2.1012  -19.7966  -46.6337 H         1 UNK         0.0800 
    142 H142        3.4825  -20.7149  -46.1198 H         1 UNK         0.0800 
    143 H143        2.2490  -22.7802  -47.2162 H         1 UNK         0.0600 
    144 H144        1.9747  -21.7300  -44.5475 H         1 UNK         0.3000 
    145 H145        0.6762  -24.7746  -43.2035 H         1 UNK         0.0600 
    146 H146        2.6538  -24.4810  -41.7449 H         1 UNK         0.0600 
    147 H147        3.1628  -25.0462  -43.3284 H         1 UNK         0.0600 
    148 H148        3.3768  -23.3543  -42.8918 H         1 UNK         0.0600 
    149 H149        1.2741  -22.3815  -41.8611 H         1 UNK         0.3000 
    150 H150       -1.6759  -20.5636  -42.5223 H         1 UNK         0.0600 
    151 H151       -2.6194  -22.2442  -40.9771 H         1 UNK         0.0600 
    152 H152       -2.1653  -20.7884  -40.1040 H         1 UNK         0.0600 
    153 H153       -1.1528  -22.2298  -40.0088 H         1 UNK         0.0600 
    154 H154       -0.0365  -19.2702  -41.9430 H         1 UNK         0.3000 
    155 H155        2.2636  -19.1762  -39.3151 H         1 UNK         0.0600 
    156 H156        3.7098  -18.0576  -41.0001 H         1 UNK         0.0600 
    157 H157        2.7950  -18.7996  -42.3114 H         1 UNK         0.0600 
    158 H158        3.7449  -19.7999  -41.2207 H         1 UNK         0.0600 
    159 H159        1.3169  -17.1747  -41.1136 H         1 UNK         0.3000 
    160 H160       -1.7436  -16.4382  -39.3827 H         1 UNK         0.0600 
    161 H161       -0.7388  -14.1775  -39.4261 H         1 UNK         0.0600 
    162 H162        0.8557  -14.8573  -39.7438 H         1 UNK         0.0600 
    163 H163        0.0539  -15.1659  -38.2091 H         1 UNK         0.0600 
    164 H164       -0.5865  -15.3065  -41.7255 H         1 UNK         0.3000 
    165 H165       -2.1007  -17.5539  -44.0840 H         1 UNK         0.0600 
    166 H166       -2.8428  -15.3638  -44.9927 H         1 UNK         0.0600 
    167 H167       -3.8015  -15.8103  -43.5879 H         1 UNK         0.0600 
    168 H168       -2.5416  -14.5917  -43.4376 H         1 UNK         0.0600 
    169 H169       -0.3641  -15.3246  -44.4408 H         1 UNK         0.3000 
    170 H170        2.7335  -17.0754  -44.1267 H         1 UNK         0.0600 
    171 H171        2.0598  -17.4398  -46.4433 H         1 UNK         0.0600 
    172 H172        1.2693  -15.8760  -46.5387 H         1 UNK         0.0600 
    173 H173        3.0227  -15.9759  -46.3584 H         1 UNK         0.0600 
    174 H174        1.9294  -14.3404  -44.6419 H         1 UNK         0.3000 
    175 H175        2.1562  -13.2503  -41.2613 H         1 UNK         0.0600 
    176 H176        3.8744  -11.7423  -42.2206 H         1 UNK         0.0600 
    177 H177        4.5383  -13.3543  -42.0080 H         1 UNK         0.0600 
    178 H178        4.0735  -12.8054  -43.6140 H         1 UNK         0.0600 
    179 H179        1.7827  -11.8687  -43.7436 H         1 UNK         0.3000 
    180 H180       -1.7540  -12.2233  -43.9347 H         1 UNK         0.0600 
    181 H181       -0.0265   -9.7938  -43.2187 H         1 UNK         0.0600 
    182 H182       -1.3925  -10.3834  -42.2791 H         1 UNK         0.0600 
    183 H183       -1.6546   -9.7517  -43.8964 H         1 UNK         0.0600 
    184 H184       -0.0198  -10.7166  -45.5528 H         1 UNK         0.3000 
    185 H185        0.0755  -11.4764  -47.7994 H         1 UNK         0.0600 
    186 H186        2.4881  -11.9739  -48.3381 H         1 UNK         0.0600 
    187 H187        2.3368  -11.3526  -46.7028 H         1 UNK         0.0600 
    188 H188        2.5772  -13.0769  -46.9671 H         1 UNK         0.0600 
    189 H189        0.1004  -14.3813  -47.7990 H         1 UNK         0.3000 
    190 H190       -0.3388  -21.1210  -45.4419 H         1 UNK         0.3000 
    191 H191       -2.0569  -20.6961  -47.7122 H         1 UNK         0.0600 
    192 H192       -2.3218  -19.4092  -45.5975 H         1 UNK         0.0600 
    193 H193       -3.8000  -20.2639  -46.0113 H         1 UNK         0.0600 
    194 H194       -2.7626  -20.8836  -44.7374 H         1 UNK         0.0600 
    195 H195       -1.7441  -23.3460  -45.3201 H         1 UNK         0.3000 
    196 H196       -3.7984  -25.0058  -46.3360 H         1 UNK         0.0600 
    197 H197       -2.6008  -26.8118  -45.1082 H         1 UNK         0.0600 
    198 H198       -2.7202  -25.3553  -44.1316 H         1 UNK         0.0600 
    199 H199       -1.1964  -25.7719  -44.9097 H         1 UNK         0.0600 
    200 H200       -0.3178  -24.8141  -47.2248 H         1 UNK         0.3000 
    201 H201       -0.3442  -26.8165  -49.2416 H         1 UNK         0.0600 
    202 H202        1.7347  -25.9062  -48.2080 H         1 UNK         0.0600 
    203 H203        1.4547  -24.3490  -48.9844 H         1 UNK         0.0600 
    204 H204        1.7854  -25.7724  -49.9598 H         1 UNK         0.0600 
    205 H205       -1.1706  -23.3672  -49.3489 H         1 UNK         0.3000 
    206 H206       -1.7594  -23.3029  -52.1985 H         1 UNK         0.0600 
    207 H207       -0.8843  -21.3191  -50.9792 H         1 UNK         0.0600 
    208 H208       -2.4548  -20.9684  -51.6743 H         1 UNK         0.0600 
    209 H209       -2.3141  -21.2953  -49.9559 H         1 UNK         0.0600 
    210 H210       -3.2784  -25.1625  -50.1790 H         1 UNK         0.3000 
    211 H211       -5.2371  -26.1528  -50.0239 H         1 UNK         0.0600 
    212 H212       -5.9632  -24.7248  -52.6372 H         1 UNK         0.0600 
    213 H213       -6.7721  -26.1349  -51.9688 H         1 UNK         0.0600 
    214 H214       -5.1042  -26.2566  -52.5035 H         1 UNK         0.0600 
    215 H215       -4.9661  -24.0885  -48.3745 H         1 UNK         0.3000 
    216 H216       -5.9841  -22.8590  -46.8534 H         1 UNK         0.0600 
    217 H217       -7.8653  -24.5163  -46.8218 H         1 UNK         0.0600 
    218 H218       -8.7085  -23.5775  -48.0538 H         1 UNK         0.0600 
    219 H219       -8.4006  -22.8805  -46.4724 H         1 UNK         0.0600 
    220 H220       -4.7900  -21.7538  -48.9263 H         1 UNK         0.3000 
    221 H221       -4.3710  -19.9199  -50.0892 H         1 UNK         0.0600 
    222 H222       -6.4373  -18.5364  -48.2998 H         1 UNK         0.0600 
    223 H223       -4.7489  -18.8160  -47.8782 H         1 UNK         0.0600 
    224 H224       -5.1582  -17.7478  -49.2088 H         1 UNK         0.0600 
    225 H225       -6.3559  -21.6951  -51.2081 H         1 UNK         0.3000 
    226 H226       -8.2437  -20.0016  -52.7125 H         1 UNK         0.0600 
    227 H227       -8.9603  -22.2460  -51.8989 H         1 UNK         0.0600 
    228 H228       -8.9929  -22.1665  -53.6547 H         1 UNK         0.0600 
    229 H229       -7.6804  -23.0087  -52.8408 H         1 UNK         0.0600 
    230 H230       -5.0909  -21.5664  -53.1196 H         1 UNK         0.3000 
    231 H231       -4.9554  -21.3988  -55.9803 H         1 UNK         0.0600 
    232 H232       -3.5663  -22.9606  -54.6050 H         1 UNK         0.0600 
    233 H233       -2.7150  -21.5878  -53.9017 H         1 UNK         0.0600 
    234 H234       -2.5602  -21.9357  -55.6166 H         1 UNK         0.0600 
    235 H235       -3.8444  -19.9686  -57.2868 H         1 UNK         0.3000 
    236 H236       -4.1689  -17.2640  -56.7953 H         1 UNK         0.0600 
    237 H237       -4.2814  -18.0650  -59.0287 H         1 UNK         0.0600 
    238 H238       -2.8895  -16.9979  -58.9858 H         1 UNK         0.0600 
    239 H239       -2.6620  -18.7432  -58.9847 H         1 UNK         0.0600 
    240 H240       -0.1941  -17.4800  -55.8017 H         1 UNK         0.3000 
    241 H241       -1.3969  -20.0119  -56.6376 H         1 UNK         0.0600 
    242 H242        0.0410  -17.3858  -58.3974 H         1 UNK         0.3800 
    243 H243        0.5204  -18.3448  -59.7712 H         1 UNK         0.3800 
    244 H244        1.4367  -19.3625  -55.7362 H         1 UNK         0.0800 
    245 H245        0.7899  -20.9482  -56.0358 H         1 UNK         0.0800 
    246 H246       -0.1740  -17.7249  -53.6048 H         1 UNK         0.0800 
    247 H247        1.4860  -18.2679  -53.6626 H         1 UNK         0.0800 
@<TRIPOS>BOND
     1    1    2 1    
     2    1  127 1    
     3    1  128 1    
     4    1  129 1    
     5    2    3 2    
     6    2    4 am   BACKBONE|DICT|INTERRES
     7    4    5 1    
     8    4  130 1    
     9    5    6 1    
    10    5   65 1    
    11    5  131 1    
    12    6    7 1    
    13    6  132 1    
    14    6  133 1    
    15    7    8 1    
    16    8    9 1    
    17    8  134 1    
    18    8  135 1    
    19    9   10 ar   
    20    9   14 ar   
    21   10   11 ar   
    22   10  136 1    
    23   11   12 ar   
    24   11  126 1    
    25   12   13 ar   
    26   12  137 1    
    27   13   14 ar   
    28   13   15 1    
    29   14  138 1    
    30   15   16 1    
    31   15  139 1    
    32   15  140 1    
    33   16   17 1    
    34   17   18 1    
    35   17  141 1    
    36   17  142 1    
    37   18   19 1    
    38   18   67 1    
    39   18  143 1    
    40   19   20 am   BACKBONE|DICT|INTERRES
    41   19  144 1    
    42   20   21 2    
    43   20   22 1    
    44   22   23 1    
    45   22   24 1    
    46   22  145 1    
    47   23  146 1    
    48   23  147 1    
    49   23  148 1    
    50   24   25 am   BACKBONE|DICT|INTERRES
    51   24  149 1    
    52   25   26 2    
    53   25   27 1    
    54   27   28 1    
    55   27   29 1    
    56   27  150 1    
    57   28  151 1    
    58   28  152 1    
    59   28  153 1    
    60   29   30 am   BACKBONE|DICT|INTERRES
    61   29  154 1    
    62   30   31 2    
    63   30   32 1    
    64   32   33 1    
    65   32   34 1    
    66   32  155 1    
    67   33  156 1    
    68   33  157 1    
    69   33  158 1    
    70   34   35 am   BACKBONE|DICT|INTERRES
    71   34  159 1    
    72   35   36 2    
    73   35   37 1    
    74   37   38 1    
    75   37   39 1    
    76   37  160 1    
    77   38  161 1    
    78   38  162 1    
    79   38  163 1    
    80   39   40 am   BACKBONE|DICT|INTERRES
    81   39  164 1    
    82   40   41 2    
    83   40   42 1    
    84   42   43 1    
    85   42   44 1    
    86   42  165 1    
    87   43  166 1    
    88   43  167 1    
    89   43  168 1    
    90   44   45 am   BACKBONE|DICT|INTERRES
    91   44  169 1    
    92   45   46 2    
    93   45   47 1    
    94   47   48 1    
    95   47   49 1    
    96   47  170 1    
    97   48  171 1    
    98   48  172 1    
    99   48  173 1    
   100   49   50 am   BACKBONE|DICT|INTERRES
   101   49  174 1    
   102   50   51 2    
   103   50   52 1    
   104   52   53 1    
   105   52   54 1    
   106   52  175 1    
   107   53  176 1    
   108   53  177 1    
   109   53  178 1    
   110   54   55 am   BACKBONE|DICT|INTERRES
   111   54  179 1    
   112   55   56 2    
   113   55   57 1    
   114   57   58 1    
   115   57   59 1    
   116   57  180 1    
   117   58  181 1    
   118   58  182 1    
   119   58  183 1    
   120   59   60 am   BACKBONE|DICT|INTERRES
   121   59  184 1    
   122   60   61 2    
   123   60   62 1    
   124   62   63 1    
   125   62   64 1    
   126   62  185 1    
   127   63  186 1    
   128   63  187 1    
   129   63  188 1    
   130   64   65 am   BACKBONE|DICT|INTERRES
   131   64  189 1    
   132   65   66 2    
   133   67   68 2    
   134   67   69 am   BACKBONE|DICT|INTERRES
   135   69   70 1    
   136   69  190 1    
   137   70   71 1    
   138   70   72 1    
   139   70  191 1    
   140   71  192 1    
   141   71  193 1    
   142   71  194 1    
   143   72   73 2    
   144   72   74 am   BACKBONE|DICT|INTERRES
   145   74   75 1    
   146   74  195 1    
   147   75   76 1    
   148   75   77 1    
   149   75  196 1    
   150   76  197 1    
   151   76  198 1    
   152   76  199 1    
   153   77   78 2    
   154   77   79 am   BACKBONE|DICT|INTERRES
   155   79   80 1    
   156   79  200 1    
   157   80   81 1    
   158   80   82 1    
   159   80  201 1    
   160   81  202 1    
   161   81  203 1    
   162   81  204 1    
   163   82   83 2    
   164   82   84 am   BACKBONE|DICT|INTERRES
   165   84   85 1    
   166   84  205 1    
   167   85   86 1    
   168   85   87 1    
   169   85  206 1    
   170   86  207 1    
   171   86  208 1    
   172   86  209 1    
   173   87   88 2    
   174   87   89 am   BACKBONE|DICT|INTERRES
   175   89   90 1    
   176   89  210 1    
   177   90   91 1    
   178   90   92 1    
   179   90  211 1    
   180   91  212 1    
   181   91  213 1    
   182   91  214 1    
   183   92   93 2    
   184   92   94 am   BACKBONE|DICT|INTERRES
   185   94   95 1    
   186   94  215 1    
   187   95   96 1    
   188   95   97 1    
   189   95  216 1    
   190   96  217 1    
   191   96  218 1    
   192   96  219 1    
   193   97   98 2    
   194   97   99 am   BACKBONE|DICT|INTERRES
   195   99  100 1    
   196   99  220 1    
   197  100  101 1    
   198  100  102 1    
   199  100  221 1    
   200  101  222 1    
   201  101  223 1    
   202  101  224 1    
   203  102  103 2    
   204  102  104 am   BACKBONE|DICT|INTERRES
   205  104  105 1    
   206  104  225 1    
   207  105  106 1    
   208  105  107 1    
   209  105  226 1    
   210  106  227 1    
   211  106  228 1    
   212  106  229 1    
   213  107  108 2    
   214  107  109 am   BACKBONE|DICT|INTERRES
   215  109  110 1    
   216  109  230 1    
   217  110  111 1    
   218  110  112 1    
   219  110  231 1    
   220  111  232 1    
   221  111  233 1    
   222  111  234 1    
   223  112  113 2    
   224  112  114 am   BACKBONE|DICT|INTERRES
   225  114  115 1    
   226  114  235 1    
   227  115  116 1    
   228  115  117 1    
   229  115  236 1    
   230  116  237 1    
   231  116  238 1    
   232  116  239 1    
   233  117  118 2    
   234  117  119 am   BACKBONE|DICT|INTERRES
   235  119  120 1    
   236  119  240 1    
   237  120  121 1    
   238  120  124 1    
   239  120  241 1    
   240  121  122 am   BACKBONE|DICT|INTERRES
   241  121  123 2    
   242  122  242 1    
   243  122  243 1    
   244  124  125 1    
   245  124  244 1    
   246  124  245 1    
   247  125  126 1    
   248  126  246 1    
   249  126  247 1    
@<TRIPOS>SUBSTRUCTURE
     1 UNK         1 GROUP             0       ****    0 ROOT    
