@<TRIPOS>MOLECULE
3R540
247   249    1
SMALL
USER_CHARGES


@<TRIPOS>ATOM
      1 CA          1.6852  -14.3421  -52.4412 C.3       0 UNK        -0.1800 
      2 C           1.4096  -14.8111  -51.0197 C.2       0 UNK         0.5000 
      3 O           1.0262  -14.0078  -50.1690 O.2       0 UNK        -0.5000 
      4 N           1.6069  -16.1087  -50.7609 N.am      1 UNK        -0.5000 
      5 CA          1.3434  -16.7695  -49.4826 C.3       1 UNK         0.1400 
      6 C6          2.1975  -18.0520  -49.3124 C.3       23 UNK        -0.0398 
      7 S7          3.9973  -17.7388  -49.2595 S.3       23 UNK        -0.2404 
      8 C8          4.5093  -17.8280  -51.0109 C.3       23 UNK        -0.0205 
      9 C9          3.9307  -19.0310  -51.7416 C.ar      23 UNK        -0.0193 
     10 C10         2.9860  -18.8489  -52.7561 C.ar      23 UNK        -0.1150 
     11 C11         2.4224  -19.9471  -53.4126 C.ar      23 UNK        -0.0193 
     12 C12         2.8142  -21.2371  -53.0411 C.ar      23 UNK        -0.1150 
     13 C13         3.7528  -21.4324  -52.0233 C.ar      23 UNK        -0.0193 
     14 C14         4.3161  -20.3253  -51.3843 C.ar      23 UNK        -0.1150 
     15 C15         4.1510  -22.8413  -51.6140 C.3       23 UNK        -0.0205 
     16 S16         2.8655  -23.6368  -50.6005 S.3       23 UNK        -0.2404 
     17 C17         3.0803  -22.8005  -48.9923 C.3       23 UNK        -0.0398 
     18 CA          2.0688  -23.3240  -47.9400 C.3       11 UNK         0.1400 
     19 N           2.6111  -23.3149  -46.5785 N.am      11 UNK        -0.5000 
     20 C           2.0558  -23.9716  -45.5483 C.2       10 UNK         0.5000 
     21 O           1.0401  -24.6584  -45.6452 O.2       10 UNK        -0.5000 
     22 CA          2.7175  -23.8004  -44.1699 C.3       10 UNK         0.1400 
     23 CB          3.8070  -24.8618  -43.9589 C.3       10 UNK        -0.1800 
     24 N           3.2902  -22.4687  -43.9684 N.am      10 UNK        -0.5000 
     25 C           2.5822  -21.3330  -43.9461 C.2       9 UNK         0.5000 
     26 O           1.3605  -21.2797  -44.1120 O.2       9 UNK        -0.5000 
     27 CA          3.3848  -20.0411  -43.7418 C.3       9 UNK         0.1400 
     28 CB          3.2373  -19.1020  -44.9511 C.3       9 UNK        -0.1800 
     29 N           2.9429  -19.3570  -42.5314 N.am      9 UNK        -0.5000 
     30 C           3.3516  -19.6668  -41.2949 C.2       8 UNK         0.5000 
     31 O           4.1440  -20.5789  -41.0540 O.2       8 UNK        -0.5000 
     32 CA          2.8168  -18.8165  -40.1312 C.3       8 UNK         0.1400 
     33 CB          3.6002  -17.4982  -40.0163 C.3       8 UNK        -0.1800 
     34 N           1.3858  -18.5220  -40.2399 N.am      8 UNK        -0.5000 
     35 C           0.5338  -18.5486  -39.2023 C.2       7 UNK         0.5000 
     36 O           0.8637  -18.8826  -38.0631 O.2       7 UNK        -0.5000 
     37 CA         -0.9283  -18.1125  -39.4426 C.3       7 UNK         0.1400 
     38 CB         -1.1747  -16.7178  -38.8469 C.3       7 UNK        -0.1800 
     39 N          -1.3086  -18.0914  -40.8527 N.am      7 UNK        -0.5000 
     40 C          -1.5212  -19.1824  -41.6002 C.2       6 UNK         0.5000 
     41 O          -1.5320  -20.3247  -41.1419 O.2       6 UNK        -0.5000 
     42 CA         -1.7266  -18.9760  -43.1149 C.3       6 UNK         0.1400 
     43 CB         -3.1787  -19.2682  -43.5193 C.3       6 UNK        -0.1800 
     44 N          -1.3512  -17.6470  -43.6165 N.am      6 UNK        -0.5000 
     45 C          -0.1175  -17.1186  -43.5705 C.2       5 UNK         0.5000 
     46 O           0.8423  -17.6856  -43.0536 O.2       5 UNK        -0.5000 
     47 CA          0.0786  -15.7032  -44.1429 C.3       5 UNK         0.1400 
     48 CB          0.5200  -15.7900  -45.6107 C.3       5 UNK        -0.1800 
     49 N          -1.1136  -14.8605  -44.0334 N.am      5 UNK        -0.5000 
     50 C          -1.7149  -14.5354  -42.8774 C.2       4 UNK         0.5000 
     51 O          -1.2867  -14.8721  -41.7729 O.2       4 UNK        -0.5000 
     52 CA         -3.0311  -13.7361  -42.9540 C.3       4 UNK         0.1400 
     53 CB         -2.7861  -12.2644  -42.5875 C.3       4 UNK        -0.1800 
     54 N          -3.7094  -13.7925  -44.2512 N.am      4 UNK        -0.5000 
     55 C          -4.1592  -14.8981  -44.8604 C.2       3 UNK         0.5000 
     56 O          -4.0206  -16.0351  -44.4047 O.2       3 UNK        -0.5000 
     57 CA         -4.8516  -14.7149  -46.2254 C.3       3 UNK         0.1400 
     58 CB         -5.0946  -13.2432  -46.6303 C.3       3 UNK        -0.1800 
     59 N          -4.1331  -15.4204  -47.2858 N.am      3 UNK        -0.5000 
     60 C          -2.8597  -15.2614  -47.6629 C.2       2 UNK         0.5000 
     61 O          -2.0778  -14.4557  -47.1487 O.2       2 UNK        -0.5000 
     62 CA         -2.3966  -16.1611  -48.8187 C.3       2 UNK         0.1400 
     63 CB         -3.0373  -15.7372  -50.1536 C.3       2 UNK        -0.1800 
     64 N          -0.9458  -16.0935  -48.9409 N.am      2 UNK        -0.5000 
     65 C          -0.1654  -17.0746  -49.4007 C.2       1 UNK         0.5000 
     66 O          -0.5937  -18.1644  -49.7836 O.2       1 UNK        -0.5000 
     67 C           0.7122  -22.5923  -48.0215 C.2       11 UNK         0.5000 
     68 O          -0.1978  -23.0901  -48.6801 O.2       11 UNK        -0.5000 
     69 N           0.5728  -21.4665  -47.3021 N.am      12 UNK        -0.5000 
     70 CA         -0.6864  -20.7239  -47.1889 C.3       12 UNK         0.1400 
     71 CB         -0.4459  -19.3724  -46.5042 C.3       12 UNK        -0.1800 
     72 C          -1.7592  -21.5152  -46.4246 C.2       12 UNK         0.5000 
     73 O          -2.9210  -21.5093  -46.8306 O.2       12 UNK        -0.5000 
     74 N          -1.3445  -22.2014  -45.3501 N.am      13 UNK        -0.5000 
     75 CA         -2.1969  -23.0898  -44.5613 C.3       13 UNK         0.1400 
     76 CB         -1.4501  -23.5309  -43.2943 C.3       13 UNK        -0.1800 
     77 C          -2.6894  -24.3017  -45.3752 C.2       13 UNK         0.5000 
     78 O          -3.8842  -24.5982  -45.3554 O.2       13 UNK        -0.5000 
     79 N          -1.7775  -24.9435  -46.1210 N.am      14 UNK        -0.5000 
     80 CA         -2.0704  -26.0508  -47.0367 C.3       14 UNK         0.1400 
     81 CB         -0.7539  -26.6400  -47.5648 C.3       14 UNK        -0.1800 
     82 C          -2.9871  -25.6422  -48.2060 C.2       14 UNK         0.5000 
     83 O          -3.8377  -26.4309  -48.6184 O.2       14 UNK        -0.5000 
     84 N          -2.8273  -24.4023  -48.6857 N.am      15 UNK        -0.5000 
     85 CA         -3.6565  -23.7681  -49.7119 C.3       15 UNK         0.1400 
     86 CB         -2.8242  -22.6748  -50.3985 C.3       15 UNK        -0.1800 
     87 C          -4.9935  -23.2089  -49.1713 C.2       15 UNK         0.5000 
     88 O          -5.7225  -22.5618  -49.9263 O.2       15 UNK        -0.5000 
     89 N          -5.2943  -23.4636  -47.8875 N.am      16 UNK        -0.5000 
     90 CA         -6.5223  -23.1201  -47.1643 C.3       16 UNK         0.1400 
     91 CB         -7.7262  -23.8930  -47.7425 C.3       16 UNK        -0.1800 
     92 C          -6.7738  -21.6025  -47.0646 C.2       16 UNK         0.5000 
     93 O          -7.9255  -21.1655  -47.1044 O.2       16 UNK        -0.5000 
     94 N          -5.6874  -20.8252  -46.9539 N.am      17 UNK        -0.5000 
     95 CA         -5.5953  -19.3652  -46.8412 C.3       17 UNK         0.1400 
     96 CB         -6.3040  -18.8516  -45.5745 C.3       17 UNK        -0.1800 
     97 C          -6.0497  -18.5802  -48.0864 C.2       17 UNK         0.5000 
     98 O          -5.4293  -17.5669  -48.4006 O.2       17 UNK        -0.5000 
     99 N          -7.1025  -19.0333  -48.7764 N.am      18 UNK        -0.5000 
    100 CA        -7.6329  -18.4182  -49.9936 C.3       18 UNK         0.1400 
    101 CB        -8.9596  -19.0946  -50.3715 C.3       18 UNK        -0.1800 
    102 C         -6.6329  -18.4749  -51.1619 C.2       18 UNK         0.5000 
    103 O         -6.3981  -17.4545  -51.8107 O.2       18 UNK        -0.5000 
    104 N         -6.0500  -19.6641  -51.3732 N.am      19 UNK        -0.5000 
    105 CA        -5.0177  -20.0354  -52.3461 C.3       19 UNK         0.1400 
    106 CB        -3.6847  -19.3276  -52.0349 C.3       19 UNK        -0.1800 
    107 C         -5.4017  -19.8788  -53.8298 C.2       19 UNK         0.5000 
    108 O         -5.2983  -20.8507  -54.5789 O.2       19 UNK        -0.5000 
    109 N         -5.8161  -18.6682  -54.2266 N.am      20 UNK        -0.5000 
    110 CA        -6.1644  -18.2376  -55.5858 C.3       20 UNK         0.1400 
    111 CB        -7.4708  -18.9159  -56.0480 C.3       20 UNK        -0.1800 
    112 C         -5.0047  -18.4083  -56.5939 C.2       20 UNK         0.5000 
    113 O         -5.2395  -18.7242  -57.7621 O.2       20 UNK        -0.5000 
    114 N         -3.7699  -18.2016  -56.1214 N.am      21 UNK        -0.5000 
    115 CA        -2.5324  -18.3622  -56.8753 C.3       21 UNK         0.1400 
    116 CB        -2.1128  -19.8436  -56.8689 C.3       21 UNK        -0.1800 
    117 C         -1.4384  -17.4868  -56.2506 C.2       21 UNK         0.5000 
    118 O         -1.5361  -17.1273  -55.0742 O.2       21 UNK        -0.5000 
    119 N         -0.4090  -17.1889  -57.0519 N.am      22 UNK        -0.5000 
    120 CA         0.8099  -16.4418  -56.6827 C.3       22 UNK         0.1400 
    121 C          0.6003  -14.9219  -56.3993 C.2       22 UNK         0.5000 
    122 N         -0.5463  -14.3386  -56.7163 N.am      22 UNK        -0.7600 
    123 O          1.5051  -14.2469  -55.9183 O.2       22 UNK        -0.5000 
    124 C124        1.6493  -17.1356  -55.5712 C.3       23 UNK        -0.0398 
    125 S125        2.0435  -18.8802  -55.9567 S.3       23 UNK        -0.2404 
    126 C126        1.3739  -19.7496  -54.5016 C.3       23 UNK        -0.0205 
    127 H127        0.7536  -14.0465  -52.9283 H         1 UNK         0.0600 
    128 H128        2.1508  -15.1243  -53.0436 H         1 UNK         0.0600 
    129 H129        2.3542  -13.4797  -52.4307 H         1 UNK         0.0600 
    130 H130        1.8889  -16.7240  -51.5074 H         1 UNK         0.3000 
    131 H131        1.5997  -16.0900  -48.6661 H         1 UNK         0.0600 
    132 H132        1.9607  -18.5352  -48.3664 H         1 UNK         0.0800 
    133 H133        1.9556  -18.7924  -50.0749 H         1 UNK         0.0800 
    134 H134        5.5980  -17.8760  -51.0546 H         1 UNK         0.0800 
    135 H135        4.2315  -16.8991  -51.5103 H         1 UNK         0.0800 
    136 H136        2.6875  -17.8508  -53.0358 H         1 UNK         0.1150 
    137 H137        2.3788  -22.0957  -53.5328 H         1 UNK         0.1150 
    138 H138        5.0387  -20.4677  -50.5932 H         1 UNK         0.1150 
    139 H139        4.3141  -23.4418  -52.5100 H         1 UNK         0.0800 
    140 H140        5.0985  -22.8390  -51.0729 H         1 UNK         0.0800 
    141 H141        3.0114  -21.7184  -49.1195 H         1 UNK         0.0800 
    142 H142        4.1015  -23.0022  -48.6660 H         1 UNK         0.0800 
    143 H143        1.8692  -24.3744  -48.1657 H         1 UNK         0.0600 
    144 H144        3.4466  -22.7733  -46.4148 H         1 UNK         0.3000 
    145 H145        1.9450  -23.9489  -43.4127 H         1 UNK         0.0600 
    146 H146        4.2246  -24.8039  -42.9535 H         1 UNK         0.0600 
    147 H147        3.4014  -25.8670  -44.0831 H         1 UNK         0.0600 
    148 H148        4.6256  -24.7478  -44.6706 H         1 UNK         0.0600 
    149 H149        4.2865  -22.4275  -43.8083 H         1 UNK         0.3000 
    150 H150        4.4447  -20.2862  -43.6440 H         1 UNK         0.0600 
    151 H151        3.5776  -19.5852  -45.8678 H         1 UNK         0.0600 
    152 H152        3.8323  -18.1981  -44.8207 H         1 UNK         0.0600 
    153 H153        2.2037  -18.7965  -45.1064 H         1 UNK         0.0600 
    154 H154        2.2326  -18.6403  -42.6698 H         1 UNK         0.3000 
    155 H155        3.0066  -19.3971  -39.2258 H         1 UNK         0.0600 
    156 H156        3.4309  -16.8549  -40.8808 H         1 UNK         0.0600 
    157 H157        4.6729  -17.6835  -39.9473 H         1 UNK         0.0600 
    158 H158        3.3084  -16.9436  -39.1243 H         1 UNK         0.0600 
    159 H159        1.0417  -18.2551  -41.1563 H         1 UNK         0.3000 
    160 H160       -1.5730  -18.8235  -38.9218 H         1 UNK         0.0600 
    161 H161       -0.5401  -15.9642  -39.3150 H         1 UNK         0.0600 
    162 H162       -0.9631  -16.7057  -37.7769 H         1 UNK         0.0600 
    163 H163       -2.2123  -16.4095  -38.9762 H         1 UNK         0.0600 
    164 H164       -1.3148  -17.1854  -41.3037 H         1 UNK         0.3000 
    165 H165       -1.0879  -19.7132  -43.6017 H         1 UNK         0.0600 
    166 H166       -3.2969  -19.2396  -44.6019 H         1 UNK         0.0600 
    167 H167       -3.4896  -20.2591  -43.1867 H         1 UNK         0.0600 
    168 H168       -3.8691  -18.5433  -43.0864 H         1 UNK         0.0600 
    169 H169       -2.1031  -17.0870  -44.0021 H         1 UNK         0.3000 
    170 H170        0.8759  -15.2232  -43.5719 H         1 UNK         0.0600 
    171 H171        1.4546  -16.3443  -45.7065 H         1 UNK         0.0600 
    172 H172       -0.2265  -16.3006  -46.2179 H         1 UNK         0.0600 
    173 H173        0.6828  -14.8000  -46.0372 H         1 UNK         0.0600 
    174 H174       -1.5338  -14.5529  -44.9020 H         1 UNK         0.3000 
    175 H175       -3.7079  -14.1655  -42.2127 H         1 UNK         0.0600 
    176 H176       -2.1373  -11.7728  -43.3134 H         1 UNK         0.0600 
    177 H177       -3.7221  -11.7075  -42.5402 H         1 UNK         0.0600 
    178 H178       -2.3098  -12.1780  -41.6098 H         1 UNK         0.0600 
    179 H179       -3.8399  -12.9094  -44.7226 H         1 UNK         0.3000 
    180 H180       -5.8254  -15.1989  -46.1385 H         1 UNK         0.0600 
    181 H181       -4.1641  -12.6892  -46.7596 H         1 UNK         0.0600 
    182 H182       -5.6963  -12.7217  -45.8848 H         1 UNK         0.0600 
    183 H183       -5.6399  -13.1881  -47.5726 H         1 UNK         0.0600 
    184 H184       -4.6691  -16.1528  -47.7530 H         1 UNK         0.3000 
    185 H185       -2.6931  -17.1853  -48.5817 H         1 UNK         0.0600 
    186 H186       -2.7902  -14.7053  -50.4059 H         1 UNK         0.0600 
    187 H187       -2.6976  -16.3706  -50.9729 H         1 UNK         0.0600 
    188 H188       -4.1243  -15.8176  -50.1160 H         1 UNK         0.0600 
    189 H189       -0.5368  -15.2150  -48.6442 H         1 UNK         0.3000 
    190 H190        1.3394  -21.1553  -46.7251 H         1 UNK         0.3000 
    191 H191       -1.0647  -20.5332  -48.1956 H         1 UNK         0.0600 
    192 H192       -1.3812  -18.8272  -46.3702 H         1 UNK         0.0600 
    193 H193        0.2108  -18.7368  -47.0876 H         1 UNK         0.0600 
    194 H194        0.0116  -19.4967  -45.5260 H         1 UNK         0.0600 
    195 H195       -0.3764  -22.1176  -45.0612 H         1 UNK         0.3000 
    196 H196       -3.0751  -22.5189  -44.2530 H         1 UNK         0.0600 
    197 H197       -2.0911  -24.1421  -42.6581 H         1 UNK         0.0600 
    198 H198       -1.1316  -22.6703  -42.7055 H         1 UNK         0.0600 
    199 H199       -0.5642  -24.1201  -43.5295 H         1 UNK         0.0600 
    200 H200       -0.8010  -24.6692  -46.0449 H         1 UNK         0.3000 
    201 H201       -2.5867  -26.8260  -46.4668 H         1 UNK         0.0600 
    202 H202       -0.1297  -27.0044  -46.7488 H         1 UNK         0.0600 
    203 H203       -0.1782  -25.9002  -48.1219 H         1 UNK         0.0600 
    204 H204       -0.9415  -27.4820  -48.2321 H         1 UNK         0.0600 
    205 H205       -2.0542  -23.8452  -48.3366 H         1 UNK         0.3000 
    206 H206       -3.9061  -24.5186  -50.4643 H         1 UNK         0.0600 
    207 H207       -1.8610  -23.0609  -50.7315 H         1 UNK         0.0600 
    208 H208       -3.3266  -22.3017  -51.2861 H         1 UNK         0.0600 
    209 H209       -2.6390  -21.8297  -49.7348 H         1 UNK         0.0600 
    210 H210       -4.6054  -23.9607  -47.3367 H         1 UNK         0.3000 
    211 H211       -6.3739  -23.4648  -46.1402 H         1 UNK         0.0600 
    212 H212       -7.9776  -23.5574  -48.7490 H         1 UNK         0.0600 
    213 H213       -8.6130  -23.7583  -47.1222 H         1 UNK         0.0600 
    214 H214       -7.5227  -24.9629  -47.7864 H         1 UNK         0.0600 
    215 H215       -4.7806  -21.2886  -46.9706 H         1 UNK         0.3000 
    216 H216       -4.5310  -19.1558  -46.7242 H         1 UNK         0.0600 
    217 H217       -6.1045  -17.7902  -45.4224 H         1 UNK         0.0600 
    218 H218       -5.9548  -19.3769  -44.6860 H         1 UNK         0.0600 
    219 H219       -7.3857  -18.9748  -45.6334 H         1 UNK         0.0600 
    220 H220       -7.5782  -19.8555  -48.4156 H         1 UNK         0.3000 
    221 H221       -7.8351  -17.3667  -49.7786 H         1 UNK         0.0600 
    222 H222       -8.8323  -20.1625  -50.5529 H         1 UNK         0.0600 
    223 H223       -9.6997  -18.9768  -49.5798 H         1 UNK         0.0600 
    224 H224       -9.3789  -18.6539  -51.2769 H         1 UNK         0.0600 
    225 H225       -6.3292  -20.4249  -50.7660 H         1 UNK         0.3000 
    226 H226       -4.8733  -21.1033  -52.1968 H         1 UNK         0.0600 
    227 H227       -3.7611  -18.2469  -52.1542 H         1 UNK         0.0600 
    228 H228       -3.3601  -19.5265  -51.0133 H         1 UNK         0.0600 
    229 H229       -2.8930  -19.6735  -52.7008 H         1 UNK         0.0600 
    230 H230       -5.9132  -17.9651  -53.4963 H         1 UNK         0.3000 
    231 H231       -6.3550  -17.1654  -55.5249 H         1 UNK         0.0600 
    232 H232       -7.8135  -18.5010  -56.9964 H         1 UNK         0.0600 
    233 H233       -8.2701  -18.7661  -55.3223 H         1 UNK         0.0600 
    234 H234       -7.3419  -19.9896  -56.1881 H         1 UNK         0.0600 
    235 H235       -3.6417  -17.8951  -55.1655 H         1 UNK         0.3000 
    236 H236       -2.6893  -18.0300  -57.9038 H         1 UNK         0.0600 
    237 H237       -2.8685  -20.4713  -57.3411 H         1 UNK         0.0600 
    238 H238       -1.1804  -19.9925  -57.4147 H         1 UNK         0.0600 
    239 H239       -1.9614  -20.2111  -55.8531 H         1 UNK         0.0600 
    240 H240       -0.4263  -17.5288  -58.0031 H         1 UNK         0.3000 
    241 H241        1.4223  -16.4550  -57.5848 H         1 UNK         0.0600 
    242 H242       -0.6653  -13.3529  -56.5421 H         1 UNK         0.3800 
    243 H243       -1.2966  -14.8719  -57.1215 H         1 UNK         0.3800 
    244 H244        2.5985  -16.6158  -55.4320 H         1 UNK         0.0800 
    245 H245        1.1279  -17.0663  -54.6165 H         1 UNK         0.0800 
    246 H246        0.9930  -20.7154  -54.8358 H         1 UNK         0.0800 
    247 H247        0.5129  -19.2169  -54.0958 H         1 UNK         0.0800 
@<TRIPOS>BOND
     1    1    2 1    
     2    1  127 1    
     3    1  128 1    
     4    1  129 1    
     5    2    3 2    
     6    2    4 am   BACKBONE|DICT|INTERRES
     7    4    5 1    
     8    4  130 1    
     9    5    6 1    
    10    5   65 1    
    11    5  131 1    
    12    6    7 1    
    13    6  132 1    
    14    6  133 1    
    15    7    8 1    
    16    8    9 1    
    17    8  134 1    
    18    8  135 1    
    19    9   10 ar   
    20    9   14 ar   
    21   10   11 ar   
    22   10  136 1    
    23   11   12 ar   
    24   11  126 1    
    25   12   13 ar   
    26   12  137 1    
    27   13   14 ar   
    28   13   15 1    
    29   14  138 1    
    30   15   16 1    
    31   15  139 1    
    32   15  140 1    
    33   16   17 1    
    34   17   18 1    
    35   17  141 1    
    36   17  142 1    
    37   18   19 1    
    38   18   67 1    
    39   18  143 1    
    40   19   20 am   BACKBONE|DICT|INTERRES
    41   19  144 1    
    42   20   21 2    
    43   20   22 1    
    44   22   23 1    
    45   22   24 1    
    46   22  145 1    
    47   23  146 1    
    48   23  147 1    
    49   23  148 1    
    50   24   25 am   BACKBONE|DICT|INTERRES
    51   24  149 1    
    52   25   26 2    
    53   25   27 1    
    54   27   28 1    
    55   27   29 1    
    56   27  150 1    
    57   28  151 1    
    58   28  152 1    
    59   28  153 1    
    60   29   30 am   BACKBONE|DICT|INTERRES
    61   29  154 1    
    62   30   31 2    
    63   30   32 1    
    64   32   33 1    
    65   32   34 1    
    66   32  155 1    
    67   33  156 1    
    68   33  157 1    
    69   33  158 1    
    70   34   35 am   BACKBONE|DICT|INTERRES
    71   34  159 1    
    72   35   36 2    
    73   35   37 1    
    74   37   38 1    
    75   37   39 1    
    76   37  160 1    
    77   38  161 1    
    78   38  162 1    
    79   38  163 1    
    80   39   40 am   BACKBONE|DICT|INTERRES
    81   39  164 1    
    82   40   41 2    
    83   40   42 1    
    84   42   43 1    
    85   42   44 1    
    86   42  165 1    
    87   43  166 1    
    88   43  167 1    
    89   43  168 1    
    90   44   45 am   BACKBONE|DICT|INTERRES
    91   44  169 1    
    92   45   46 2    
    93   45   47 1    
    94   47   48 1    
    95   47   49 1    
    96   47  170 1    
    97   48  171 1    
    98   48  172 1    
    99   48  173 1    
   100   49   50 am   BACKBONE|DICT|INTERRES
   101   49  174 1    
   102   50   51 2    
   103   50   52 1    
   104   52   53 1    
   105   52   54 1    
   106   52  175 1    
   107   53  176 1    
   108   53  177 1    
   109   53  178 1    
   110   54   55 am   BACKBONE|DICT|INTERRES
   111   54  179 1    
   112   55   56 2    
   113   55   57 1    
   114   57   58 1    
   115   57   59 1    
   116   57  180 1    
   117   58  181 1    
   118   58  182 1    
   119   58  183 1    
   120   59   60 am   BACKBONE|DICT|INTERRES
   121   59  184 1    
   122   60   61 2    
   123   60   62 1    
   124   62   63 1    
   125   62   64 1    
   126   62  185 1    
   127   63  186 1    
   128   63  187 1    
   129   63  188 1    
   130   64   65 am   BACKBONE|DICT|INTERRES
   131   64  189 1    
   132   65   66 2    
   133   67   68 2    
   134   67   69 am   BACKBONE|DICT|INTERRES
   135   69   70 1    
   136   69  190 1    
   137   70   71 1    
   138   70   72 1    
   139   70  191 1    
   140   71  192 1    
   141   71  193 1    
   142   71  194 1    
   143   72   73 2    
   144   72   74 am   BACKBONE|DICT|INTERRES
   145   74   75 1    
   146   74  195 1    
   147   75   76 1    
   148   75   77 1    
   149   75  196 1    
   150   76  197 1    
   151   76  198 1    
   152   76  199 1    
   153   77   78 2    
   154   77   79 am   BACKBONE|DICT|INTERRES
   155   79   80 1    
   156   79  200 1    
   157   80   81 1    
   158   80   82 1    
   159   80  201 1    
   160   81  202 1    
   161   81  203 1    
   162   81  204 1    
   163   82   83 2    
   164   82   84 am   BACKBONE|DICT|INTERRES
   165   84   85 1    
   166   84  205 1    
   167   85   86 1    
   168   85   87 1    
   169   85  206 1    
   170   86  207 1    
   171   86  208 1    
   172   86  209 1    
   173   87   88 2    
   174   87   89 am   BACKBONE|DICT|INTERRES
   175   89   90 1    
   176   89  210 1    
   177   90   91 1    
   178   90   92 1    
   179   90  211 1    
   180   91  212 1    
   181   91  213 1    
   182   91  214 1    
   183   92   93 2    
   184   92   94 am   BACKBONE|DICT|INTERRES
   185   94   95 1    
   186   94  215 1    
   187   95   96 1    
   188   95   97 1    
   189   95  216 1    
   190   96  217 1    
   191   96  218 1    
   192   96  219 1    
   193   97   98 2    
   194   97   99 am   BACKBONE|DICT|INTERRES
   195   99  100 1    
   196   99  220 1    
   197  100  101 1    
   198  100  102 1    
   199  100  221 1    
   200  101  222 1    
   201  101  223 1    
   202  101  224 1    
   203  102  103 2    
   204  102  104 am   BACKBONE|DICT|INTERRES
   205  104  105 1    
   206  104  225 1    
   207  105  106 1    
   208  105  107 1    
   209  105  226 1    
   210  106  227 1    
   211  106  228 1    
   212  106  229 1    
   213  107  108 2    
   214  107  109 am   BACKBONE|DICT|INTERRES
   215  109  110 1    
   216  109  230 1    
   217  110  111 1    
   218  110  112 1    
   219  110  231 1    
   220  111  232 1    
   221  111  233 1    
   222  111  234 1    
   223  112  113 2    
   224  112  114 am   BACKBONE|DICT|INTERRES
   225  114  115 1    
   226  114  235 1    
   227  115  116 1    
   228  115  117 1    
   229  115  236 1    
   230  116  237 1    
   231  116  238 1    
   232  116  239 1    
   233  117  118 2    
   234  117  119 am   BACKBONE|DICT|INTERRES
   235  119  120 1    
   236  119  240 1    
   237  120  121 1    
   238  120  124 1    
   239  120  241 1    
   240  121  122 am   BACKBONE|DICT|INTERRES
   241  121  123 2    
   242  122  242 1    
   243  122  243 1    
   244  124  125 1    
   245  124  244 1    
   246  124  245 1    
   247  125  126 1    
   248  126  246 1    
   249  126  247 1    
@<TRIPOS>SUBSTRUCTURE
     1 UNK         1 GROUP             0       ****    0 ROOT    
