@<TRIPOS>MOLECULE
3R540
247   249    1
SMALL
USER_CHARGES


@<TRIPOS>ATOM
      1 CA         -3.8899  -13.4654  -48.0210 C.3       0 UNK        -0.1800 
      2 C          -2.8550  -12.8174  -47.1124 C.2       0 UNK         0.5000 
      3 O          -3.2023  -11.9776  -46.2823 O.2       0 UNK        -0.5000 
      4 N          -1.5864  -13.2223  -47.2431 N.am      1 UNK        -0.5000 
      5 CA         -0.4275  -12.7580  -46.4683 C.3       1 UNK         0.1400 
      6 C6          0.8870  -12.9660  -47.2664 C.3       23 UNK        -0.0398 
      7 S7          1.2568  -14.7212  -47.6296 S.3       23 UNK        -0.2404 
      8 C8          0.8424  -14.8765  -49.3939 C.3       23 UNK        -0.0205 
      9 C9          0.1550  -16.2038  -49.6792 C.ar      23 UNK        -0.0193 
     10 C10        -1.2113  -16.2397  -49.9664 C.ar      23 UNK        -0.1150 
     11 C11        -1.8445  -17.4526  -50.2432 C.ar      23 UNK        -0.0193 
     12 C12        -1.1001  -18.6352  -50.2458 C.ar      23 UNK        -0.1150 
     13 C13         0.2625  -18.6265  -49.9162 C.ar      23 UNK        -0.0193 
     14 C14         0.8806  -17.3991  -49.6510 C.ar      23 UNK        -0.1150 
     15 C15         1.1138  -19.8977  -49.8134 C.3       23 UNK        -0.0205 
     16 S16         0.2477  -21.5035  -49.9607 S.3       23 UNK        -0.2404 
     17 C17        -0.9783  -21.4676  -48.6091 C.3       23 UNK        -0.0398 
     18 CA         -0.8400  -22.6594  -47.6231 C.3       11 UNK         0.1400 
     19 N          -0.1170  -22.2926  -46.4012 N.am      11 UNK        -0.5000 
     20 C           0.2055  -23.1320  -45.4062 C.2       10 UNK         0.5000 
     21 O           0.0004  -24.3448  -45.4383 O.2       10 UNK        -0.5000 
     22 CA          0.7909  -22.4993  -44.1301 C.3       10 UNK         0.1400 
     23 CB          2.2874  -22.1926  -44.2916 C.3       10 UNK        -0.1800 
     24 N           0.0680  -21.2866  -43.7407 N.am      10 UNK        -0.5000 
     25 C          -1.2049  -21.2739  -43.3180 C.2       9 UNK         0.5000 
     26 O          -1.8779  -22.2902  -43.1505 O.2       9 UNK        -0.5000 
     27 CA         -1.8534  -19.8964  -43.0949 C.3       9 UNK         0.1400 
     28 CB         -1.5473  -19.3624  -41.6878 C.3       9 UNK        -0.1800 
     29 N          -1.4290  -18.9215  -44.0990 N.am      9 UNK        -0.5000 
     30 C          -1.8010  -18.9606  -45.3871 C.2       8 UNK         0.5000 
     31 O          -2.5684  -19.8025  -45.8517 O.2       8 UNK        -0.5000 
     32 CA         -1.1680  -17.9168  -46.3244 C.3       8 UNK         0.1400 
     33 CB         -1.9774  -16.6148  -46.3052 C.3       8 UNK        -0.1800 
     34 N           0.2306  -17.6324  -45.9990 N.am      8 UNK        -0.5000 
     35 C           1.2156  -18.5417  -46.0252 C.2       7 UNK         0.5000 
     36 O           1.0502  -19.7099  -46.3696 O.2       7 UNK        -0.5000 
     37 CA          2.5984  -18.1012  -45.5139 C.3       7 UNK         0.1400 
     38 CB          3.5174  -17.6864  -46.6714 C.3       7 UNK        -0.1800 
     39 N           2.5219  -17.0247  -44.5245 N.am      7 UNK        -0.5000 
     40 C           2.0059  -17.1653  -43.2942 C.2       6 UNK         0.5000 
     41 O           1.5252  -18.2246  -42.8888 O.2       6 UNK        -0.5000 
     42 CA          1.9680  -15.9171  -42.3883 C.3       6 UNK         0.1400 
     43 CB          2.2907  -16.2389  -40.9150 C.3       6 UNK        -0.1800 
     44 N           2.7663  -14.7918  -42.8904 N.am      6 UNK        -0.5000 
     45 C           4.1035  -14.7005  -42.9638 C.2       5 UNK         0.5000 
     46 O           4.8848  -15.5640  -42.5665 O.2       5 UNK        -0.5000 
     47 CA          4.6519  -13.4125  -43.5864 C.3       5 UNK         0.1400 
     48 CB          4.4040  -13.3925  -45.1071 C.3       5 UNK        -0.1800 
     49 N           4.0443  -12.2575  -42.9276 N.am      5 UNK        -0.5000 
     50 C           4.4969  -10.9995  -42.9864 C.2       4 UNK         0.5000 
     51 O           5.4724  -10.6638  -43.6604 O.2       4 UNK        -0.5000 
     52 CA          3.7782   -9.9422  -42.1158 C.3       4 UNK         0.1400 
     53 CB          3.6513   -8.5807  -42.8323 C.3       4 UNK        -0.1800 
     54 N           2.4842  -10.3687  -41.5601 N.am      4 UNK        -0.5000 
     55 C           1.3547  -10.6280  -42.2328 C.2       3 UNK         0.5000 
     56 O           1.2463  -10.5661  -43.4603 O.2       3 UNK        -0.5000 
     57 CA          0.1360  -11.0094  -41.3781 C.3       3 UNK         0.1400 
     58 CB         -0.6522   -9.7537  -40.9741 C.3       3 UNK        -0.1800 
     59 N          -0.7296  -11.8769  -42.1672 N.am      3 UNK        -0.5000 
     60 C          -0.9831  -13.1650  -41.9151 C.2       2 UNK         0.5000 
     61 O          -0.6355  -13.7482  -40.8883 O.2       2 UNK        -0.5000 
     62 CA         -1.7257  -13.9476  -43.0162 C.3       2 UNK         0.1400 
     63 CB         -3.2289  -14.0234  -42.7129 C.3       2 UNK        -0.1800 
     64 N          -1.5390  -13.3901  -44.3586 N.am      2 UNK        -0.5000 
     65 C          -0.3837  -13.3554  -45.0361 C.2       1 UNK         0.5000 
     66 O           0.6717  -13.7891  -44.5703 O.2       1 UNK        -0.5000 
     67 C          -2.2225  -23.2669  -47.3036 C.2       11 UNK         0.5000 
     68 O          -2.5593  -24.3160  -47.8519 O.2       11 UNK        -0.5000 
     69 N          -2.9838  -22.6218  -46.4074 N.am      12 UNK        -0.5000 
     70 CA         -4.2929  -23.0878  -45.9473 C.3       12 UNK         0.1400 
     71 CB         -4.9535  -22.0115  -45.0734 C.3       12 UNK        -0.1800 
     72 C          -4.2233  -24.4338  -45.2035 C.2       12 UNK         0.5000 
     73 O          -5.0412  -25.3126  -45.4752 O.2       12 UNK        -0.5000 
     74 N          -3.2286  -24.5903  -44.3178 N.am      13 UNK        -0.5000 
     75 CA         -2.9565  -25.8263  -43.5788 C.3       13 UNK         0.1400 
     76 CB         -1.8806  -25.5621  -42.5147 C.3       13 UNK        -0.1800 
     77 C          -2.5437  -26.9969  -44.4918 C.2       13 UNK         0.5000 
     78 O          -2.9616  -28.1307  -44.2544 O.2       13 UNK        -0.5000 
     79 N          -1.7599  -26.6964  -45.5356 N.am      14 UNK        -0.5000 
     80 CA         -1.3518  -27.6406  -46.5778 C.3       14 UNK         0.1400 
     81 CB         -0.1293  -27.0637  -47.3102 C.3       14 UNK        -0.1800 
     82 C          -2.4707  -27.9670  -47.5893 C.2       14 UNK         0.5000 
     83 O          -2.3199  -28.9179  -48.3574 O.2       14 UNK        -0.5000 
     84 N          -3.5470  -27.1648  -47.5924 N.am      15 UNK        -0.5000 
     85 CA         -4.6572  -27.1538  -48.5515 C.3       15 UNK         0.1400 
     86 CB         -5.4861  -28.4514  -48.4603 C.3       15 UNK        -0.1800 
     87 C          -4.1869  -26.8280  -49.9860 C.2       15 UNK         0.5000 
     88 O          -4.7039  -27.3818  -50.9591 O.2       15 UNK        -0.5000 
     89 N          -3.2013  -25.9280  -50.0907 N.am      16 UNK        -0.5000 
     90 CA         -2.5511  -25.5051  -51.3267 C.3       16 UNK         0.1400 
     91 CB         -1.1363  -25.0035  -50.9913 C.3       16 UNK        -0.1800 
     92 C          -3.3931  -24.4511  -52.0687 C.2       16 UNK         0.5000 
     93 O          -2.9742  -23.3022  -52.2106 O.2       16 UNK        -0.5000 
     94 N          -4.5743  -24.8644  -52.5436 N.am      17 UNK        -0.5000 
     95 CA         -5.5143  -24.0393  -53.3114 C.3       17 UNK         0.1400 
     96 CB         -6.8396  -24.8033  -53.4508 C.3       17 UNK        -0.1800 
     97 C          -4.9858  -23.6157  -54.6996 C.2       17 UNK         0.5000 
     98 O          -5.4941  -22.6553  -55.2783 O.2       17 UNK        -0.5000 
     99 N          -3.9830  -24.3428  -55.2098 N.am      18 UNK        -0.5000 
    100 CA        -3.3160  -24.0822  -56.4842 C.3       18 UNK         0.1400 
    101 CB        -2.7057  -25.3991  -56.9906 C.3       18 UNK        -0.1800 
    102 C         -2.2334  -22.9865  -56.4024 C.2       18 UNK         0.5000 
    103 O         -1.7959  -22.5087  -57.4503 O.2       18 UNK        -0.5000 
    104 N         -1.7930  -22.6210  -55.1886 N.am      19 UNK        -0.5000 
    105 CA        -0.7810  -21.5880  -54.9626 C.3       19 UNK         0.1400 
    106 CB        -0.2759  -21.6794  -53.5158 C.3       19 UNK        -0.1800 
    107 C         -1.3566  -20.1906  -55.2412 C.2       19 UNK         0.5000 
    108 O         -2.4455  -19.8858  -54.7492 O.2       19 UNK        -0.5000 
    109 N         -0.6227  -19.3703  -56.0076 N.am      20 UNK        -0.5000 
    110 CA        -0.9930  -18.0168  -56.4403 C.3       20 UNK         0.1400 
    111 CB        -0.8953  -17.0314  -55.2527 C.3       20 UNK        -0.1800 
    112 C         -2.3663  -18.0134  -57.1474 C.2       20 UNK         0.5000 
    113 O         -2.4548  -18.4465  -58.2975 O.2       20 UNK        -0.5000 
    114 N         -3.4075  -17.5819  -56.4298 N.am      21 UNK        -0.5000 
    115 CA        -4.8126  -17.7393  -56.7917 C.3       21 UNK         0.1400 
    116 CB        -5.2764  -16.5275  -57.6231 C.3       21 UNK        -0.1800 
    117 C         -5.6503  -17.9605  -55.5167 C.2       21 UNK         0.5000 
    118 O         -6.7775  -17.4686  -55.4317 O.2       21 UNK        -0.5000 
    119 N         -5.0761  -18.6563  -54.5260 N.am      22 UNK        -0.5000 
    120 CA        -5.6468  -18.8040  -53.1763 C.3       22 UNK         0.1400 
    121 C         -5.1902  -20.0733  -52.4013 C.2       22 UNK         0.5000 
    122 N         -4.1059  -20.7362  -52.7765 N.am      22 UNK        -0.7600 
    123 O         -5.8493  -20.4735  -51.4458 O.2       22 UNK        -0.5000 
    124 C124       -5.4734  -17.5133  -52.3276 C.3       23 UNK        -0.0398 
    125 S125       -3.7342  -16.9595  -52.1977 S.3       23 UNK        -0.2404 
    126 C126       -3.3401  -17.4917  -50.5069 C.3       23 UNK        -0.0205 
    127 H127       -4.6949  -13.8950  -47.4248 H         1 UNK         0.0600 
    128 H128       -4.3198  -12.7209  -48.6909 H         1 UNK         0.0600 
    129 H129       -3.4581  -14.2616  -48.6268 H         1 UNK         0.0600 
    130 H130       -1.3721  -13.9420  -47.9168 H         1 UNK         0.3000 
    131 H131       -0.5378  -11.6807  -46.3281 H         1 UNK         0.0600 
    132 H132        1.7278  -12.5393  -46.7194 H         1 UNK         0.0800 
    133 H133        0.8452  -12.4015  -48.1984 H         1 UNK         0.0800 
    134 H134        1.7571  -14.8023  -49.9835 H         1 UNK         0.0800 
    135 H135        0.2063  -14.0492  -49.7111 H         1 UNK         0.0800 
    136 H136       -1.7856  -15.3250  -49.9824 H         1 UNK         0.1150 
    137 H137       -1.6026  -19.5597  -50.4856 H         1 UNK         0.1150 
    138 H138        1.9332  -17.3721  -49.4066 H         1 UNK         0.1150 
    139 H139        1.8715  -19.8592  -50.5968 H         1 UNK         0.0800 
    140 H140        1.6571  -19.8911  -48.8691 H         1 UNK         0.0800 
    141 H141       -0.9201  -20.5192  -48.0773 H         1 UNK         0.0800 
    142 H142       -1.9535  -21.4605  -49.1010 H         1 UNK         0.0800 
    143 H143       -0.2636  -23.4538  -48.1018 H         1 UNK         0.0600 
    144 H144        0.1565  -21.3162  -46.3139 H         1 UNK         0.3000 
    145 H145        0.6843  -23.2249  -43.3210 H         1 UNK         0.0600 
    146 H146        2.4779  -21.4986  -45.1095 H         1 UNK         0.0600 
    147 H147        2.7023  -21.7599  -43.3811 H         1 UNK         0.0600 
    148 H148        2.8472  -23.1044  -44.5031 H         1 UNK         0.0600 
    149 H149        0.5482  -20.4058  -43.8611 H         1 UNK         0.3000 
    150 H150       -2.9353  -20.0192  -43.1781 H         1 UNK         0.0600 
    151 H151       -2.0206  -18.3948  -41.5201 H         1 UNK         0.0600 
    152 H152       -0.4767  -19.2468  -41.5196 H         1 UNK         0.0600 
    153 H153       -1.9240  -20.0450  -40.9250 H         1 UNK         0.0600 
    154 H154       -0.7451  -18.2382  -43.8075 H         1 UNK         0.3000 
    155 H155       -1.1995  -18.3166  -47.3381 H         1 UNK         0.0600 
    156 H156       -1.5892  -15.9145  -47.0410 H         1 UNK         0.0600 
    157 H157       -1.9506  -16.1338  -45.3275 H         1 UNK         0.0600 
    158 H158       -3.0230  -16.7987  -46.5558 H         1 UNK         0.0600 
    159 H159        0.4585  -16.6859  -45.7314 H         1 UNK         0.3000 
    160 H160        3.0504  -18.9680  -45.0271 H         1 UNK         0.0600 
    161 H161        3.1539  -16.7976  -47.1834 H         1 UNK         0.0600 
    162 H162        3.5933  -18.4827  -47.4130 H         1 UNK         0.0600 
    163 H163        4.5264  -17.4770  -46.3159 H         1 UNK         0.0600 
    164 H164        2.8664  -16.1179  -44.8019 H         1 UNK         0.3000 
    165 H165        0.9342  -15.5751  -42.4175 H         1 UNK         0.0600 
    166 H166        3.2817  -16.6777  -40.7992 H         1 UNK         0.0600 
    167 H167        2.2423  -15.3423  -40.2971 H         1 UNK         0.0600 
    168 H168        1.5724  -16.9505  -40.5061 H         1 UNK         0.0600 
    169 H169        2.2109  -14.0810  -43.3596 H         1 UNK         0.3000 
    170 H170        5.7288  -13.3883  -43.4058 H         1 UNK         0.0600 
    171 H171        4.8346  -14.2733  -45.5851 H         1 UNK         0.0600 
    172 H172        3.3397  -13.3831  -45.3368 H         1 UNK         0.0600 
    173 H173        4.8546  -12.5187  -45.5770 H         1 UNK         0.0600 
    174 H174        3.2673  -12.4576  -42.3142 H         1 UNK         0.3000 
    175 H175        4.4289   -9.7896  -41.2536 H         1 UNK         0.0600 
    176 H176        3.1563   -7.8453  -42.1981 H         1 UNK         0.0600 
    177 H177        4.6326   -8.1781  -43.0861 H         1 UNK         0.0600 
    178 H178        3.0845   -8.6607  -43.7602 H         1 UNK         0.0600 
    179 H179        2.4650  -10.4533  -40.5527 H         1 UNK         0.3000 
    180 H180        0.4806  -11.5191  -40.4758 H         1 UNK         0.0600 
    181 H181       -1.5254  -10.0141  -40.3756 H         1 UNK         0.0600 
    182 H182       -0.0370   -9.0803  -40.3760 H         1 UNK         0.0600 
    183 H183       -0.9982   -9.1963  -41.8457 H         1 UNK         0.0600 
    184 H184       -0.9890  -11.5140  -43.0736 H         1 UNK         0.3000 
    185 H185       -1.3303  -14.9649  -43.0195 H         1 UNK         0.0600 
    186 H186       -3.7471  -14.6456  -43.4430 H         1 UNK         0.0600 
    187 H187       -3.4082  -14.4598  -41.7293 H         1 UNK         0.0600 
    188 H188       -3.6912  -13.0355  -42.7244 H         1 UNK         0.0600 
    189 H189       -2.3534  -12.9836  -44.8082 H         1 UNK         0.3000 
    190 H190       -2.6680  -21.7279  -46.0421 H         1 UNK         0.3000 
    191 H191       -4.9181  -23.2322  -46.8309 H         1 UNK         0.0600 
    192 H192       -5.9446  -22.3285  -44.7466 H         1 UNK         0.0600 
    193 H193       -5.0759  -21.0780  -45.6229 H         1 UNK         0.0600 
    194 H194       -4.3662  -21.7996  -44.1803 H         1 UNK         0.0600 
    195 H195       -2.6256  -23.7982  -44.1129 H         1 UNK         0.3000 
    196 H196       -3.8761  -26.1160  -43.0662 H         1 UNK         0.0600 
    197 H197       -1.6721  -26.4631  -41.9367 H         1 UNK         0.0600 
    198 H198       -2.2017  -24.7923  -41.8128 H         1 UNK         0.0600 
    199 H199       -0.9426  -25.2345  -42.9637 H         1 UNK         0.0600 
    200 H200       -1.4007  -25.7497  -45.6192 H         1 UNK         0.3000 
    201 H201       -1.0550  -28.5776  -46.1022 H         1 UNK         0.0600 
    202 H202        0.6958  -26.8857  -46.6204 H         1 UNK         0.0600 
    203 H203       -0.3652  -26.1181  -47.8000 H         1 UNK         0.0600 
    204 H204        0.2309  -27.7501  -48.0774 H         1 UNK         0.0600 
    205 H205       -3.5532  -26.4040  -46.9255 H         1 UNK         0.3000 
    206 H206       -5.3048  -26.3287  -48.2520 H         1 UNK         0.0600 
    207 H207       -5.7990  -28.6465  -47.4345 H         1 UNK         0.0600 
    208 H208       -6.3897  -28.3796  -49.0666 H         1 UNK         0.0600 
    209 H209       -4.9264  -29.3183  -48.8119 H         1 UNK         0.0600 
    210 H210       -2.8910  -25.4587  -49.2418 H         1 UNK         0.3000 
    211 H211       -2.4474  -26.3684  -51.9872 H         1 UNK         0.0600 
    212 H212       -0.5997  -24.7090  -51.8938 H         1 UNK         0.0600 
    213 H213       -0.5479  -25.7781  -50.4994 H         1 UNK         0.0600 
    214 H214       -1.1675  -24.1375  -50.3312 H         1 UNK         0.0600 
    215 H215       -4.8568  -25.8170  -52.3393 H         1 UNK         0.3000 
    216 H216       -5.7061  -23.1287  -52.7415 H         1 UNK         0.0600 
    217 H217       -7.5796  -24.2084  -53.9878 H         1 UNK         0.0600 
    218 H218       -7.2623  -25.0411  -52.4744 H         1 UNK         0.0600 
    219 H219       -6.7089  -25.7380  -53.9975 H         1 UNK         0.0600 
    220 H220       -3.6410  -25.1239  -54.6706 H         1 UNK         0.3000 
    221 H221       -4.0605  -23.7516  -57.2115 H         1 UNK         0.0600 
    222 H222       -1.9496  -25.7827  -56.3043 H         1 UNK         0.0600 
    223 H223       -3.4699  -26.1670  -57.1130 H         1 UNK         0.0600 
    224 H224       -2.2279  -25.2619  -57.9616 H         1 UNK         0.0600 
    225 H225       -2.2378  -23.0037  -54.3647 H         1 UNK         0.3000 
    226 H226        0.0608  -21.7738  -55.6328 H         1 UNK         0.0600 
    227 H227        0.5162  -20.9528  -53.3310 H         1 UNK         0.0600 
    228 H228       -1.0723  -21.4788  -52.7981 H         1 UNK         0.0600 
    229 H229        0.1299  -22.6669  -53.2970 H         1 UNK         0.0600 
    230 H230        0.2434  -19.7220  -56.3906 H         1 UNK         0.3000 
    231 H231       -0.2596  -17.7092  -57.1871 H         1 UNK         0.0600 
    232 H232       -1.1759  -16.0216  -55.5547 H         1 UNK         0.0600 
    233 H233        0.1263  -16.9807  -54.8762 H         1 UNK         0.0600 
    234 H234       -1.5338  -17.3190  -54.4167 H         1 UNK         0.0600 
    235 H235       -3.2371  -17.2699  -55.4831 H         1 UNK         0.3000 
    236 H236       -4.9320  -18.6416  -57.3951 H         1 UNK         0.0600 
    237 H237       -5.2050  -15.6012  -57.0521 H         1 UNK         0.0600 
    238 H238       -4.6741  -16.4129  -58.5244 H         1 UNK         0.0600 
    239 H239       -6.3132  -16.6419  -57.9412 H         1 UNK         0.0600 
    240 H240       -4.1577  -19.0666  -54.6690 H         1 UNK         0.3000 
    241 H241       -6.7201  -18.9559  -53.3069 H         1 UNK         0.0600 
    242 H242       -3.8225  -21.5785  -52.2886 H         1 UNK         0.3800 
    243 H243       -3.5170  -20.4045  -53.5384 H         1 UNK         0.3800 
    244 H244       -5.9041  -17.6391  -51.3328 H         1 UNK         0.0800 
    245 H245       -6.0410  -16.7015  -52.7837 H         1 UNK         0.0800 
    246 H246       -3.8577  -16.8476  -49.7945 H         1 UNK         0.0800 
    247 H247       -3.7200  -18.5009  -50.3412 H         1 UNK         0.0800 
@<TRIPOS>BOND
     1    1    2 1    
     2    1  127 1    
     3    1  128 1    
     4    1  129 1    
     5    2    3 2    
     6    2    4 am   BACKBONE|DICT|INTERRES
     7    4    5 1    
     8    4  130 1    
     9    5    6 1    
    10    5   65 1    
    11    5  131 1    
    12    6    7 1    
    13    6  132 1    
    14    6  133 1    
    15    7    8 1    
    16    8    9 1    
    17    8  134 1    
    18    8  135 1    
    19    9   10 ar   
    20    9   14 ar   
    21   10   11 ar   
    22   10  136 1    
    23   11   12 ar   
    24   11  126 1    
    25   12   13 ar   
    26   12  137 1    
    27   13   14 ar   
    28   13   15 1    
    29   14  138 1    
    30   15   16 1    
    31   15  139 1    
    32   15  140 1    
    33   16   17 1    
    34   17   18 1    
    35   17  141 1    
    36   17  142 1    
    37   18   19 1    
    38   18   67 1    
    39   18  143 1    
    40   19   20 am   BACKBONE|DICT|INTERRES
    41   19  144 1    
    42   20   21 2    
    43   20   22 1    
    44   22   23 1    
    45   22   24 1    
    46   22  145 1    
    47   23  146 1    
    48   23  147 1    
    49   23  148 1    
    50   24   25 am   BACKBONE|DICT|INTERRES
    51   24  149 1    
    52   25   26 2    
    53   25   27 1    
    54   27   28 1    
    55   27   29 1    
    56   27  150 1    
    57   28  151 1    
    58   28  152 1    
    59   28  153 1    
    60   29   30 am   BACKBONE|DICT|INTERRES
    61   29  154 1    
    62   30   31 2    
    63   30   32 1    
    64   32   33 1    
    65   32   34 1    
    66   32  155 1    
    67   33  156 1    
    68   33  157 1    
    69   33  158 1    
    70   34   35 am   BACKBONE|DICT|INTERRES
    71   34  159 1    
    72   35   36 2    
    73   35   37 1    
    74   37   38 1    
    75   37   39 1    
    76   37  160 1    
    77   38  161 1    
    78   38  162 1    
    79   38  163 1    
    80   39   40 am   BACKBONE|DICT|INTERRES
    81   39  164 1    
    82   40   41 2    
    83   40   42 1    
    84   42   43 1    
    85   42   44 1    
    86   42  165 1    
    87   43  166 1    
    88   43  167 1    
    89   43  168 1    
    90   44   45 am   BACKBONE|DICT|INTERRES
    91   44  169 1    
    92   45   46 2    
    93   45   47 1    
    94   47   48 1    
    95   47   49 1    
    96   47  170 1    
    97   48  171 1    
    98   48  172 1    
    99   48  173 1    
   100   49   50 am   BACKBONE|DICT|INTERRES
   101   49  174 1    
   102   50   51 2    
   103   50   52 1    
   104   52   53 1    
   105   52   54 1    
   106   52  175 1    
   107   53  176 1    
   108   53  177 1    
   109   53  178 1    
   110   54   55 am   BACKBONE|DICT|INTERRES
   111   54  179 1    
   112   55   56 2    
   113   55   57 1    
   114   57   58 1    
   115   57   59 1    
   116   57  180 1    
   117   58  181 1    
   118   58  182 1    
   119   58  183 1    
   120   59   60 am   BACKBONE|DICT|INTERRES
   121   59  184 1    
   122   60   61 2    
   123   60   62 1    
   124   62   63 1    
   125   62   64 1    
   126   62  185 1    
   127   63  186 1    
   128   63  187 1    
   129   63  188 1    
   130   64   65 am   BACKBONE|DICT|INTERRES
   131   64  189 1    
   132   65   66 2    
   133   67   68 2    
   134   67   69 am   BACKBONE|DICT|INTERRES
   135   69   70 1    
   136   69  190 1    
   137   70   71 1    
   138   70   72 1    
   139   70  191 1    
   140   71  192 1    
   141   71  193 1    
   142   71  194 1    
   143   72   73 2    
   144   72   74 am   BACKBONE|DICT|INTERRES
   145   74   75 1    
   146   74  195 1    
   147   75   76 1    
   148   75   77 1    
   149   75  196 1    
   150   76  197 1    
   151   76  198 1    
   152   76  199 1    
   153   77   78 2    
   154   77   79 am   BACKBONE|DICT|INTERRES
   155   79   80 1    
   156   79  200 1    
   157   80   81 1    
   158   80   82 1    
   159   80  201 1    
   160   81  202 1    
   161   81  203 1    
   162   81  204 1    
   163   82   83 2    
   164   82   84 am   BACKBONE|DICT|INTERRES
   165   84   85 1    
   166   84  205 1    
   167   85   86 1    
   168   85   87 1    
   169   85  206 1    
   170   86  207 1    
   171   86  208 1    
   172   86  209 1    
   173   87   88 2    
   174   87   89 am   BACKBONE|DICT|INTERRES
   175   89   90 1    
   176   89  210 1    
   177   90   91 1    
   178   90   92 1    
   179   90  211 1    
   180   91  212 1    
   181   91  213 1    
   182   91  214 1    
   183   92   93 2    
   184   92   94 am   BACKBONE|DICT|INTERRES
   185   94   95 1    
   186   94  215 1    
   187   95   96 1    
   188   95   97 1    
   189   95  216 1    
   190   96  217 1    
   191   96  218 1    
   192   96  219 1    
   193   97   98 2    
   194   97   99 am   BACKBONE|DICT|INTERRES
   195   99  100 1    
   196   99  220 1    
   197  100  101 1    
   198  100  102 1    
   199  100  221 1    
   200  101  222 1    
   201  101  223 1    
   202  101  224 1    
   203  102  103 2    
   204  102  104 am   BACKBONE|DICT|INTERRES
   205  104  105 1    
   206  104  225 1    
   207  105  106 1    
   208  105  107 1    
   209  105  226 1    
   210  106  227 1    
   211  106  228 1    
   212  106  229 1    
   213  107  108 2    
   214  107  109 am   BACKBONE|DICT|INTERRES
   215  109  110 1    
   216  109  230 1    
   217  110  111 1    
   218  110  112 1    
   219  110  231 1    
   220  111  232 1    
   221  111  233 1    
   222  111  234 1    
   223  112  113 2    
   224  112  114 am   BACKBONE|DICT|INTERRES
   225  114  115 1    
   226  114  235 1    
   227  115  116 1    
   228  115  117 1    
   229  115  236 1    
   230  116  237 1    
   231  116  238 1    
   232  116  239 1    
   233  117  118 2    
   234  117  119 am   BACKBONE|DICT|INTERRES
   235  119  120 1    
   236  119  240 1    
   237  120  121 1    
   238  120  124 1    
   239  120  241 1    
   240  121  122 am   BACKBONE|DICT|INTERRES
   241  121  123 2    
   242  122  242 1    
   243  122  243 1    
   244  124  125 1    
   245  124  244 1    
   246  124  245 1    
   247  125  126 1    
   248  126  246 1    
   249  126  247 1    
@<TRIPOS>SUBSTRUCTURE
     1 UNK         1 GROUP             0       ****    0 ROOT    
