@<TRIPOS>MOLECULE
3R540
247   249    1
SMALL
USER_CHARGES


@<TRIPOS>ATOM
      1 CA         -0.2470  -13.5901  -53.1098 C.3       0 UNK        -0.1800 
      2 C           0.6202  -12.9527  -52.0339 C.2       0 UNK         0.5000 
      3 O           1.2884  -11.9534  -52.3017 O.2       0 UNK        -0.5000 
      4 N           0.6018  -13.5209  -50.8243 N.am      1 UNK        -0.5000 
      5 CA          1.3085  -13.0276  -49.6414 C.3       1 UNK         0.1400 
      6 C6          2.4262  -13.9965  -49.1799 C.3       23 UNK        -0.0398 
      7 S7          3.7688  -14.1866  -50.3952 S.3       23 UNK        -0.2404 
      8 C8          4.4373  -15.8230  -49.9275 C.3       23 UNK        -0.0205 
      9 C9          3.5855  -17.0273  -50.3356 C.ar      23 UNK        -0.0193 
     10 C10         2.7866  -17.0166  -51.4855 C.ar      23 UNK        -0.1150 
     11 C11         2.0788  -18.1572  -51.8768 C.ar      23 UNK        -0.0193 
     12 C12         2.1598  -19.3181  -51.1030 C.ar      23 UNK        -0.1150 
     13 C13         2.9693  -19.3543  -49.9636 C.ar      23 UNK        -0.0193 
     14 C14         3.6721  -18.2054  -49.5849 C.ar      23 UNK        -0.1150 
     15 C15         3.1557  -20.6568  -49.1933 C.3       23 UNK        -0.0205 
     16 S16         2.5032  -20.5843  -47.4964 S.3       23 UNK        -0.2404 
     17 C17         0.7077  -20.6602  -47.7922 C.3       23 UNK        -0.0398 
     18 CA          0.0971  -22.0443  -47.4895 C.3       11 UNK         0.1400 
     19 N           0.2041  -22.3922  -46.0682 N.am      11 UNK        -0.5000 
     20 C          -0.1740  -23.5600  -45.5278 C.2       10 UNK         0.5000 
     21 O          -0.5966  -24.5083  -46.1905 O.2       10 UNK        -0.5000 
     22 CA         -0.1560  -23.6723  -43.9892 C.3       10 UNK         0.1400 
     23 CB          1.1535  -24.3203  -43.5195 C.3       10 UNK        -0.1800 
     24 N          -0.3368  -22.3948  -43.2923 N.am      10 UNK        -0.5000 
     25 C          -1.3535  -21.5368  -43.4662 C.2       9 UNK         0.5000 
     26 O          -2.3308  -21.7810  -44.1731 O.2       9 UNK        -0.5000 
     27 CA         -1.2456  -20.1536  -42.7928 C.3       9 UNK         0.1400 
     28 CB         -2.1376  -20.1071  -41.5437 C.3       9 UNK        -0.1800 
     29 N           0.1166  -19.7140  -42.4510 N.am      9 UNK        -0.5000 
     30 C           1.1608  -19.6528  -43.2950 C.2       8 UNK         0.5000 
     31 O           1.0968  -20.0094  -44.4709 O.2       8 UNK        -0.5000 
     32 CA          2.4894  -19.1225  -42.7269 C.3       8 UNK         0.1400 
     33 CB          3.4949  -18.7343  -43.8273 C.3       8 UNK        -0.1800 
     34 N           2.2336  -17.9583  -41.8883 N.am      8 UNK        -0.5000 
     35 C           2.5959  -17.8054  -40.6113 C.2       7 UNK         0.5000 
     36 O           3.2424  -18.6388  -39.9757 O.2       7 UNK        -0.5000 
     37 CA          2.1453  -16.5032  -39.9174 C.3       7 UNK         0.1400 
     38 CB          3.2526  -15.4418  -40.0068 C.3       7 UNK        -0.1800 
     39 N           0.9010  -15.9307  -40.4443 N.am      7 UNK        -0.5000 
     40 C          -0.2968  -16.5317  -40.4396 C.2       6 UNK         0.5000 
     41 O          -0.4801  -17.6731  -40.0170 O.2       6 UNK        -0.5000 
     42 CA         -1.4875  -15.7352  -40.9973 C.3       6 UNK         0.1400 
     43 CB         -1.3048  -14.2051  -40.9272 C.3       6 UNK        -0.1800 
     44 N          -1.7384  -16.1266  -42.3820 N.am      6 UNK        -0.5000 
     45 C          -2.9546  -16.2629  -42.9308 C.2       5 UNK         0.5000 
     46 O          -3.9988  -16.1548  -42.2862 O.2       5 UNK        -0.5000 
     47 CA         -3.0401  -16.5459  -44.4466 C.3       5 UNK         0.1400 
     48 CB         -4.0537  -15.6167  -45.1365 C.3       5 UNK        -0.1800 
     49 N          -1.7450  -16.3752  -45.1015 N.am      5 UNK        -0.5000 
     50 C          -1.0621  -17.3354  -45.7358 C.2       4 UNK         0.5000 
     51 O          -1.5084  -18.4647  -45.9349 O.2       4 UNK        -0.5000 
     52 CA          0.3642  -16.9901  -46.2202 C.3       4 UNK         0.1400 
     53 CB          0.4644  -17.0370  -47.7498 C.3       4 UNK        -0.1800 
     54 N           0.8728  -15.6935  -45.7660 N.am      4 UNK        -0.5000 
     55 C           1.1553  -15.3623  -44.5000 C.2       3 UNK         0.5000 
     56 O           0.9743  -16.1139  -43.5443 O.2       3 UNK        -0.5000 
     57 CA          1.6709  -13.9346  -44.2512 C.3       3 UNK         0.1400 
     58 CB          3.2062  -13.9194  -44.2553 C.3       3 UNK        -0.1800 
     59 N           1.1730  -12.9603  -45.2254 N.am      3 UNK        -0.5000 
     60 C          -0.1147  -12.6150  -45.3825 C.2       2 UNK         0.5000 
     61 O          -1.0368  -13.0898  -44.7182 O.2       2 UNK        -0.5000 
     62 CA         -0.4151  -11.6028  -46.5044 C.3       2 UNK         0.1400 
     63 CB         -0.2199  -10.1639  -46.0030 C.3       2 UNK        -0.1800 
     64 N           0.4219  -11.8261  -47.6888 N.am      2 UNK        -0.5000 
     65 C           0.2705  -12.8668  -48.5187 C.2       1 UNK         0.5000 
     66 O          -0.6210  -13.7093  -48.3944 O.2       1 UNK        -0.5000 
     67 C          -1.3570  -22.0922  -48.0125 C.2       11 UNK         0.5000 
     68 O          -1.5546  -22.3358  -49.2039 O.2       11 UNK        -0.5000 
     69 N          -2.3409  -21.8646  -47.1323 N.am      12 UNK        -0.5000 
     70 CA         -3.7662  -21.9839  -47.4240 C.3       12 UNK         0.1400 
     71 CB         -4.5016  -20.7430  -46.8916 C.3       12 UNK        -0.1800 
     72 C          -4.3510  -23.2610  -46.8005 C.2       12 UNK         0.5000 
     73 O          -5.1118  -23.9627  -47.4641 O.2       12 UNK        -0.5000 
     74 N          -3.9990  -23.5389  -45.5391 N.am      13 UNK        -0.5000 
     75 CA         -4.5979  -24.6017  -44.7323 C.3       13 UNK         0.1400 
     76 CB         -4.2927  -24.3381  -43.2494 C.3       13 UNK        -0.1800 
     77 C          -4.1673  -26.0262  -45.1263 C.2       13 UNK         0.5000 
     78 O          -4.9505  -26.9550  -44.9217 O.2       13 UNK        -0.5000 
     79 N          -2.9473  -26.1846  -45.6574 N.am      14 UNK        -0.5000 
     80 CA         -2.3726  -27.4813  -46.0184 C.3       14 UNK         0.1400 
     81 CB         -1.1212  -27.7481  -45.1640 C.3       14 UNK        -0.1800 
     82 C          -2.0465  -27.5496  -47.5163 C.2       14 UNK         0.5000 
     83 O          -2.4686  -28.4957  -48.1824 O.2       14 UNK        -0.5000 
     84 N          -1.3025  -26.5574  -48.0248 N.am      15 UNK        -0.5000 
     85 CA         -0.8434  -26.5181  -49.4163 C.3       15 UNK         0.1400 
     86 CB          0.3499  -25.5589  -49.5294 C.3       15 UNK        -0.1800 
     87 C          -1.9469  -26.1122  -50.4100 C.2       15 UNK         0.5000 
     88 O          -1.8811  -26.5059  -51.5745 O.2       15 UNK        -0.5000 
     89 N          -2.9209  -25.3203  -49.9353 N.am      16 UNK        -0.5000 
     90 CA         -4.0688  -24.7722  -50.6710 C.3       16 UNK         0.1400 
     91 CB         -5.0117  -25.8988  -51.1393 C.3       16 UNK        -0.1800 
     92 C          -3.7017  -23.7977  -51.8125 C.2       16 UNK         0.5000 
     93 O          -4.5590  -23.4755  -52.6363 O.2       16 UNK        -0.5000 
     94 N          -2.4564  -23.3056  -51.8242 N.am      17 UNK        -0.5000 
     95 CA         -1.9457  -22.3409  -52.7941 C.3       17 UNK         0.1400 
     96 CB         -0.4107  -22.3075  -52.7222 C.3       17 UNK        -0.1800 
     97 C          -2.5384  -20.9482  -52.5456 C.2       17 UNK         0.5000 
     98 O          -3.1136  -20.3502  -53.4543 O.2       17 UNK        -0.5000 
     99 N          -2.4412  -20.4806  -51.2953 N.am      18 UNK        -0.5000 
    100 CA        -2.9740  -19.1858  -50.8719 C.3       18 UNK         0.1400 
    101 CB        -2.2417  -18.7217  -49.6107 C.3       18 UNK        -0.1800 
    102 C         -4.5012  -19.2004  -50.6844 C.2       18 UNK         0.5000 
    103 O         -5.1223  -18.1407  -50.7462 O.2       18 UNK        -0.5000 
    104 N         -5.0942  -20.3954  -50.5390 N.am      19 UNK        -0.5000 
    105 CA        -6.5458  -20.6048  -50.5681 C.3       19 UNK         0.1400 
    106 CB        -6.8757  -22.0226  -50.0799 C.3       19 UNK        -0.1800 
    107 C         -7.1392  -20.3622  -51.9710 C.2       19 UNK         0.5000 
    108 O         -8.2728  -19.8955  -52.0811 O.2       19 UNK        -0.5000 
    109 N         -6.3400  -20.6358  -53.0122 N.am      20 UNK        -0.5000 
    110 CA        -6.6270  -20.3187  -54.4121 C.3       20 UNK         0.1400 
    111 CB        -5.9570  -21.3825  -55.2985 C.3       20 UNK        -0.1800 
    112 C         -6.1674  -18.8957  -54.8037 C.2       20 UNK         0.5000 
    113 O         -6.2688  -18.5366  -55.9770 O.2       20 UNK        -0.5000 
    114 N         -5.6711  -18.1190  -53.8268 N.am      21 UNK        -0.5000 
    115 CA        -5.1260  -16.7617  -53.9367 C.3       21 UNK         0.1400 
    116 CB        -6.1981  -15.7659  -54.4287 C.3       21 UNK        -0.1800 
    117 C         -3.8084  -16.6846  -54.7376 C.2       21 UNK         0.5000 
    118 O         -3.5111  -15.6381  -55.3173 O.2       21 UNK        -0.5000 
    119 N         -3.0299  -17.7766  -54.7226 N.am      22 UNK        -0.5000 
    120 CA        -1.7306  -17.9449  -55.3947 C.3       22 UNK         0.1400 
    121 C         -1.8146  -17.9306  -56.9544 C.2       22 UNK         0.5000 
    122 N         -0.6905  -18.0382  -57.6522 N.am      22 UNK        -0.7600 
    123 O         -2.8846  -17.8715  -57.5558 O.2       22 UNK        -0.5000 
    124 C124       -0.6404  -16.9875  -54.8303 C.3       23 UNK        -0.0398 
    125 S125       -0.2798  -17.2747  -53.0593 S.3       23 UNK        -0.2404 
    126 C126        1.3073  -18.1540  -53.1871 C.3       23 UNK        -0.0205 
    127 H127        0.3809  -14.0985  -53.8410 H         1 UNK         0.0600 
    128 H128       -0.8290  -12.8283  -53.6282 H         1 UNK         0.0600 
    129 H129       -0.9430  -14.3163  -52.6898 H         1 UNK         0.0600 
    130 H130       -0.0122  -14.3046  -50.6466 H         1 UNK         0.3000 
    131 H131        1.7494  -12.0480  -49.8373 H         1 UNK         0.0600 
    132 H132        2.0060  -14.9808  -48.9805 H         1 UNK         0.0800 
    133 H133        2.8760  -13.6549  -48.2456 H         1 UNK         0.0800 
    134 H134        5.4171  -15.9343  -50.3931 H         1 UNK         0.0800 
    135 H135        4.6083  -15.8318  -48.8498 H         1 UNK         0.0800 
    136 H136        2.7351  -16.1308  -52.1023 H         1 UNK         0.1150 
    137 H137        1.6316  -20.2072  -51.4162 H         1 UNK         0.1150 
    138 H138        4.3115  -18.2412  -48.7139 H         1 UNK         0.1150 
    139 H139        2.6954  -21.4942  -49.7201 H         1 UNK         0.0800 
    140 H140        4.2220  -20.8813  -49.1438 H         1 UNK         0.0800 
    141 H141        0.5038  -20.3507  -48.8188 H         1 UNK         0.0800 
    142 H142        0.2405  -19.9205  -47.1457 H         1 UNK         0.0800 
    143 H143        0.6646  -22.7893  -48.0474 H         1 UNK         0.0600 
    144 H144        0.5377  -21.6503  -45.4583 H         1 UNK         0.3000 
    145 H145       -0.9807  -24.3260  -43.7028 H         1 UNK         0.0600 
    146 H146        1.1442  -24.4948  -42.4434 H         1 UNK         0.0600 
    147 H147        1.3068  -25.2866  -44.0021 H         1 UNK         0.0600 
    148 H148        2.0168  -23.6956  -43.7526 H         1 UNK         0.0600 
    149 H149        0.4233  -22.0994  -42.6985 H         1 UNK         0.3000 
    150 H150       -1.6433  -19.4328  -43.5071 H         1 UNK         0.0600 
    151 H151       -3.1261  -20.5221  -41.7467 H         1 UNK         0.0600 
    152 H152       -2.2924  -19.0824  -41.2090 H         1 UNK         0.0600 
    153 H153       -1.7059  -20.6738  -40.7183 H         1 UNK         0.0600 
    154 H154        0.2455  -19.3686  -41.5084 H         1 UNK         0.3000 
    155 H155        2.9221  -19.9335  -42.1384 H         1 UNK         0.0600 
    156 H156        3.1025  -17.9462  -44.4706 H         1 UNK         0.0600 
    157 H157        3.7344  -19.5886  -44.4620 H         1 UNK         0.0600 
    158 H158        4.4305  -18.3783  -43.3964 H         1 UNK         0.0600 
    159 H159        1.6981  -17.2163  -42.3366 H         1 UNK         0.3000 
    160 H160        1.9795  -16.7376  -38.8641 H         1 UNK         0.0600 
    161 H161        3.4383  -15.1421  -41.0388 H         1 UNK         0.0600 
    162 H162        4.1916  -15.8204  -39.6008 H         1 UNK         0.0600 
    163 H163        2.9916  -14.5489  -39.4385 H         1 UNK         0.0600 
    164 H164        0.9647  -14.9985  -40.8240 H         1 UNK         0.3000 
    165 H165       -2.3424  -16.0011  -40.3720 H         1 UNK         0.0600 
    166 H166       -2.2305  -13.6935  -41.1915 H         1 UNK         0.0600 
    167 H167       -1.0371  -13.8835  -39.9198 H         1 UNK         0.0600 
    168 H168       -0.5330  -13.8521  -41.6116 H         1 UNK         0.0600 
    169 H169       -0.9116  -16.2762  -42.9511 H         1 UNK         0.3000 
    170 H170       -3.3930  -17.5738  -44.5509 H         1 UNK         0.0600 
    171 H171       -5.0532  -15.7393  -44.7177 H         1 UNK         0.0600 
    172 H172       -3.7744  -14.5680  -45.0258 H         1 UNK         0.0600 
    173 H173       -4.1223  -15.8341  -46.2027 H         1 UNK         0.0600 
    174 H174       -1.3202  -15.4616  -45.0053 H         1 UNK         0.3000 
    175 H175        1.0244  -17.7617  -45.8229 H         1 UNK         0.0600 
    176 H176       -0.0947  -16.2315  -48.2229 H         1 UNK         0.0600 
    177 H177        1.5026  -16.9813  -48.0725 H         1 UNK         0.0600 
    178 H178        0.0703  -17.9676  -48.1422 H         1 UNK         0.0600 
    179 H179        0.9909  -14.9887  -46.4768 H         1 UNK         0.3000 
    180 H180        1.3272  -13.6278  -43.2616 H         1 UNK         0.0600 
    181 H181        3.6097  -14.1828  -45.2340 H         1 UNK         0.0600 
    182 H182        3.6069  -14.6330  -43.5339 H         1 UNK         0.0600 
    183 H183        3.5919  -12.9360  -43.9857 H         1 UNK         0.0600 
    184 H184        1.8639  -12.5091  -45.8061 H         1 UNK         0.3000 
    185 H185       -1.4624  -11.7234  -46.7903 H         1 UNK         0.0600 
    186 H186       -0.8445   -9.9672  -45.1305 H         1 UNK         0.0600 
    187 H187        0.8146   -9.9709  -45.7162 H         1 UNK         0.0600 
    188 H188       -0.4969   -9.4391  -46.7689 H         1 UNK         0.0600 
    189 H189        1.1624  -11.1588  -47.8538 H         1 UNK         0.3000 
    190 H190       -2.0988  -21.6673  -46.1671 H         1 UNK         0.3000 
    191 H191       -3.9318  -22.0368  -48.5008 H         1 UNK         0.0600 
    192 H192       -4.1434  -19.8320  -47.3693 H         1 UNK         0.0600 
    193 H193       -5.5728  -20.8090  -47.0857 H         1 UNK         0.0600 
    194 H194       -4.3680  -20.6239  -45.8156 H         1 UNK         0.0600 
    195 H195       -3.3813  -22.8956  -45.0470 H         1 UNK         0.3000 
    196 H196       -5.6811  -24.5463  -44.8612 H         1 UNK         0.0600 
    197 H197       -4.7728  -25.0823  -42.6127 H         1 UNK         0.0600 
    198 H198       -4.6603  -23.3598  -42.9390 H         1 UNK         0.0600 
    199 H199       -3.2233  -24.3727  -43.0439 H         1 UNK         0.0600 
    200 H200       -2.3624  -25.3721  -45.8153 H         1 UNK         0.3000 
    201 H201       -3.0802  -28.2875  -45.8142 H         1 UNK         0.0600 
    202 H202       -1.3671  -27.7569  -44.1021 H         1 UNK         0.0600 
    203 H203       -0.3478  -26.9962  -45.3195 H         1 UNK         0.0600 
    204 H204       -0.6859  -28.7187  -45.4047 H         1 UNK         0.0600 
    205 H205       -0.9743  -25.8176  -47.4074 H         1 UNK         0.3000 
    206 H206       -0.4978  -27.5165  -49.6933 H         1 UNK         0.0600 
    207 H207        1.1358  -25.8132  -48.8179 H         1 UNK         0.0600 
    208 H208        0.7872  -25.5980  -50.5278 H         1 UNK         0.0600 
    209 H209        0.0493  -24.5293  -49.3479 H         1 UNK         0.0600 
    210 H210       -2.8676  -25.0619  -48.9608 H         1 UNK         0.3000 
    211 H211       -4.6215  -24.1702  -49.9528 H         1 UNK         0.0600 
    212 H212       -4.5584  -26.5091  -51.9207 H         1 UNK         0.0600 
    213 H213       -5.9402  -25.4918  -51.5412 H         1 UNK         0.0600 
    214 H214       -5.2797  -26.5559  -50.3118 H         1 UNK         0.0600 
    215 H215       -1.8456  -23.5412  -51.0529 H         1 UNK         0.3000 
    216 H216       -2.2378  -22.6610  -53.7966 H         1 UNK         0.0600 
    217 H217       -0.0022  -21.5782  -53.4229 H         1 UNK         0.0600 
    218 H218        0.0141  -23.2782  -52.9786 H         1 UNK         0.0600 
    219 H219       -0.0558  -22.0426  -51.7254 H         1 UNK         0.0600 
    220 H220       -2.0020  -21.0615  -50.5867 H         1 UNK         0.3000 
    221 H221       -2.7624  -18.4544  -51.6550 H         1 UNK         0.0600 
    222 H222       -2.3426  -19.4289  -48.7897 H         1 UNK         0.0600 
    223 H223       -1.1817  -18.6030  -49.8293 H         1 UNK         0.0600 
    224 H224       -2.6150  -17.7566  -49.2657 H         1 UNK         0.0600 
    225 H225       -4.5100  -21.2165  -50.5324 H         1 UNK         0.3000 
    226 H226       -7.0070  -19.8920  -49.8810 H         1 UNK         0.0600 
    227 H227       -6.4803  -22.2018  -49.0810 H         1 UNK         0.0600 
    228 H228       -7.9548  -22.1725  -50.0299 H         1 UNK         0.0600 
    229 H229       -6.4749  -22.7846  -50.7477 H         1 UNK         0.0600 
    230 H230       -5.4270  -21.0342  -52.8356 H         1 UNK         0.3000 
    231 H231       -7.7046  -20.3692  -54.5807 H         1 UNK         0.0600 
    232 H232       -6.2854  -22.3858  -55.0263 H         1 UNK         0.0600 
    233 H233       -4.8704  -21.3535  -55.2128 H         1 UNK         0.0600 
    234 H234       -6.2071  -21.2338  -56.3495 H         1 UNK         0.0600 
    235 H235       -5.6500  -18.5057  -52.8930 H         1 UNK         0.3000 
    236 H236       -4.8626  -16.4681  -52.9199 H         1 UNK         0.0600 
    237 H237       -5.8465  -14.7376  -54.3380 H         1 UNK         0.0600 
    238 H238       -6.4553  -15.9295  -55.4754 H         1 UNK         0.0600 
    239 H239       -7.1120  -15.8470  -53.8403 H         1 UNK         0.0600 
    240 H240       -3.3573  -18.6070  -54.2389 H         1 UNK         0.3000 
    241 H241       -1.4252  -18.9636  -55.1541 H         1 UNK         0.0600 
    242 H242       -0.7457  -18.0464  -58.6592 H         1 UNK         0.3800 
    243 H243        0.2102  -18.1330  -57.2106 H         1 UNK         0.3800 
    244 H244        0.2895  -17.0767  -55.3907 H         1 UNK         0.0800 
    245 H245       -0.9444  -15.9481  -54.9538 H         1 UNK         0.0800 
    246 H246        1.1226  -19.1731  -53.5303 H         1 UNK         0.0800 
    247 H247        1.9329  -17.6835  -53.9469 H         1 UNK         0.0800 
@<TRIPOS>BOND
     1    1    2 1    
     2    1  127 1    
     3    1  128 1    
     4    1  129 1    
     5    2    3 2    
     6    2    4 am   BACKBONE|DICT|INTERRES
     7    4    5 1    
     8    4  130 1    
     9    5    6 1    
    10    5   65 1    
    11    5  131 1    
    12    6    7 1    
    13    6  132 1    
    14    6  133 1    
    15    7    8 1    
    16    8    9 1    
    17    8  134 1    
    18    8  135 1    
    19    9   10 ar   
    20    9   14 ar   
    21   10   11 ar   
    22   10  136 1    
    23   11   12 ar   
    24   11  126 1    
    25   12   13 ar   
    26   12  137 1    
    27   13   14 ar   
    28   13   15 1    
    29   14  138 1    
    30   15   16 1    
    31   15  139 1    
    32   15  140 1    
    33   16   17 1    
    34   17   18 1    
    35   17  141 1    
    36   17  142 1    
    37   18   19 1    
    38   18   67 1    
    39   18  143 1    
    40   19   20 am   BACKBONE|DICT|INTERRES
    41   19  144 1    
    42   20   21 2    
    43   20   22 1    
    44   22   23 1    
    45   22   24 1    
    46   22  145 1    
    47   23  146 1    
    48   23  147 1    
    49   23  148 1    
    50   24   25 am   BACKBONE|DICT|INTERRES
    51   24  149 1    
    52   25   26 2    
    53   25   27 1    
    54   27   28 1    
    55   27   29 1    
    56   27  150 1    
    57   28  151 1    
    58   28  152 1    
    59   28  153 1    
    60   29   30 am   BACKBONE|DICT|INTERRES
    61   29  154 1    
    62   30   31 2    
    63   30   32 1    
    64   32   33 1    
    65   32   34 1    
    66   32  155 1    
    67   33  156 1    
    68   33  157 1    
    69   33  158 1    
    70   34   35 am   BACKBONE|DICT|INTERRES
    71   34  159 1    
    72   35   36 2    
    73   35   37 1    
    74   37   38 1    
    75   37   39 1    
    76   37  160 1    
    77   38  161 1    
    78   38  162 1    
    79   38  163 1    
    80   39   40 am   BACKBONE|DICT|INTERRES
    81   39  164 1    
    82   40   41 2    
    83   40   42 1    
    84   42   43 1    
    85   42   44 1    
    86   42  165 1    
    87   43  166 1    
    88   43  167 1    
    89   43  168 1    
    90   44   45 am   BACKBONE|DICT|INTERRES
    91   44  169 1    
    92   45   46 2    
    93   45   47 1    
    94   47   48 1    
    95   47   49 1    
    96   47  170 1    
    97   48  171 1    
    98   48  172 1    
    99   48  173 1    
   100   49   50 am   BACKBONE|DICT|INTERRES
   101   49  174 1    
   102   50   51 2    
   103   50   52 1    
   104   52   53 1    
   105   52   54 1    
   106   52  175 1    
   107   53  176 1    
   108   53  177 1    
   109   53  178 1    
   110   54   55 am   BACKBONE|DICT|INTERRES
   111   54  179 1    
   112   55   56 2    
   113   55   57 1    
   114   57   58 1    
   115   57   59 1    
   116   57  180 1    
   117   58  181 1    
   118   58  182 1    
   119   58  183 1    
   120   59   60 am   BACKBONE|DICT|INTERRES
   121   59  184 1    
   122   60   61 2    
   123   60   62 1    
   124   62   63 1    
   125   62   64 1    
   126   62  185 1    
   127   63  186 1    
   128   63  187 1    
   129   63  188 1    
   130   64   65 am   BACKBONE|DICT|INTERRES
   131   64  189 1    
   132   65   66 2    
   133   67   68 2    
   134   67   69 am   BACKBONE|DICT|INTERRES
   135   69   70 1    
   136   69  190 1    
   137   70   71 1    
   138   70   72 1    
   139   70  191 1    
   140   71  192 1    
   141   71  193 1    
   142   71  194 1    
   143   72   73 2    
   144   72   74 am   BACKBONE|DICT|INTERRES
   145   74   75 1    
   146   74  195 1    
   147   75   76 1    
   148   75   77 1    
   149   75  196 1    
   150   76  197 1    
   151   76  198 1    
   152   76  199 1    
   153   77   78 2    
   154   77   79 am   BACKBONE|DICT|INTERRES
   155   79   80 1    
   156   79  200 1    
   157   80   81 1    
   158   80   82 1    
   159   80  201 1    
   160   81  202 1    
   161   81  203 1    
   162   81  204 1    
   163   82   83 2    
   164   82   84 am   BACKBONE|DICT|INTERRES
   165   84   85 1    
   166   84  205 1    
   167   85   86 1    
   168   85   87 1    
   169   85  206 1    
   170   86  207 1    
   171   86  208 1    
   172   86  209 1    
   173   87   88 2    
   174   87   89 am   BACKBONE|DICT|INTERRES
   175   89   90 1    
   176   89  210 1    
   177   90   91 1    
   178   90   92 1    
   179   90  211 1    
   180   91  212 1    
   181   91  213 1    
   182   91  214 1    
   183   92   93 2    
   184   92   94 am   BACKBONE|DICT|INTERRES
   185   94   95 1    
   186   94  215 1    
   187   95   96 1    
   188   95   97 1    
   189   95  216 1    
   190   96  217 1    
   191   96  218 1    
   192   96  219 1    
   193   97   98 2    
   194   97   99 am   BACKBONE|DICT|INTERRES
   195   99  100 1    
   196   99  220 1    
   197  100  101 1    
   198  100  102 1    
   199  100  221 1    
   200  101  222 1    
   201  101  223 1    
   202  101  224 1    
   203  102  103 2    
   204  102  104 am   BACKBONE|DICT|INTERRES
   205  104  105 1    
   206  104  225 1    
   207  105  106 1    
   208  105  107 1    
   209  105  226 1    
   210  106  227 1    
   211  106  228 1    
   212  106  229 1    
   213  107  108 2    
   214  107  109 am   BACKBONE|DICT|INTERRES
   215  109  110 1    
   216  109  230 1    
   217  110  111 1    
   218  110  112 1    
   219  110  231 1    
   220  111  232 1    
   221  111  233 1    
   222  111  234 1    
   223  112  113 2    
   224  112  114 am   BACKBONE|DICT|INTERRES
   225  114  115 1    
   226  114  235 1    
   227  115  116 1    
   228  115  117 1    
   229  115  236 1    
   230  116  237 1    
   231  116  238 1    
   232  116  239 1    
   233  117  118 2    
   234  117  119 am   BACKBONE|DICT|INTERRES
   235  119  120 1    
   236  119  240 1    
   237  120  121 1    
   238  120  124 1    
   239  120  241 1    
   240  121  122 am   BACKBONE|DICT|INTERRES
   241  121  123 2    
   242  122  242 1    
   243  122  243 1    
   244  124  125 1    
   245  124  244 1    
   246  124  245 1    
   247  125  126 1    
   248  126  246 1    
   249  126  247 1    
@<TRIPOS>SUBSTRUCTURE
     1 UNK         1 GROUP             0       ****    0 ROOT    
