@<TRIPOS>MOLECULE
3R540
247   249    1
SMALL
USER_CHARGES


@<TRIPOS>ATOM
      1 CA         -1.9639  -13.9510  -44.4231 C.3       0 UNK        -0.1800 
      2 C          -1.1253  -12.8311  -45.0226 C.2       0 UNK         0.5000 
      3 O          -0.8134  -11.8624  -44.3298 O.2       0 UNK        -0.5000 
      4 N          -0.7672  -12.9558  -46.3068 N.am      1 UNK        -0.5000 
      5 CA          0.1272  -12.0448  -47.0290 C.3       1 UNK         0.1400 
      6 C6          0.1203  -12.3036  -48.5589 C.3       23 UNK        -0.0398 
      7 S7          0.3550  -14.0582  -49.0258 S.3       23 UNK        -0.2404 
      8 C8         -1.2116  -14.4042  -49.8866 C.3       23 UNK        -0.0205 
      9 C9         -1.4462  -15.8981  -50.0447 C.ar      23 UNK        -0.0193 
     10 C10        -0.6415  -16.6523  -50.9009 C.ar      23 UNK        -0.1150 
     11 C11        -0.8543  -18.0248  -51.0461 C.ar      23 UNK        -0.0193 
     12 C12        -1.8838  -18.6430  -50.3297 C.ar      23 UNK        -0.1150 
     13 C13        -2.7016  -17.9011  -49.4666 C.ar      23 UNK        -0.0193 
     14 C14        -2.4733  -16.5282  -49.3371 C.ar      23 UNK        -0.1150 
     15 C15        -3.8167  -18.5186  -48.6222 C.3       23 UNK        -0.0205 
     16 S16        -4.1544  -20.2921  -48.8966 S.3       23 UNK        -0.2404 
     17 C17        -4.6169  -20.8101  -47.2079 C.3       23 UNK        -0.0398 
     18 CA         -3.4068  -21.3969  -46.4309 C.3       11 UNK         0.1400 
     19 N          -3.4163  -21.1010  -44.9956 N.am      11 UNK        -0.5000 
     20 C          -4.3822  -21.3406  -44.0992 C.2       10 UNK         0.5000 
     21 O          -5.4729  -21.8337  -44.3814 O.2       10 UNK        -0.5000 
     22 CA         -4.0428  -21.0104  -42.6359 C.3       10 UNK         0.1400 
     23 CB         -3.2483  -22.1658  -42.0054 C.3       10 UNK        -0.1800 
     24 N          -3.2523  -19.7825  -42.5423 N.am      10 UNK        -0.5000 
     25 C          -3.7620  -18.5704  -42.2842 C.2       9 UNK         0.5000 
     26 O          -4.9428  -18.3685  -41.9978 O.2       9 UNK        -0.5000 
     27 CA         -2.7927  -17.3744  -42.3815 C.3       9 UNK         0.1400 
     28 CB         -2.1119  -17.1222  -41.0281 C.3       9 UNK        -0.1800 
     29 N          -1.7723  -17.5395  -43.4207 N.am      9 UNK        -0.5000 
     30 C          -2.0419  -17.6384  -44.7308 C.2       8 UNK         0.5000 
     31 O          -3.1730  -17.5173  -45.1990 O.2       8 UNK        -0.5000 
     32 CA         -0.8724  -17.9455  -45.6836 C.3       8 UNK         0.1400 
     33 CB         -0.3702  -16.6616  -46.3598 C.3       8 UNK        -0.1800 
     34 N           0.2604  -18.6274  -45.0574 N.am      8 UNK        -0.5000 
     35 C           0.2462  -19.8550  -44.5213 C.2       7 UNK         0.5000 
     36 O          -0.7702  -20.5392  -44.4015 O.2       7 UNK        -0.5000 
     37 CA          1.5942  -20.4022  -44.0311 C.3       7 UNK         0.1400 
     38 CB          2.4768  -20.8174  -45.2194 C.3       7 UNK        -0.1800 
     39 N           2.2972  -19.3983  -43.2385 N.am      7 UNK        -0.5000 
     40 C           2.2221  -19.2916  -41.9059 C.2       6 UNK         0.5000 
     41 O           1.6038  -20.0793  -41.1892 O.2       6 UNK        -0.5000 
     42 CA          2.9535  -18.0980  -41.2590 C.3       6 UNK         0.1400 
     43 CB          4.3647  -18.5102  -40.8135 C.3       6 UNK        -0.1800 
     44 N           3.0524  -16.9241  -42.1296 N.am      6 UNK        -0.5000 
     45 C           2.0065  -16.2047  -42.5575 C.2       5 UNK         0.5000 
     46 O           0.8367  -16.4584  -42.2723 O.2       5 UNK        -0.5000 
     47 CA          2.3151  -15.0294  -43.5010 C.3       5 UNK         0.1400 
     48 CB          2.6633  -13.7707  -42.6936 C.3       5 UNK        -0.1800 
     49 N           3.3667  -15.2749  -44.4970 N.am      5 UNK        -0.5000 
     50 C           3.4081  -16.3014  -45.3587 C.2       4 UNK         0.5000 
     51 O           2.6862  -17.2941  -45.2671 O.2       4 UNK        -0.5000 
     52 CA          4.4032  -16.1960  -46.5259 C.3       4 UNK         0.1400 
     53 CB          4.0353  -17.1342  -47.6957 C.3       4 UNK        -0.1800 
     54 N           4.5098  -14.8176  -47.0101 N.am      4 UNK        -0.5000 
     55 C           5.5812  -14.3290  -47.6516 C.2       3 UNK         0.5000 
     56 O           6.6172  -14.9722  -47.8276 O.2       3 UNK        -0.5000 
     57 CA          5.4976  -12.8948  -48.2140 C.3       3 UNK         0.1400 
     58 CB          5.1267  -12.9310  -49.7049 C.3       3 UNK        -0.1800 
     59 N           4.5451  -12.0321  -47.5182 N.am      3 UNK        -0.5000 
     60 C           4.6736  -11.5946  -46.2595 C.2       2 UNK         0.5000 
     61 O           5.6448  -11.8451  -45.5452 O.2       2 UNK        -0.5000 
     62 CA          3.5168  -10.7447  -45.6935 C.3       2 UNK         0.1400 
     63 CB          3.8782   -9.2523  -45.7480 C.3       2 UNK        -0.1800 
     64 N           2.2115  -10.9382  -46.3405 N.am      2 UNK        -0.5000 
     65 C           1.5569  -12.1029  -46.4522 C.2       1 UNK         0.5000 
     66 O           2.0444  -13.1906  -46.1439 O.2       1 UNK        -0.5000 
     67 C          -3.1440  -22.8888  -46.7446 C.2       11 UNK         0.5000 
     68 O          -2.8730  -23.2274  -47.8984 O.2       11 UNK        -0.5000 
     69 N          -3.1808  -23.7567  -45.7228 N.am      12 UNK        -0.5000 
     70 CA         -2.9397  -25.1989  -45.8029 C.3       12 UNK         0.1400 
     71 CB         -3.1806  -25.8279  -44.4227 C.3       12 UNK        -0.1800 
     72 C          -1.5368  -25.5459  -46.3272 C.2       12 UNK         0.5000 
     73 O          -1.4037  -26.4095  -47.1930 O.2       12 UNK        -0.5000 
     74 N          -0.5248  -24.8350  -45.8170 N.am      13 UNK        -0.5000 
     75 CA          0.8686  -24.9816  -46.2355 C.3       13 UNK         0.1400 
     76 CB          1.7775  -24.6038  -45.0551 C.3       13 UNK        -0.1800 
     77 C           1.2113  -24.1395  -47.4798 C.2       13 UNK         0.5000 
     78 O           2.1932  -24.4457  -48.1567 O.2       13 UNK        -0.5000 
     79 N           0.4253  -23.0864  -47.7463 N.am      14 UNK        -0.5000 
     80 CA          0.6879  -22.1225  -48.8144 C.3       14 UNK         0.1400 
     81 CB          0.1150  -20.7514  -48.4258 C.3       14 UNK        -0.1800 
     82 C           0.1304  -22.5755  -50.1734 C.2       14 UNK         0.5000 
     83 O           0.8324  -22.4522  -51.1777 O.2       14 UNK        -0.5000 
     84 N          -1.1155  -23.0686  -50.1940 N.am      15 UNK        -0.5000 
     85 CA         -1.8367  -23.4066  -51.4230 C.3       15 UNK         0.1400 
     86 CB         -2.4382  -22.1330  -52.0477 C.3       15 UNK        -0.1800 
     87 C          -2.8833  -24.5104  -51.1930 C.2       15 UNK         0.5000 
     88 O          -3.9453  -24.4886  -51.8153 O.2       15 UNK        -0.5000 
     89 N          -2.5747  -25.4658  -50.3024 N.am      16 UNK        -0.5000 
     90 CA         -3.3819  -26.6561  -49.9911 C.3       16 UNK         0.1400 
     91 CB         -3.3961  -27.6246  -51.1929 C.3       16 UNK        -0.1800 
     92 C          -4.8014  -26.3303  -49.4732 C.2       16 UNK         0.5000 
     93 O          -5.7384  -27.0907  -49.7202 O.2       16 UNK        -0.5000 
     94 N          -4.9243  -25.1938  -48.7721 N.am      17 UNK        -0.5000 
     95 CA         -6.1394  -24.6144  -48.1887 C.3       17 UNK         0.1400 
     96 CB         -6.8304  -25.5891  -47.2120 C.3       17 UNK        -0.1800 
     97 C          -7.1173  -24.0096  -49.2173 C.2       17 UNK         0.5000 
     98 O          -8.1995  -23.5714  -48.8240 O.2       17 UNK        -0.5000 
     99 N          -6.7262  -23.9477  -50.4966 N.am      18 UNK        -0.5000 
    100 CA        -7.4549  -23.2471  -51.5470 C.3       18 UNK         0.1400 
    101 CB        -7.3023  -24.0168  -52.8670 C.3       18 UNK        -0.1800 
    102 C         -6.8948  -21.8192  -51.6297 C.2       18 UNK         0.5000 
    103 O         -5.7487  -21.6399  -52.0440 O.2       18 UNK        -0.5000 
    104 N         -7.6969  -20.8468  -51.1750 N.am      19 UNK        -0.5000 
    105 CA        -7.3484  -19.4370  -50.9784 C.3       19 UNK         0.1400 
    106 CB        -8.6143  -18.6638  -50.5738 C.3       19 UNK        -0.1800 
    107 C         -6.6568  -18.7825  -52.1911 C.2       19 UNK         0.5000 
    108 O         -7.3231  -18.4597  -53.1766 O.2       19 UNK        -0.5000 
    109 N         -5.3304  -18.6216  -52.0824 N.am      20 UNK        -0.5000 
    110 CA        -4.4203  -18.0339  -53.0698 C.3       20 UNK         0.1400 
    111 CB        -4.7034  -16.5287  -53.2492 C.3       20 UNK        -0.1800 
    112 C         -4.3517  -18.8016  -54.4089 C.2       20 UNK         0.5000 
    113 O         -4.0198  -18.2087  -55.4383 O.2       20 UNK        -0.5000 
    114 N         -4.6048  -20.1209  -54.3801 N.am      21 UNK        -0.5000 
    115 CA        -4.5138  -21.0127  -55.5464 C.3       21 UNK         0.1400 
    116 CB        -5.1824  -22.3542  -55.2207 C.3       21 UNK        -0.1800 
    117 C         -3.0770  -21.2195  -56.0761 C.2       21 UNK         0.5000 
    118 O         -2.9018  -21.7798  -57.1589 O.2       21 UNK        -0.5000 
    119 N         -2.0840  -20.7308  -55.3244 N.am      22 UNK        -0.5000 
    120 CA        -0.6923  -20.5180  -55.7449 C.3       22 UNK         0.1400 
    121 C         -0.5161  -19.5426  -56.9505 C.2       22 UNK         0.5000 
    122 N         -1.4685  -18.6614  -57.2406 N.am      22 UNK        -0.7600 
    123 O          0.5014  -19.5939  -57.6361 O.2       22 UNK        -0.5000 
    124 C124        0.1827  -20.0714  -54.5420 C.3       23 UNK        -0.0398 
    125 S125       -0.4823  -18.5835  -53.7061 S.3       23 UNK        -0.2404 
    126 C126        0.0254  -18.8374  -51.9813 C.3       23 UNK        -0.0205 
    127 H127       -2.3875  -14.5942  -45.1943 H         1 UNK         0.0600 
    128 H128       -2.7884  -13.5375  -43.8423 H         1 UNK         0.0600 
    129 H129       -1.3524  -14.5631  -43.7598 H         1 UNK         0.0600 
    130 H130       -1.0121  -13.7927  -46.8147 H         1 UNK         0.3000 
    131 H131       -0.2506  -11.0329  -46.8674 H         1 UNK         0.0600 
    132 H132        0.8870  -11.7081  -49.0579 H         1 UNK         0.0800 
    133 H133       -0.8244  -11.9473  -48.9710 H         1 UNK         0.0800 
    134 H134       -1.1965  -13.9311  -50.8695 H         1 UNK         0.0800 
    135 H135       -2.0383  -13.9519  -49.3367 H         1 UNK         0.0800 
    136 H136        0.1526  -16.1702  -51.4537 H         1 UNK         0.1150 
    137 H137       -2.0306  -19.7053  -50.4471 H         1 UNK         0.1150 
    138 H138       -3.0946  -15.9484  -48.6687 H         1 UNK         0.1150 
    139 H139       -3.5444  -18.3708  -47.5789 H         1 UNK         0.0800 
    140 H140       -4.7419  -17.9626  -48.7802 H         1 UNK         0.0800 
    141 H141       -5.4431  -21.5189  -47.2609 H         1 UNK         0.0800 
    142 H142       -5.0207  -19.9428  -46.6835 H         1 UNK         0.0800 
    143 H143       -2.5142  -20.8743  -46.7718 H         1 UNK         0.0600 
    144 H144       -2.5217  -20.7621  -44.6470 H         1 UNK         0.3000 
    145 H145       -4.9808  -20.9041  -42.0868 H         1 UNK         0.0600 
    146 H146       -3.0461  -21.9720  -40.9519 H         1 UNK         0.0600 
    147 H147       -3.8059  -23.1018  -42.0611 H         1 UNK         0.0600 
    148 H148       -2.2908  -22.3214  -42.5046 H         1 UNK         0.0600 
    149 H149       -2.2738  -19.8493  -42.7886 H         1 UNK         0.3000 
    150 H150       -3.3853  -16.4922  -42.6326 H         1 UNK         0.0600 
    151 H151       -2.8474  -17.0403  -40.2268 H         1 UNK         0.0600 
    152 H152       -1.5466  -16.1905  -41.0415 H         1 UNK         0.0600 
    153 H153       -1.4255  -17.9284  -40.7661 H         1 UNK         0.0600 
    154 H154       -0.8068  -17.5668  -43.1130 H         1 UNK         0.3000 
    155 H155       -1.2599  -18.6047  -46.4628 H         1 UNK         0.0600 
    156 H156        0.0962  -15.9853  -45.6442 H         1 UNK         0.0600 
    157 H157       -1.1882  -16.1224  -46.8364 H         1 UNK         0.0600 
    158 H158        0.3633  -16.8847  -47.1352 H         1 UNK         0.0600 
    159 H159        1.1527  -18.1381  -45.1133 H         1 UNK         0.3000 
    160 H160        1.3992  -21.2914  -43.4280 H         1 UNK         0.0600 
    161 H161        2.7343  -19.9687  -45.8539 H         1 UNK         0.0600 
    162 H162        1.9716  -21.5496  -45.8479 H         1 UNK         0.0600 
    163 H163        3.4068  -21.2711  -44.8769 H         1 UNK         0.0600 
    164 H164        2.7678  -18.6662  -43.7583 H         1 UNK         0.3000 
    165 H165        2.3857  -17.8090  -40.3720 H         1 UNK         0.0600 
    166 H166        4.8622  -17.7011  -40.2785 H         1 UNK         0.0600 
    167 H167        4.3271  -19.3680  -40.1405 H         1 UNK         0.0600 
    168 H168        4.9899  -18.7869  -41.6633 H         1 UNK         0.0600 
    169 H169        3.9765  -16.6550  -42.4338 H         1 UNK         0.3000 
    170 H170        1.3980  -14.8219  -44.0543 H         1 UNK         0.0600 
    171 H171        1.8969  -13.5594  -41.9466 H         1 UNK         0.0600 
    172 H172        3.6146  -13.8767  -42.1711 H         1 UNK         0.0600 
    173 H173        2.7289  -12.8969  -43.3406 H         1 UNK         0.0600 
    174 H174        4.0044  -14.5091  -44.6567 H         1 UNK         0.3000 
    175 H175        5.3685  -16.5093  -46.1234 H         1 UNK         0.0600 
    176 H176        3.0614  -16.8803  -48.1167 H         1 UNK         0.0600 
    177 H177        4.7708  -17.0812  -48.4981 H         1 UNK         0.0600 
    178 H178        3.9931  -18.1745  -47.3708 H         1 UNK         0.0600 
    179 H179        3.6900  -14.2315  -46.8760 H         1 UNK         0.3000 
    180 H180        6.4892  -12.4474  -48.1188 H         1 UNK         0.0600 
    181 H181        4.1312  -13.3495  -49.8607 H         1 UNK         0.0600 
    182 H182        5.8318  -13.5430  -50.2690 H         1 UNK         0.0600 
    183 H183        5.1445  -11.9322  -50.1414 H         1 UNK         0.0600 
    184 H184        3.7073  -11.7838  -48.0224 H         1 UNK         0.3000 
    185 H185        3.4016  -11.0241  -44.6451 H         1 UNK         0.0600 
    186 H186        4.8297   -9.0602  -45.2500 H         1 UNK         0.0600 
    187 H187        3.9686   -8.8986  -46.7758 H         1 UNK         0.0600 
    188 H188        3.1247   -8.6440  -45.2473 H         1 UNK         0.0600 
    189 H189        1.7444  -10.0932  -46.6368 H         1 UNK         0.3000 
    190 H190       -3.4242  -23.3945  -44.8135 H         1 UNK         0.3000 
    191 H191       -3.6643  -25.6288  -46.4926 H         1 UNK         0.0600 
    192 H192       -4.2064  -25.6662  -44.0909 H         1 UNK         0.0600 
    193 H193       -2.5142  -25.4130  -43.6654 H         1 UNK         0.0600 
    194 H194       -3.0161  -26.9060  -44.4505 H         1 UNK         0.0600 
    195 H195       -0.7213  -24.1500  -45.1022 H         1 UNK         0.3000 
    196 H196        1.0650  -26.0264  -46.4866 H         1 UNK         0.0600 
    197 H197        2.8304  -24.6463  -45.3373 H         1 UNK         0.0600 
    198 H198        1.6390  -25.2913  -44.2205 H         1 UNK         0.0600 
    199 H199        1.5730  -23.5972  -44.6918 H         1 UNK         0.0600 
    200 H200       -0.3894  -22.9336  -47.1738 H         1 UNK         0.3000 
    201 H201        1.7687  -22.0023  -48.9199 H         1 UNK         0.0600 
    202 H202        0.4633  -20.4340  -47.4449 H         1 UNK         0.0600 
    203 H203       -0.9737  -20.7553  -48.4155 H         1 UNK         0.0600 
    204 H204        0.4316  -19.9879  -49.1364 H         1 UNK         0.0600 
    205 H205       -1.6531  -23.1311  -49.3322 H         1 UNK         0.3000 
    206 H206       -1.1313  -23.8294  -52.1412 H         1 UNK         0.0600 
    207 H207       -1.6700  -21.4006  -52.2841 H         1 UNK         0.0600 
    208 H208       -2.9547  -22.3589  -52.9787 H         1 UNK         0.0600 
    209 H209       -3.1578  -21.6650  -51.3771 H         1 UNK         0.0600 
    210 H210       -1.6943  -25.3947  -49.8112 H         1 UNK         0.3000 
    211 H211       -2.8772  -27.1692  -49.1734 H         1 UNK         0.0600 
    212 H212       -3.9472  -27.2126  -52.0388 H         1 UNK         0.0600 
    213 H213       -3.8657  -28.5725  -50.9276 H         1 UNK         0.0600 
    214 H214       -2.3842  -27.8501  -51.5294 H         1 UNK         0.0600 
    215 H215       -4.0911  -24.6229  -48.6672 H         1 UNK         0.3000 
    216 H216       -5.7972  -23.7717  -47.5912 H         1 UNK         0.0600 
    217 H217       -7.6121  -25.0819  -46.6454 H         1 UNK         0.0600 
    218 H218       -6.1236  -25.9961  -46.4893 H         1 UNK         0.0600 
    219 H219       -7.3008  -26.4237  -47.7317 H         1 UNK         0.0600 
    220 H220       -5.7960  -24.2651  -50.7479 H         1 UNK         0.3000 
    221 H221       -8.5207  -23.2060  -51.3127 H         1 UNK         0.0600 
    222 H222       -6.2570  -24.1305  -53.1522 H         1 UNK         0.0600 
    223 H223       -7.7317  -25.0155  -52.7879 H         1 UNK         0.0600 
    224 H224       -7.8183  -23.5044  -53.6791 H         1 UNK         0.0600 
    225 H225       -8.6177  -21.1103  -50.8561 H         1 UNK         0.3000 
    226 H226       -6.6630  -19.3942  -50.1313 H         1 UNK         0.0600 
    227 H227       -9.0314  -19.0474  -49.6425 H         1 UNK         0.0600 
    228 H228       -8.3933  -17.6070  -50.4179 H         1 UNK         0.0600 
    229 H229       -9.3880  -18.7279  -51.3400 H         1 UNK         0.0600 
    230 H230       -4.8813  -18.9892  -51.2546 H         1 UNK         0.3000 
    231 H231       -3.4228  -18.1195  -52.6398 H         1 UNK         0.0600 
    232 H232       -3.9366  -16.0570  -53.8648 H         1 UNK         0.0600 
    233 H233       -4.7054  -16.0129  -52.2889 H         1 UNK         0.0600 
    234 H234       -5.6654  -16.3516  -53.7305 H         1 UNK         0.0600 
    235 H235       -4.8917  -20.5504  -53.5041 H         1 UNK         0.3000 
    236 H236       -5.0805  -20.5508  -56.3573 H         1 UNK         0.0600 
    237 H237       -5.1709  -23.0212  -56.0835 H         1 UNK         0.0600 
    238 H238       -4.6799  -22.8686  -54.4023 H         1 UNK         0.0600 
    239 H239       -6.2245  -22.2071  -54.9400 H         1 UNK         0.0600 
    240 H240       -2.3393  -20.2824  -54.4579 H         1 UNK         0.3000 
    241 H241       -0.3169  -21.4851  -56.0838 H         1 UNK         0.0600 
    242 H242       -2.2965  -18.5822  -56.6623 H         1 UNK         0.3800 
    243 H243       -1.3453  -18.0385  -58.0228 H         1 UNK         0.3800 
    244 H244        0.2437  -20.8899  -53.8236 H         1 UNK         0.0800 
    245 H245        1.2104  -19.8759  -54.8531 H         1 UNK         0.0800 
    246 H246       -0.0253  -19.8935  -51.7210 H         1 UNK         0.0800 
    247 H247        1.0690  -18.5427  -51.8634 H         1 UNK         0.0800 
@<TRIPOS>BOND
     1    1    2 1    
     2    1  127 1    
     3    1  128 1    
     4    1  129 1    
     5    2    3 2    
     6    2    4 am   BACKBONE|DICT|INTERRES
     7    4    5 1    
     8    4  130 1    
     9    5    6 1    
    10    5   65 1    
    11    5  131 1    
    12    6    7 1    
    13    6  132 1    
    14    6  133 1    
    15    7    8 1    
    16    8    9 1    
    17    8  134 1    
    18    8  135 1    
    19    9   10 ar   
    20    9   14 ar   
    21   10   11 ar   
    22   10  136 1    
    23   11   12 ar   
    24   11  126 1    
    25   12   13 ar   
    26   12  137 1    
    27   13   14 ar   
    28   13   15 1    
    29   14  138 1    
    30   15   16 1    
    31   15  139 1    
    32   15  140 1    
    33   16   17 1    
    34   17   18 1    
    35   17  141 1    
    36   17  142 1    
    37   18   19 1    
    38   18   67 1    
    39   18  143 1    
    40   19   20 am   BACKBONE|DICT|INTERRES
    41   19  144 1    
    42   20   21 2    
    43   20   22 1    
    44   22   23 1    
    45   22   24 1    
    46   22  145 1    
    47   23  146 1    
    48   23  147 1    
    49   23  148 1    
    50   24   25 am   BACKBONE|DICT|INTERRES
    51   24  149 1    
    52   25   26 2    
    53   25   27 1    
    54   27   28 1    
    55   27   29 1    
    56   27  150 1    
    57   28  151 1    
    58   28  152 1    
    59   28  153 1    
    60   29   30 am   BACKBONE|DICT|INTERRES
    61   29  154 1    
    62   30   31 2    
    63   30   32 1    
    64   32   33 1    
    65   32   34 1    
    66   32  155 1    
    67   33  156 1    
    68   33  157 1    
    69   33  158 1    
    70   34   35 am   BACKBONE|DICT|INTERRES
    71   34  159 1    
    72   35   36 2    
    73   35   37 1    
    74   37   38 1    
    75   37   39 1    
    76   37  160 1    
    77   38  161 1    
    78   38  162 1    
    79   38  163 1    
    80   39   40 am   BACKBONE|DICT|INTERRES
    81   39  164 1    
    82   40   41 2    
    83   40   42 1    
    84   42   43 1    
    85   42   44 1    
    86   42  165 1    
    87   43  166 1    
    88   43  167 1    
    89   43  168 1    
    90   44   45 am   BACKBONE|DICT|INTERRES
    91   44  169 1    
    92   45   46 2    
    93   45   47 1    
    94   47   48 1    
    95   47   49 1    
    96   47  170 1    
    97   48  171 1    
    98   48  172 1    
    99   48  173 1    
   100   49   50 am   BACKBONE|DICT|INTERRES
   101   49  174 1    
   102   50   51 2    
   103   50   52 1    
   104   52   53 1    
   105   52   54 1    
   106   52  175 1    
   107   53  176 1    
   108   53  177 1    
   109   53  178 1    
   110   54   55 am   BACKBONE|DICT|INTERRES
   111   54  179 1    
   112   55   56 2    
   113   55   57 1    
   114   57   58 1    
   115   57   59 1    
   116   57  180 1    
   117   58  181 1    
   118   58  182 1    
   119   58  183 1    
   120   59   60 am   BACKBONE|DICT|INTERRES
   121   59  184 1    
   122   60   61 2    
   123   60   62 1    
   124   62   63 1    
   125   62   64 1    
   126   62  185 1    
   127   63  186 1    
   128   63  187 1    
   129   63  188 1    
   130   64   65 am   BACKBONE|DICT|INTERRES
   131   64  189 1    
   132   65   66 2    
   133   67   68 2    
   134   67   69 am   BACKBONE|DICT|INTERRES
   135   69   70 1    
   136   69  190 1    
   137   70   71 1    
   138   70   72 1    
   139   70  191 1    
   140   71  192 1    
   141   71  193 1    
   142   71  194 1    
   143   72   73 2    
   144   72   74 am   BACKBONE|DICT|INTERRES
   145   74   75 1    
   146   74  195 1    
   147   75   76 1    
   148   75   77 1    
   149   75  196 1    
   150   76  197 1    
   151   76  198 1    
   152   76  199 1    
   153   77   78 2    
   154   77   79 am   BACKBONE|DICT|INTERRES
   155   79   80 1    
   156   79  200 1    
   157   80   81 1    
   158   80   82 1    
   159   80  201 1    
   160   81  202 1    
   161   81  203 1    
   162   81  204 1    
   163   82   83 2    
   164   82   84 am   BACKBONE|DICT|INTERRES
   165   84   85 1    
   166   84  205 1    
   167   85   86 1    
   168   85   87 1    
   169   85  206 1    
   170   86  207 1    
   171   86  208 1    
   172   86  209 1    
   173   87   88 2    
   174   87   89 am   BACKBONE|DICT|INTERRES
   175   89   90 1    
   176   89  210 1    
   177   90   91 1    
   178   90   92 1    
   179   90  211 1    
   180   91  212 1    
   181   91  213 1    
   182   91  214 1    
   183   92   93 2    
   184   92   94 am   BACKBONE|DICT|INTERRES
   185   94   95 1    
   186   94  215 1    
   187   95   96 1    
   188   95   97 1    
   189   95  216 1    
   190   96  217 1    
   191   96  218 1    
   192   96  219 1    
   193   97   98 2    
   194   97   99 am   BACKBONE|DICT|INTERRES
   195   99  100 1    
   196   99  220 1    
   197  100  101 1    
   198  100  102 1    
   199  100  221 1    
   200  101  222 1    
   201  101  223 1    
   202  101  224 1    
   203  102  103 2    
   204  102  104 am   BACKBONE|DICT|INTERRES
   205  104  105 1    
   206  104  225 1    
   207  105  106 1    
   208  105  107 1    
   209  105  226 1    
   210  106  227 1    
   211  106  228 1    
   212  106  229 1    
   213  107  108 2    
   214  107  109 am   BACKBONE|DICT|INTERRES
   215  109  110 1    
   216  109  230 1    
   217  110  111 1    
   218  110  112 1    
   219  110  231 1    
   220  111  232 1    
   221  111  233 1    
   222  111  234 1    
   223  112  113 2    
   224  112  114 am   BACKBONE|DICT|INTERRES
   225  114  115 1    
   226  114  235 1    
   227  115  116 1    
   228  115  117 1    
   229  115  236 1    
   230  116  237 1    
   231  116  238 1    
   232  116  239 1    
   233  117  118 2    
   234  117  119 am   BACKBONE|DICT|INTERRES
   235  119  120 1    
   236  119  240 1    
   237  120  121 1    
   238  120  124 1    
   239  120  241 1    
   240  121  122 am   BACKBONE|DICT|INTERRES
   241  121  123 2    
   242  122  242 1    
   243  122  243 1    
   244  124  125 1    
   245  124  244 1    
   246  124  245 1    
   247  125  126 1    
   248  126  246 1    
   249  126  247 1    
@<TRIPOS>SUBSTRUCTURE
     1 UNK         1 GROUP             0       ****    0 ROOT    
