@<TRIPOS>MOLECULE
3R540
247   249    1
SMALL
USER_CHARGES


@<TRIPOS>ATOM
      1 CA          2.2416  -12.2208  -46.3017 C.3       0 UNK        -0.1800 
      2 C           0.7248  -12.2287  -46.4291 C.2       0 UNK         0.5000 
      3 O           0.0325  -12.7578  -45.5571 O.2       0 UNK        -0.5000 
      4 N           0.1953  -11.6119  -47.4943 N.am      1 UNK        -0.5000 
      5 CA         -1.2352  -11.5189  -47.8346 C.3       1 UNK         0.1400 
      6 C6         -1.4541  -11.2660  -49.3483 C.3       23 UNK        -0.0398 
      7 S7         -0.8081  -12.6449  -50.3530 S.3       23 UNK        -0.2404 
      8 C8         -2.3222  -13.6295  -50.5741 C.3       23 UNK        -0.0205 
      9 C9         -1.9908  -15.0822  -50.8692 C.ar      23 UNK        -0.0193 
     10 C10        -1.7346  -15.4971  -52.1782 C.ar      23 UNK        -0.1150 
     11 C11        -1.4203  -16.8314  -52.4483 C.ar      23 UNK        -0.0193 
     12 C12        -1.3568  -17.7529  -51.3961 C.ar      23 UNK        -0.1150 
     13 C13        -1.6367  -17.3541  -50.0858 C.ar      23 UNK        -0.0193 
     14 C14        -1.9475  -16.0153  -49.8295 C.ar      23 UNK        -0.1150 
     15 C15        -1.5894  -18.3548  -48.9402 C.3       23 UNK        -0.0205 
     16 S16        -3.0502  -19.4396  -48.9037 S.3       23 UNK        -0.2404 
     17 C17        -3.0628  -20.0212  -47.1677 C.3       23 UNK        -0.0398 
     18 CA         -2.4881  -21.4526  -47.0096 C.3       11 UNK         0.1400 
     19 N          -1.0320  -21.4683  -46.8403 N.am      11 UNK        -0.5000 
     20 C          -0.2814  -22.5770  -46.9124 C.2       10 UNK         0.5000 
     21 O          -0.7362  -23.6955  -47.1506 O.2       10 UNK        -0.5000 
     22 CA          1.2207  -22.4237  -46.6253 C.3       10 UNK         0.1400 
     23 CB          1.9391  -21.7593  -47.8098 C.3       10 UNK        -0.1800 
     24 N           1.4874  -21.6781  -45.3951 N.am      10 UNK        -0.5000 
     25 C           1.1233  -22.0747  -44.1670 C.2       9 UNK         0.5000 
     26 O           0.5269  -23.1261  -43.9358 O.2       9 UNK        -0.5000 
     27 CA          1.4396  -21.1185  -43.0020 C.3       9 UNK         0.1400 
     28 CB          2.9198  -21.2027  -42.6004 C.3       9 UNK        -0.1800 
     29 N           1.0868  -19.7317  -43.3034 N.am      9 UNK        -0.5000 
     30 C          -0.1634  -19.3042  -43.5299 C.2       8 UNK         0.5000 
     31 O          -1.1585  -20.0247  -43.4751 O.2       8 UNK        -0.5000 
     32 CA         -0.3258  -17.8344  -43.9485 C.3       8 UNK         0.1400 
     33 CB         -0.3236  -16.9187  -42.7203 C.3       8 UNK        -0.1800 
     34 N           0.6978  -17.3935  -44.8967 N.am      8 UNK        -0.5000 
     35 C           0.8901  -17.9543  -46.0995 C.2       7 UNK         0.5000 
     36 O           0.2270  -18.8980  -46.5277 O.2       7 UNK        -0.5000 
     37 CA          2.0641  -17.4194  -46.9323 C.3       7 UNK         0.1400 
     38 CB          1.7509  -16.0188  -47.4804 C.3       7 UNK        -0.1800 
     39 N           3.3060  -17.3903  -46.1595 N.am      7 UNK        -0.5000 
     40 C           3.8995  -18.4707  -45.6278 C.2       6 UNK         0.5000 
     41 O           3.4859  -19.6194  -45.7782 O.2       6 UNK        -0.5000 
     42 CA          5.1518  -18.2377  -44.7628 C.3       6 UNK         0.1400 
     43 CB          6.4250  -18.5088  -45.5780 C.3       6 UNK        -0.1800 
     44 N           5.2219  -16.8889  -44.2008 N.am      6 UNK        -0.5000 
     45 C           4.3998  -16.4028  -43.2614 C.2       5 UNK         0.5000 
     46 O           3.5167  -17.0737  -42.7202 O.2       5 UNK        -0.5000 
     47 CA          4.6264  -14.9276  -42.8594 C.3       5 UNK         0.1400 
     48 CB          5.1640  -14.0587  -44.0203 C.3       5 UNK        -0.1800 
     49 N           3.4509  -14.2798  -42.2702 N.am      5 UNK        -0.5000 
     50 C           2.2427  -14.1192  -42.8277 C.2       4 UNK         0.5000 
     51 O           1.9027  -14.6114  -43.9076 O.2       4 UNK        -0.5000 
     52 CA          1.2775  -13.2222  -42.0340 C.3       4 UNK         0.1400 
     53 CB          1.7515  -11.7571  -42.0352 C.3       4 UNK        -0.1800 
     54 N          -0.0677  -13.2666  -42.5969 N.am      4 UNK        -0.5000 
     55 C          -1.1954  -13.3260  -41.8775 C.2       3 UNK         0.5000 
     56 O          -1.2201  -13.3717  -40.6456 O.2       3 UNK        -0.5000 
     57 CA         -2.5117  -13.3126  -42.6820 C.3       3 UNK         0.1400 
     58 CB         -3.7742  -13.3605  -41.7957 C.3       3 UNK        -0.1800 
     59 N          -2.5684  -12.1845  -43.6169 N.am      3 UNK        -0.5000 
     60 C          -2.5209  -10.8711  -43.3307 C.2       2 UNK         0.5000 
     61 O          -2.5172  -10.4142  -42.1869 O.2       2 UNK        -0.5000 
     62 CA         -2.4306   -9.9160  -44.5391 C.3       2 UNK         0.1400 
     63 CB         -1.6969   -8.6016  -44.2144 C.3       2 UNK        -0.1800 
     64 N          -1.7484  -10.5985  -45.6326 N.am      2 UNK        -0.5000 
     65 C          -2.0064  -10.5171  -46.9383 C.2       1 UNK         0.5000 
     66 O          -2.8158   -9.7250  -47.4236 O.2       1 UNK        -0.5000 
     67 C          -3.2114  -22.2512  -45.9043 C.2       11 UNK         0.5000 
     68 O          -4.1740  -22.9497  -46.2209 O.2       11 UNK        -0.5000 
     69 N          -2.7332  -22.1892  -44.6527 N.am      12 UNK        -0.5000 
     70 CA         -3.2605  -22.9916  -43.5458 C.3       12 UNK         0.1400 
     71 CB         -2.6680  -22.5151  -42.2110 C.3       12 UNK        -0.1800 
     72 C          -3.0219  -24.4996  -43.7422 C.2       12 UNK         0.5000 
     73 O          -3.9583  -25.2839  -43.5859 O.2       12 UNK        -0.5000 
     74 N          -1.7882  -24.8746  -44.1097 N.am      13 UNK        -0.5000 
     75 CA         -1.3769  -26.2588  -44.3548 C.3       13 UNK         0.1400 
     76 CB          0.1472  -26.3150  -44.5385 C.3       13 UNK        -0.1800 
     77 C          -2.0892  -26.8998  -45.5595 C.2       13 UNK         0.5000 
     78 O          -2.4751  -28.0671  -45.4882 O.2       13 UNK        -0.5000 
     79 N          -2.2648  -26.1217  -46.6347 N.am      14 UNK        -0.5000 
     80 CA         -2.9311  -26.5441  -47.8667 C.3       14 UNK         0.1400 
     81 CB         -2.4336  -25.6563  -49.0155 C.3       14 UNK        -0.1800 
     82 C          -4.4694  -26.4974  -47.7902 C.2       14 UNK         0.5000 
     83 O          -5.1198  -26.9406  -48.7361 O.2       14 UNK        -0.5000 
     84 N          -5.0270  -25.9337  -46.7075 N.am      15 UNK        -0.5000 
     85 CA         -6.4554  -25.6752  -46.4868 C.3       15 UNK         0.1400 
     86 CB         -7.2368  -26.9950  -46.3199 C.3       15 UNK        -0.1800 
     87 C          -7.0412  -24.7484  -47.5741 C.2       15 UNK         0.5000 
     88 O          -8.0526  -25.0685  -48.2001 O.2       15 UNK        -0.5000 
     89 N          -6.3411  -23.6278  -47.7938 N.am      16 UNK        -0.5000 
     90 CA         -6.5832  -22.5499  -48.7575 C.3       16 UNK         0.1400 
     91 CB         -7.9854  -21.9343  -48.5819 C.3       16 UNK        -0.1800 
     92 C          -6.2937  -22.9065  -50.2293 C.2       16 UNK         0.5000 
     93 O          -6.3336  -22.0069  -51.0678 O.2       16 UNK        -0.5000 
     94 N          -5.9559  -24.1678  -50.5412 N.am      17 UNK        -0.5000 
     95 CA         -5.6524  -24.6236  -51.9053 C.3       17 UNK         0.1400 
     96 CB         -5.5470  -26.1546  -51.9300 C.3       17 UNK        -0.1800 
     97 C          -4.3850  -23.9817  -52.5053 C.2       17 UNK         0.5000 
     98 O          -4.2852  -23.8543  -53.7269 O.2       17 UNK        -0.5000 
     99 N          -3.4632  -23.5369  -51.6377 N.am      18 UNK        -0.5000 
    100 CA        -2.2554  -22.7975  -52.0074 C.3       18 UNK         0.1400 
    101 CB        -1.3383  -22.6394  -50.7858 C.3       18 UNK        -0.1800 
    102 C         -2.5409  -21.4208  -52.6337 C.2       18 UNK         0.5000 
    103 O         -1.6725  -20.9115  -53.3385 O.2       18 UNK        -0.5000 
    104 N         -3.7383  -20.8564  -52.4080 N.am      19 UNK        -0.5000 
    105 CA        -4.1763  -19.5853  -52.9892 C.3       19 UNK         0.1400 
    106 CB        -5.4939  -19.1432  -52.3377 C.3       19 UNK        -0.1800 
    107 C         -4.3158  -19.6317  -54.5225 C.2       19 UNK         0.5000 
    108 O         -4.1163  -18.6088  -55.1780 O.2       19 UNK        -0.5000 
    109 N         -4.6409  -20.8127  -55.0662 N.am      20 UNK        -0.5000 
    110 CA        -4.7365  -21.0516  -56.5048 C.3       20 UNK         0.1400 
    111 CB        -5.6609  -22.2534  -56.7544 C.3       20 UNK        -0.1800 
    112 C         -3.3575  -21.2880  -57.1467 C.2       20 UNK         0.5000 
    113 O         -3.1306  -20.8461  -58.2736 O.2       20 UNK        -0.5000 
    114 N         -2.4738  -21.9964  -56.4310 N.am      21 UNK        -0.5000 
    115 CA        -1.1505  -22.3917  -56.9115 C.3       21 UNK         0.1400 
    116 CB        -0.6938  -23.6470  -56.1495 C.3       21 UNK        -0.1800 
    117 C         -0.1152  -21.2619  -56.7789 C.2       21 UNK         0.5000 
    118 O          0.5493  -20.9211  -57.7579 O.2       21 UNK        -0.5000 
    119 N          0.0057  -20.7171  -55.5627 N.am      22 UNK        -0.5000 
    120 CA         0.9616  -19.6798  -55.1446 C.3       22 UNK         0.1400 
    121 C          2.4723  -20.0580  -55.2522 C.2       22 UNK         0.5000 
    122 N          2.8263  -21.3354  -55.3278 N.am      22 UNK        -0.7600 
    123 O          3.3425  -19.1915  -55.2369 O.2       22 UNK        -0.5000 
    124 C124        0.6136  -18.2797  -55.7332 C.3       23 UNK        -0.0398 
    125 S125        0.5236  -17.0169  -54.4192 S.3       23 UNK        -0.2404 
    126 C126       -1.1919  -17.2841  -53.8809 C.3       23 UNK        -0.0205 
    127 H127        2.5373  -11.7577  -45.3610 H         1 UNK         0.0600 
    128 H128        2.7142  -11.6710  -47.1157 H         1 UNK         0.0600 
    129 H129        2.6261  -13.2395  -46.3120 H         1 UNK         0.0600 
    130 H130        0.8179  -11.1789  -48.1612 H         1 UNK         0.3000 
    131 H131       -1.6807  -12.4912  -47.6124 H         1 UNK         0.0600 
    132 H132       -0.9594  -10.3439  -49.6573 H         1 UNK         0.0800 
    133 H133       -2.5123  -11.1340  -49.5816 H         1 UNK         0.0800 
    134 H134       -2.9169  -13.2043  -51.3841 H         1 UNK         0.0800 
    135 H135       -2.9388  -13.5712  -49.6758 H         1 UNK         0.0800 
    136 H136       -1.7782  -14.7811  -52.9871 H         1 UNK         0.1150 
    137 H137       -1.1152  -18.7869  -51.5993 H         1 UNK         0.1150 
    138 H138       -2.1526  -15.6961  -48.8172 H         1 UNK         0.1150 
    139 H139       -0.6881  -18.9646  -49.0164 H         1 UNK         0.0800 
    140 H140       -1.5290  -17.8112  -47.9978 H         1 UNK         0.0800 
    141 H141       -4.1086  -19.9847  -46.8562 H         1 UNK         0.0800 
    142 H142       -2.5430  -19.3163  -46.5172 H         1 UNK         0.0800 
    143 H143       -2.7067  -22.0003  -47.9271 H         1 UNK         0.0600 
    144 H144       -0.5778  -20.5777  -46.6475 H         1 UNK         0.3000 
    145 H145        1.6353  -23.4260  -46.4997 H         1 UNK         0.0600 
    146 H146        3.0175  -21.7367  -47.6523 H         1 UNK         0.0600 
    147 H147        1.7561  -22.3072  -48.7350 H         1 UNK         0.0600 
    148 H148        1.6039  -20.7335  -47.9640 H         1 UNK         0.0600 
    149 H149        2.0032  -20.8084  -45.4986 H         1 UNK         0.3000 
    150 H150        0.8406  -21.4328  -42.1447 H         1 UNK         0.0600 
    151 H151        3.1865  -22.2210  -42.3148 H         1 UNK         0.0600 
    152 H152        3.1351  -20.5585  -41.7477 H         1 UNK         0.0600 
    153 H153        3.5797  -20.9098  -43.4166 H         1 UNK         0.0600 
    154 H154        1.8451  -19.0691  -43.3871 H         1 UNK         0.3000 
    155 H155       -1.2952  -17.7386  -44.4419 H         1 UNK         0.0600 
    156 H156        0.6457  -16.9125  -42.2201 H         1 UNK         0.0600 
    157 H157       -1.0735  -17.2301  -41.9920 H         1 UNK         0.0600 
    158 H158       -0.5581  -15.8990  -43.0136 H         1 UNK         0.0600 
    159 H159        1.2870  -16.6200  -44.6079 H         1 UNK         0.3000 
    160 H160        2.2116  -18.0934  -47.7787 H         1 UNK         0.0600 
    161 H161        1.5633  -15.3063  -46.6770 H         1 UNK         0.0600 
    162 H162        0.8614  -16.0383  -48.1119 H         1 UNK         0.0600 
    163 H163        2.5714  -15.6359  -48.0872 H         1 UNK         0.0600 
    164 H164        3.7016  -16.4826  -45.9671 H         1 UNK         0.3000 
    165 H165        5.1171  -18.9495  -43.9355 H         1 UNK         0.0600 
    166 H166        7.3174  -18.4196  -44.9583 H         1 UNK         0.0600 
    167 H167        6.4169  -19.5191  -45.9896 H         1 UNK         0.0600 
    168 H168        6.5241  -17.8149  -46.4137 H         1 UNK         0.0600 
    169 H169        5.9310  -16.2803  -44.5834 H         1 UNK         0.3000 
    170 H170        5.3853  -14.9427  -42.0761 H         1 UNK         0.0600 
    171 H171        6.1596  -14.3740  -44.3337 H         1 UNK         0.0600 
    172 H172        4.5104  -14.0998  -44.8923 H         1 UNK         0.0600 
    173 H173        5.2474  -13.0136  -43.7213 H         1 UNK         0.0600 
    174 H174        3.6053  -13.8748  -41.3580 H         1 UNK         0.3000 
    175 H175        1.2691  -13.5941  -41.0074 H         1 UNK         0.0600 
    176 H176        1.7823  -11.3483  -43.0457 H         1 UNK         0.0600 
    177 H177        1.0841  -11.1292  -41.4445 H         1 UNK         0.0600 
    178 H178        2.7496  -11.6569  -41.6078 H         1 UNK         0.0600 
    179 H179       -0.1039  -13.2748  -43.6134 H         1 UNK         0.3000 
    180 H180       -2.5070  -14.2177  -43.2911 H         1 UNK         0.0600 
    181 H181       -4.6801  -13.3768  -42.4016 H         1 UNK         0.0600 
    182 H182       -3.8356  -12.5035  -41.1245 H         1 UNK         0.0600 
    183 H183       -3.7812  -14.2592  -41.1779 H         1 UNK         0.0600 
    184 H184       -2.5655  -12.4417  -44.5935 H         1 UNK         0.3000 
    185 H185       -3.4552   -9.6842  -44.8363 H         1 UNK         0.0600 
    186 H186       -1.6456   -7.9526  -45.0887 H         1 UNK         0.0600 
    187 H187       -2.2121   -8.0465  -43.4297 H         1 UNK         0.0600 
    188 H188       -0.6774   -8.7874  -43.8743 H         1 UNK         0.0600 
    189 H189       -1.0558  -11.2903  -45.3533 H         1 UNK         0.3000 
    190 H190       -1.9653  -21.5618  -44.4337 H         1 UNK         0.3000 
    191 H191       -4.3402  -22.8328  -43.5042 H         1 UNK         0.0600 
    192 H192       -3.0399  -23.1165  -41.3805 H         1 UNK         0.0600 
    193 H193       -2.9412  -21.4798  -42.0077 H         1 UNK         0.0600 
    194 H194       -1.5799  -22.5822  -42.2043 H         1 UNK         0.0600 
    195 H195       -1.0620  -24.1672  -44.1927 H         1 UNK         0.3000 
    196 H196       -1.6335  -26.8442  -43.4695 H         1 UNK         0.0600 
    197 H197        0.4723  -25.7063  -45.3834 H         1 UNK         0.0600 
    198 H198        0.6642  -25.9544  -43.6491 H         1 UNK         0.0600 
    199 H199        0.4837  -27.3367  -44.7186 H         1 UNK         0.0600 
    200 H200       -1.8625  -25.1876  -46.6362 H         1 UNK         0.3000 
    201 H201       -2.6460  -27.5748  -48.0872 H         1 UNK         0.0600 
    202 H202       -2.7251  -24.6163  -48.8653 H         1 UNK         0.0600 
    203 H203       -2.8378  -25.9826  -49.9734 H         1 UNK         0.0600 
    204 H204       -1.3471  -25.6930  -49.0968 H         1 UNK         0.0600 
    205 H205       -4.4053  -25.5765  -45.9940 H         1 UNK         0.3000 
    206 H206       -6.5260  -25.1292  -45.5448 H         1 UNK         0.0600 
    207 H207       -6.8036  -27.6106  -45.5317 H         1 UNK         0.0600 
    208 H208       -8.2744  -26.8001  -46.0468 H         1 UNK         0.0600 
    209 H209       -7.2467  -27.5836  -47.2377 H         1 UNK         0.0600 
    210 H210       -5.5185  -23.4809  -47.2074 H         1 UNK         0.3000 
    211 H211       -5.8596  -21.7745  -48.5009 H         1 UNK         0.0600 
    212 H212       -8.0926  -21.0324  -49.1858 H         1 UNK         0.0600 
    213 H213       -8.1657  -21.6518  -47.5447 H         1 UNK         0.0600 
    214 H214       -8.7744  -22.6219  -48.8869 H         1 UNK         0.0600 
    215 H215       -5.9569  -24.8699  -49.8131 H         1 UNK         0.3000 
    216 H216       -6.4917  -24.3356  -52.5418 H         1 UNK         0.0600 
    217 H217       -4.6941  -26.5112  -51.3535 H         1 UNK         0.0600 
    218 H218       -5.4246  -26.5191  -52.9507 H         1 UNK         0.0600 
    219 H219       -6.4450  -26.6205  -51.5237 H         1 UNK         0.0600 
    220 H220       -3.6358  -23.6685  -50.6534 H         1 UNK         0.3000 
    221 H221       -1.7220  -23.3876  -52.7552 H         1 UNK         0.0600 
    222 H222       -1.0303  -23.6050  -50.3877 H         1 UNK         0.0600 
    223 H223       -1.8252  -22.0793  -49.9901 H         1 UNK         0.0600 
    224 H224       -0.4274  -22.0995  -51.0482 H         1 UNK         0.0600 
    225 H225       -4.4177  -21.3431  -51.8357 H         1 UNK         0.3000 
    226 H226       -3.4266  -18.8348  -52.7498 H         1 UNK         0.0600 
    227 H227       -6.3118  -19.8216  -52.5821 H         1 UNK         0.0600 
    228 H228       -5.4033  -19.0996  -51.2520 H         1 UNK         0.0600 
    229 H229       -5.7812  -18.1484  -52.6803 H         1 UNK         0.0600 
    230 H230       -4.7743  -21.6102  -54.4589 H         1 UNK         0.3000 
    231 H231       -5.1849  -20.1779  -56.9830 H         1 UNK         0.0600 
    232 H232       -5.2740  -23.1638  -56.2948 H         1 UNK         0.0600 
    233 H233       -5.7707  -22.4458  -57.8225 H         1 UNK         0.0600 
    234 H234       -6.6581  -22.0733  -56.3527 H         1 UNK         0.0600 
    235 H235       -2.7411  -22.3113  -55.5100 H         1 UNK         0.3000 
    236 H236       -1.2237  -22.6551  -57.9691 H         1 UNK         0.0600 
    237 H237       -1.3849  -24.4751  -56.3082 H         1 UNK         0.0600 
    238 H238        0.2887  -23.9754  -56.4910 H         1 UNK         0.0600 
    239 H239       -0.6274  -23.4707  -55.0753 H         1 UNK         0.0600 
    240 H240       -0.6254  -21.0186  -54.8236 H         1 UNK         0.3000 
    241 H241        0.8027  -19.6415  -54.0663 H         1 UNK         0.0600 
    242 H242        2.1294  -22.0621  -55.3281 H         1 UNK         0.3800 
    243 H243        3.8033  -21.5763  -55.3881 H         1 UNK         0.3800 
    244 H244       -0.3461  -18.2970  -56.2523 H         1 UNK         0.0800 
    245 H245        1.3370  -17.9637  -56.4865 H         1 UNK         0.0800 
    246 H246       -1.8697  -16.7584  -54.5553 H         1 UNK         0.0800 
    247 H247       -1.4384  -18.3420  -53.9713 H         1 UNK         0.0800 
@<TRIPOS>BOND
     1    1    2 1    
     2    1  127 1    
     3    1  128 1    
     4    1  129 1    
     5    2    3 2    
     6    2    4 am   BACKBONE|DICT|INTERRES
     7    4    5 1    
     8    4  130 1    
     9    5    6 1    
    10    5   65 1    
    11    5  131 1    
    12    6    7 1    
    13    6  132 1    
    14    6  133 1    
    15    7    8 1    
    16    8    9 1    
    17    8  134 1    
    18    8  135 1    
    19    9   10 ar   
    20    9   14 ar   
    21   10   11 ar   
    22   10  136 1    
    23   11   12 ar   
    24   11  126 1    
    25   12   13 ar   
    26   12  137 1    
    27   13   14 ar   
    28   13   15 1    
    29   14  138 1    
    30   15   16 1    
    31   15  139 1    
    32   15  140 1    
    33   16   17 1    
    34   17   18 1    
    35   17  141 1    
    36   17  142 1    
    37   18   19 1    
    38   18   67 1    
    39   18  143 1    
    40   19   20 am   BACKBONE|DICT|INTERRES
    41   19  144 1    
    42   20   21 2    
    43   20   22 1    
    44   22   23 1    
    45   22   24 1    
    46   22  145 1    
    47   23  146 1    
    48   23  147 1    
    49   23  148 1    
    50   24   25 am   BACKBONE|DICT|INTERRES
    51   24  149 1    
    52   25   26 2    
    53   25   27 1    
    54   27   28 1    
    55   27   29 1    
    56   27  150 1    
    57   28  151 1    
    58   28  152 1    
    59   28  153 1    
    60   29   30 am   BACKBONE|DICT|INTERRES
    61   29  154 1    
    62   30   31 2    
    63   30   32 1    
    64   32   33 1    
    65   32   34 1    
    66   32  155 1    
    67   33  156 1    
    68   33  157 1    
    69   33  158 1    
    70   34   35 am   BACKBONE|DICT|INTERRES
    71   34  159 1    
    72   35   36 2    
    73   35   37 1    
    74   37   38 1    
    75   37   39 1    
    76   37  160 1    
    77   38  161 1    
    78   38  162 1    
    79   38  163 1    
    80   39   40 am   BACKBONE|DICT|INTERRES
    81   39  164 1    
    82   40   41 2    
    83   40   42 1    
    84   42   43 1    
    85   42   44 1    
    86   42  165 1    
    87   43  166 1    
    88   43  167 1    
    89   43  168 1    
    90   44   45 am   BACKBONE|DICT|INTERRES
    91   44  169 1    
    92   45   46 2    
    93   45   47 1    
    94   47   48 1    
    95   47   49 1    
    96   47  170 1    
    97   48  171 1    
    98   48  172 1    
    99   48  173 1    
   100   49   50 am   BACKBONE|DICT|INTERRES
   101   49  174 1    
   102   50   51 2    
   103   50   52 1    
   104   52   53 1    
   105   52   54 1    
   106   52  175 1    
   107   53  176 1    
   108   53  177 1    
   109   53  178 1    
   110   54   55 am   BACKBONE|DICT|INTERRES
   111   54  179 1    
   112   55   56 2    
   113   55   57 1    
   114   57   58 1    
   115   57   59 1    
   116   57  180 1    
   117   58  181 1    
   118   58  182 1    
   119   58  183 1    
   120   59   60 am   BACKBONE|DICT|INTERRES
   121   59  184 1    
   122   60   61 2    
   123   60   62 1    
   124   62   63 1    
   125   62   64 1    
   126   62  185 1    
   127   63  186 1    
   128   63  187 1    
   129   63  188 1    
   130   64   65 am   BACKBONE|DICT|INTERRES
   131   64  189 1    
   132   65   66 2    
   133   67   68 2    
   134   67   69 am   BACKBONE|DICT|INTERRES
   135   69   70 1    
   136   69  190 1    
   137   70   71 1    
   138   70   72 1    
   139   70  191 1    
   140   71  192 1    
   141   71  193 1    
   142   71  194 1    
   143   72   73 2    
   144   72   74 am   BACKBONE|DICT|INTERRES
   145   74   75 1    
   146   74  195 1    
   147   75   76 1    
   148   75   77 1    
   149   75  196 1    
   150   76  197 1    
   151   76  198 1    
   152   76  199 1    
   153   77   78 2    
   154   77   79 am   BACKBONE|DICT|INTERRES
   155   79   80 1    
   156   79  200 1    
   157   80   81 1    
   158   80   82 1    
   159   80  201 1    
   160   81  202 1    
   161   81  203 1    
   162   81  204 1    
   163   82   83 2    
   164   82   84 am   BACKBONE|DICT|INTERRES
   165   84   85 1    
   166   84  205 1    
   167   85   86 1    
   168   85   87 1    
   169   85  206 1    
   170   86  207 1    
   171   86  208 1    
   172   86  209 1    
   173   87   88 2    
   174   87   89 am   BACKBONE|DICT|INTERRES
   175   89   90 1    
   176   89  210 1    
   177   90   91 1    
   178   90   92 1    
   179   90  211 1    
   180   91  212 1    
   181   91  213 1    
   182   91  214 1    
   183   92   93 2    
   184   92   94 am   BACKBONE|DICT|INTERRES
   185   94   95 1    
   186   94  215 1    
   187   95   96 1    
   188   95   97 1    
   189   95  216 1    
   190   96  217 1    
   191   96  218 1    
   192   96  219 1    
   193   97   98 2    
   194   97   99 am   BACKBONE|DICT|INTERRES
   195   99  100 1    
   196   99  220 1    
   197  100  101 1    
   198  100  102 1    
   199  100  221 1    
   200  101  222 1    
   201  101  223 1    
   202  101  224 1    
   203  102  103 2    
   204  102  104 am   BACKBONE|DICT|INTERRES
   205  104  105 1    
   206  104  225 1    
   207  105  106 1    
   208  105  107 1    
   209  105  226 1    
   210  106  227 1    
   211  106  228 1    
   212  106  229 1    
   213  107  108 2    
   214  107  109 am   BACKBONE|DICT|INTERRES
   215  109  110 1    
   216  109  230 1    
   217  110  111 1    
   218  110  112 1    
   219  110  231 1    
   220  111  232 1    
   221  111  233 1    
   222  111  234 1    
   223  112  113 2    
   224  112  114 am   BACKBONE|DICT|INTERRES
   225  114  115 1    
   226  114  235 1    
   227  115  116 1    
   228  115  117 1    
   229  115  236 1    
   230  116  237 1    
   231  116  238 1    
   232  116  239 1    
   233  117  118 2    
   234  117  119 am   BACKBONE|DICT|INTERRES
   235  119  120 1    
   236  119  240 1    
   237  120  121 1    
   238  120  124 1    
   239  120  241 1    
   240  121  122 am   BACKBONE|DICT|INTERRES
   241  121  123 2    
   242  122  242 1    
   243  122  243 1    
   244  124  125 1    
   245  124  244 1    
   246  124  245 1    
   247  125  126 1    
   248  126  246 1    
   249  126  247 1    
@<TRIPOS>SUBSTRUCTURE
     1 UNK         1 GROUP             0       ****    0 ROOT    
