@<TRIPOS>MOLECULE
3R540
247   249    1
SMALL
USER_CHARGES


@<TRIPOS>ATOM
      1 CA         -1.6608  -15.1802  -53.0022 C.3       0 UNK        -0.1800 
      2 C          -1.2441  -15.7453  -51.6522 C.2       0 UNK         0.5000 
      3 O          -1.4357  -16.9327  -51.4060 O.2       0 UNK        -0.5000 
      4 N          -0.6786  -14.8978  -50.7812 N.am      1 UNK        -0.5000 
      5 CA         -0.1588  -15.2368  -49.4459 C.3       1 UNK         0.1400 
      6 C6          1.0127  -16.2565  -49.4654 C.3       23 UNK        -0.0398 
      7 S7          2.4734  -15.6547  -50.3855 S.3       23 UNK        -0.2404 
      8 C8          2.5378  -16.7658  -51.8344 C.3       23 UNK        -0.0205 
      9 C9          2.5460  -18.2455  -51.4655 C.ar      23 UNK        -0.0193 
     10 C10         1.6236  -19.1126  -52.0589 C.ar      23 UNK        -0.1150 
     11 C11         1.5759  -20.4600  -51.6921 C.ar      23 UNK        -0.0193 
     12 C12         2.4450  -20.9340  -50.7071 C.ar      23 UNK        -0.1150 
     13 C13         3.3713  -20.0791  -50.1039 C.ar      23 UNK        -0.0193 
     14 C14         3.4416  -18.7442  -50.5131 C.ar      23 UNK        -0.1150 
     15 C15         4.2539  -20.5911  -48.9726 C.3       23 UNK        -0.0205 
     16 S16         3.9175  -19.8024  -47.3533 S.3       23 UNK        -0.2404 
     17 C17         2.1224  -19.4594  -47.3780 C.3       23 UNK        -0.0398 
     18 CA          1.2419  -20.7270  -47.2895 C.3       11 UNK         0.1400 
     19 N           1.3701  -21.4233  -46.0069 N.am      11 UNK        -0.5000 
     20 C           0.8891  -22.6528  -45.7661 C.2       10 UNK         0.5000 
     21 O           0.3182  -23.3360  -46.6138 O.2       10 UNK        -0.5000 
     22 CA          1.0201  -23.2060  -44.3336 C.3       10 UNK         0.1400 
     23 CB          2.3433  -23.9685  -44.1739 C.3       10 UNK        -0.1800 
     24 N           0.9347  -22.1765  -43.3004 N.am      10 UNK        -0.5000 
     25 C          -0.0917  -21.3331  -43.1222 C.2       9 UNK         0.5000 
     26 O          -1.1431  -21.3904  -43.7606 O.2       9 UNK        -0.5000 
     27 CA          0.1167  -20.2001  -42.0977 C.3       9 UNK         0.1400 
     28 CB         -0.5424  -20.5785  -40.7640 C.3       9 UNK        -0.1800 
     29 N           1.5253  -19.8380  -41.8703 N.am      9 UNK        -0.5000 
     30 C           2.3779  -19.4239  -42.8244 C.2       8 UNK         0.5000 
     31 O           2.0660  -19.3579  -44.0128 O.2       8 UNK        -0.5000 
     32 CA          3.8148  -19.0429  -42.4188 C.3       8 UNK         0.1400 
     33 CB          4.1257  -17.5850  -42.7932 C.3       8 UNK        -0.1800 
     34 N           4.0735  -19.2306  -40.9921 N.am      8 UNK        -0.5000 
     35 C           4.5785  -20.3479  -40.4501 C.2       7 UNK         0.5000 
     36 O           4.8786  -21.3465  -41.1052 O.2       7 UNK        -0.5000 
     37 CA          4.7714  -20.3655  -38.9189 C.3       7 UNK         0.1400 
     38 CB          6.2319  -20.0533  -38.5586 C.3       7 UNK        -0.1800 
     39 N           3.8963  -19.4342  -38.2022 N.am      7 UNK        -0.5000 
     40 C           2.5612  -19.5250  -38.1596 C.2       6 UNK         0.5000 
     41 O           1.9297  -20.4301  -38.7062 O.2       6 UNK        -0.5000 
     42 CA          1.7853  -18.4055  -37.4359 C.3       6 UNK         0.1400 
     43 CB          2.6786  -17.3540  -36.7385 C.3       6 UNK        -0.1800 
     44 N           0.8360  -17.7558  -38.3461 N.am      6 UNK        -0.5000 
     45 C           1.1260  -17.1290  -39.4953 C.2       5 UNK         0.5000 
     46 O           2.2714  -16.9790  -39.9308 O.2       5 UNK        -0.5000 
     47 CA         -0.0736  -16.5906  -40.2888 C.3       5 UNK         0.1400 
     48 CB         -0.7962  -15.4649  -39.5253 C.3       5 UNK        -0.1800 
     49 N           0.3728  -16.0819  -41.5823 N.am      5 UNK        -0.5000 
     50 C          -0.3622  -16.0746  -42.6978 C.2       4 UNK         0.5000 
     51 O          -1.4775  -16.5932  -42.7852 O.2       4 UNK        -0.5000 
     52 CA          0.2520  -15.3621  -43.9192 C.3       4 UNK         0.1400 
     53 CB          0.9521  -16.3599  -44.8505 C.3       4 UNK        -0.1800 
     54 N          -0.7566  -14.6263  -44.6819 N.am      4 UNK        -0.5000 
     55 C          -1.4188  -13.5515  -44.2258 C.2       3 UNK         0.5000 
     56 O          -1.2040  -13.0437  -43.1238 O.2       3 UNK        -0.5000 
     57 CA         -2.4744  -12.9040  -45.1466 C.3       3 UNK         0.1400 
     58 CB         -2.0309  -11.4935  -45.5689 C.3       3 UNK        -0.1800 
     59 N          -2.7548  -13.6784  -46.3549 N.am      3 UNK        -0.5000 
     60 C          -3.5480  -14.7556  -46.4191 C.2       2 UNK         0.5000 
     61 O          -4.1725  -15.2057  -45.4592 O.2       2 UNK        -0.5000 
     62 CA         -3.6605  -15.4464  -47.7931 C.3       2 UNK         0.1400 
     63 CB         -4.9409  -14.9884  -48.5038 C.3       2 UNK        -0.1800 
     64 N          -2.5107  -15.2051  -48.6746 N.am      2 UNK        -0.5000 
     65 C          -1.2630  -15.6384  -48.4375 C.2       1 UNK         0.5000 
     66 O          -0.9671  -16.2840  -47.4328 O.2       1 UNK        -0.5000 
     67 C          -0.2255  -20.3709  -47.5882 C.2       11 UNK         0.5000 
     68 O          -0.7092  -20.6534  -48.6843 O.2       11 UNK        -0.5000 
     69 N          -0.9163  -19.7978  -46.5920 N.am      12 UNK        -0.5000 
     70 CA         -2.3312  -19.4352  -46.6774 C.3       12 UNK         0.1400 
     71 CB         -2.7286  -18.6032  -45.4495 C.3       12 UNK        -0.1800 
     72 C          -3.2411  -20.6671  -46.8225 C.2       12 UNK         0.5000 
     73 O          -4.2158  -20.6138  -47.5741 O.2       12 UNK        -0.5000 
     74 N          -2.8830  -21.7581  -46.1298 N.am      13 UNK        -0.5000 
     75 CA         -3.5375  -23.0609  -46.2224 C.3       13 UNK         0.1400 
     76 CB         -3.0215  -23.9795  -45.1051 C.3       13 UNK        -0.1800 
     77 C          -3.3536  -23.7151  -47.6036 C.2       13 UNK         0.5000 
     78 O          -4.3379  -24.1717  -48.1841 O.2       13 UNK        -0.5000 
     79 N          -2.1168  -23.7161  -48.1252 N.am      14 UNK        -0.5000 
     80 CA         -1.7692  -24.2402  -49.4509 C.3       14 UNK         0.1400 
     81 CB         -0.2427  -24.2379  -49.6280 C.3       14 UNK        -0.1800 
     82 C          -2.4442  -23.4678  -50.5977 C.2       14 UNK         0.5000 
     83 O          -2.8898  -24.0804  -51.5681 O.2       14 UNK        -0.5000 
     84 N          -2.5397  -22.1410  -50.4447 N.am      15 UNK        -0.5000 
     85 CA         -3.2486  -21.2481  -51.3590 C.3       15 UNK         0.1400 
     86 CB         -2.7506  -19.8155  -51.1266 C.3       15 UNK        -0.1800 
     87 C          -4.7795  -21.3058  -51.1972 C.2       15 UNK         0.5000 
     88 O          -5.4856  -20.7246  -52.0194 O.2       15 UNK        -0.5000 
     89 N          -5.2720  -21.9541  -50.1309 N.am      16 UNK        -0.5000 
     90 CA         -6.6780  -22.0617  -49.7307 C.3       16 UNK         0.1400 
     91 CB         -7.4334  -23.0000  -50.6939 C.3       16 UNK        -0.1800 
     92 C          -7.3433  -20.6779  -49.5719 C.2       16 UNK         0.5000 
     93 O          -8.4264  -20.4435  -50.1085 O.2       16 UNK        -0.5000 
     94 N          -6.6363  -19.7685  -48.8829 N.am      17 UNK        -0.5000 
     95 CA         -6.9604  -18.3472  -48.7094 C.3       17 UNK         0.1400 
     96 CB         -8.2179  -18.1701  -47.8341 C.3       17 UNK        -0.1800 
     97 C          -7.0375  -17.5849  -50.0526 C.2       17 UNK         0.5000 
     98 O          -7.9273  -16.7567  -50.2509 O.2       17 UNK        -0.5000 
     99 N          -6.0844  -17.8917  -50.9447 N.am      18 UNK        -0.5000 
    100 CA        -5.9077  -17.3569  -52.3002 C.3       18 UNK         0.1400 
    101 CB        -5.6143  -15.8416  -52.2845 C.3       18 UNK        -0.1800 
    102 C         -7.0225  -17.7543  -53.2918 C.2       18 UNK         0.5000 
    103 O         -7.2153  -17.0722  -54.3003 O.2       18 UNK        -0.5000 
    104 N         -7.7112  -18.8729  -53.0239 N.am      19 UNK        -0.5000 
    105 CA        -8.5877  -19.5411  -53.9894 C.3       19 UNK         0.1400 
    106 CB        -9.5653  -20.4611  -53.2448 C.3       19 UNK        -0.1800 
    107 C         -7.7765  -20.3348  -55.0345 C.2       19 UNK         0.5000 
    108 O         -8.2323  -20.4943  -56.1676 O.2       19 UNK        -0.5000 
    109 N         -6.5844  -20.7916  -54.6368 N.am      20 UNK        -0.5000 
    110 CA        -5.5524  -21.3923  -55.4721 C.3       20 UNK         0.1400 
    111 CB        -5.2932  -22.8230  -54.9660 C.3       20 UNK        -0.1800 
    112 C         -4.2787  -20.5291  -55.3862 C.2       20 UNK         0.5000 
    113 O         -4.2533  -19.5204  -54.6760 O.2       20 UNK        -0.5000 
    114 N         -3.2323  -20.9387  -56.1070 N.am      21 UNK        -0.5000 
    115 CA        -1.9169  -20.3087  -56.0915 C.3       21 UNK         0.1400 
    116 CB        -1.8409  -19.2366  -57.1920 C.3       21 UNK        -0.1800 
    117 C         -0.8460  -21.3886  -56.2888 C.2       21 UNK         0.5000 
    118 O         -1.1300  -22.4331  -56.8818 O.2       21 UNK        -0.5000 
    119 N          0.3620  -21.1045  -55.7946 N.am      22 UNK        -0.5000 
    120 CA         1.5353  -21.9928  -55.8599 C.3       22 UNK         0.1400 
    121 C          2.5007  -21.6623  -57.0371 C.2       22 UNK         0.5000 
    122 N          2.2236  -20.6685  -57.8731 N.am      22 UNK        -0.7600 
    123 O          3.5157  -22.3319  -57.2095 O.2       22 UNK        -0.5000 
    124 C124        2.2852  -22.0232  -54.5025 C.3       23 UNK        -0.0398 
    125 S125        1.3050  -22.8142  -53.1786 S.3       23 UNK        -0.2404 
    126 C126        0.5526  -21.3913  -52.3239 C.3       23 UNK        -0.0205 
    127 H127       -1.5468  -14.0967  -53.0419 H         1 UNK         0.0600 
    128 H128       -2.7040  -15.4204  -53.2058 H         1 UNK         0.0600 
    129 H129       -1.0511  -15.6174  -53.7927 H         1 UNK         0.0600 
    130 H130       -0.5483  -13.9342  -51.0564 H         1 UNK         0.3000 
    131 H131        0.2429  -14.3032  -49.0493 H         1 UNK         0.0600 
    132 H132        0.6758  -17.2174  -49.8546 H         1 UNK         0.0800 
    133 H133        1.3617  -16.4557  -48.4509 H         1 UNK         0.0800 
    134 H134        3.4362  -16.5424  -52.4107 H         1 UNK         0.0800 
    135 H135        1.6905  -16.5345  -52.4814 H         1 UNK         0.0800 
    136 H136        0.9261  -18.7323  -52.7919 H         1 UNK         0.1150 
    137 H137        2.3837  -21.9689  -50.4008 H         1 UNK         0.1150 
    138 H138        4.1509  -18.0787  -50.0414 H         1 UNK         0.1150 
    139 H139        4.1356  -21.6696  -48.8575 H         1 UNK         0.0800 
    140 H140        5.3003  -20.4284  -49.2337 H         1 UNK         0.0800 
    141 H141        1.8865  -18.8843  -48.2728 H         1 UNK         0.0800 
    142 H142        1.9018  -18.7861  -46.5490 H         1 UNK         0.0800 
    143 H143        1.5626  -21.4206  -48.0680 H         1 UNK         0.0600 
    144 H144        1.7861  -20.8903  -45.2497 H         1 UNK         0.3000 
    145 H145        0.1989  -23.9059  -44.1703 H         1 UNK         0.0600 
    146 H146        2.4132  -24.4378  -43.1923 H         1 UNK         0.0600 
    147 H147        2.4296  -24.7608  -44.9187 H         1 UNK         0.0600 
    148 H148        3.2043  -23.3094  -44.2938 H         1 UNK         0.0600 
    149 H149        1.7552  -22.0440  -42.7278 H         1 UNK         0.3000 
    150 H150       -0.3872  -19.3146  -42.4902 H         1 UNK         0.0600 
    151 H151       -1.6023  -20.7977  -40.9004 H         1 UNK         0.0600 
    152 H152       -0.4717  -19.7715  -40.0370 H         1 UNK         0.0600 
    153 H153       -0.0788  -21.4632  -40.3257 H         1 UNK         0.0600 
    154 H154        1.8601  -19.9075  -40.9176 H         1 UNK         0.3000 
    155 H155        4.4870  -19.6791  -42.9983 H         1 UNK         0.0600 
    156 H156        3.4293  -16.8878  -42.3278 H         1 UNK         0.0600 
    157 H157        4.0672  -17.4400  -43.8726 H         1 UNK         0.0600 
    158 H158        5.1341  -17.3058  -42.4875 H         1 UNK         0.0600 
    159 H159        3.8032  -18.4638  -40.3864 H         1 UNK         0.3000 
    160 H160        4.5423  -21.3757  -38.5731 H         1 UNK         0.0600 
    161 H161        6.5141  -19.0444  -38.8623 H         1 UNK         0.0600 
    162 H162        6.9134  -20.7474  -39.0523 H         1 UNK         0.0600 
    163 H163        6.4018  -20.1421  -37.4854 H         1 UNK         0.0600 
    164 H164        4.3421  -18.6491  -37.7502 H         1 UNK         0.3000 
    165 H165        1.1916  -18.8982  -36.6647 H         1 UNK         0.0600 
    166 H166        2.0699  -16.6166  -36.2152 H         1 UNK         0.0600 
    167 H167        3.3252  -17.8181  -35.9928 H         1 UNK         0.0600 
    168 H168        3.3126  -16.8135  -37.4421 H         1 UNK         0.0600 
    169 H169       -0.1354  -17.8496  -38.0852 H         1 UNK         0.3000 
    170 H170       -0.7644  -17.4216  -40.4422 H         1 UNK         0.0600 
    171 H171       -1.1786  -15.8138  -38.5657 H         1 UNK         0.0600 
    172 H172       -0.1300  -14.6239  -39.3287 H         1 UNK         0.0600 
    173 H173       -1.6484  -15.0885  -40.0917 H         1 UNK         0.0600 
    174 H174        1.3158  -15.7155  -41.5848 H         1 UNK         0.3000 
    175 H175        0.9943  -14.6406  -43.5711 H         1 UNK         0.0600 
    176 H176        0.2900  -17.1749  -45.1450 H         1 UNK         0.0600 
    177 H177        1.3138  -15.8754  -45.7575 H         1 UNK         0.0600 
    178 H178        1.8162  -16.7984  -44.3574 H         1 UNK         0.0600 
    179 H179       -1.0151  -15.0200  -45.5774 H         1 UNK         0.3000 
    180 H180       -3.3958  -12.8115  -44.5677 H         1 UNK         0.0600 
    181 H181       -1.1068  -11.5188  -46.1478 H         1 UNK         0.0600 
    182 H182       -1.8553  -10.8598  -44.6986 H         1 UNK         0.0600 
    183 H183       -2.7942  -11.0042  -46.1742 H         1 UNK         0.0600 
    184 H184       -2.2915  -13.3783  -47.1996 H         1 UNK         0.3000 
    185 H185       -3.7301  -16.5216  -47.6164 H         1 UNK         0.0600 
    186 H186       -5.0766  -15.5211  -49.4412 H         1 UNK         0.0600 
    187 H187       -5.8227  -15.1820  -47.8913 H         1 UNK         0.0600 
    188 H188       -4.9212  -13.9204  -48.7243 H         1 UNK         0.0600 
    189 H189       -2.6822  -14.6786  -49.5186 H         1 UNK         0.3000 
    190 H190       -0.4588  -19.6416  -45.7059 H         1 UNK         0.3000 
    191 H191       -2.4650  -18.8160  -47.5671 H         1 UNK         0.0600 
    192 H192       -2.5835  -19.1545  -44.5200 H         1 UNK         0.0600 
    193 H193       -3.7783  -18.3112  -45.4983 H         1 UNK         0.0600 
    194 H194       -2.1438  -17.6856  -45.3868 H         1 UNK         0.0600 
    195 H195       -2.1038  -21.6837  -45.4831 H         1 UNK         0.3000 
    196 H196       -4.6071  -22.9068  -46.0655 H         1 UNK         0.0600 
    197 H197       -3.5400  -24.9389  -45.1193 H         1 UNK         0.0600 
    198 H198       -3.1832  -23.5355  -44.1226 H         1 UNK         0.0600 
    199 H199       -1.9560  -24.1817  -45.2093 H         1 UNK         0.0600 
    200 H200       -1.3434  -23.3602  -47.5698 H         1 UNK         0.3000 
    201 H201       -2.1155  -25.2744  -49.5018 H         1 UNK         0.0600 
    202 H202        0.2384  -24.8918  -48.9007 H         1 UNK         0.0600 
    203 H203        0.1752  -23.2381  -49.5060 H         1 UNK         0.0600 
    204 H204        0.0393  -24.5931  -50.6201 H         1 UNK         0.0600 
    205 H205       -2.0839  -21.7045  -49.6477 H         1 UNK         0.3000 
    206 H206       -3.0112  -21.5321  -52.3864 H         1 UNK         0.0600 
    207 H207       -1.6679  -19.7473  -51.2298 H         1 UNK         0.0600 
    208 H208       -3.1824  -19.1281  -51.8541 H         1 UNK         0.0600 
    209 H209       -3.0095  -19.4523  -50.1312 H         1 UNK         0.0600 
    210 H210       -4.6129  -22.3913  -49.4999 H         1 UNK         0.3000 
    211 H211       -6.6874  -22.5214  -48.7415 H         1 UNK         0.0600 
    212 H212       -7.4265  -22.6234  -51.7165 H         1 UNK         0.0600 
    213 H213       -8.4743  -23.1211  -50.3922 H         1 UNK         0.0600 
    214 H214       -6.9815  -23.9918  -50.7041 H         1 UNK         0.0600 
    215 H215       -5.7549  -20.0732  -48.4717 H         1 UNK         0.3000 
    216 H216       -6.1215  -17.9125  -48.1639 H         1 UNK         0.0600 
    217 H217       -8.3805  -17.1188  -47.5938 H         1 UNK         0.0600 
    218 H218       -8.1193  -18.7062  -46.8903 H         1 UNK         0.0600 
    219 H219       -9.1161  -18.5331  -48.3345 H         1 UNK         0.0600 
    220 H220       -5.4466  -18.6354  -50.7006 H         1 UNK         0.3000 
    221 H221       -5.0107  -17.8412  -52.6863 H         1 UNK         0.0600 
    222 H222       -6.4485  -15.2657  -51.8844 H         1 UNK         0.0600 
    223 H223       -4.7295  -15.6215  -51.6890 H         1 UNK         0.0600 
    224 H224       -5.4138  -15.4685  -53.2894 H         1 UNK         0.0600 
    225 H225       -7.4885  -19.3857  -52.1801 H         1 UNK         0.3000 
    226 H226       -9.1726  -18.7865  -54.5195 H         1 UNK         0.0600 
    227 H227      -10.1519  -19.9045  -52.5136 H         1 UNK         0.0600 
    228 H228      -10.2653  -20.9289  -53.9380 H         1 UNK         0.0600 
    229 H229       -9.0444  -21.2592  -52.7169 H         1 UNK         0.0600 
    230 H230       -6.2725  -20.5739  -53.6921 H         1 UNK         0.3000 
    231 H231       -5.8700  -21.4270  -56.5159 H         1 UNK         0.0600 
    232 H232       -6.2103  -23.4124  -54.9715 H         1 UNK         0.0600 
    233 H233       -4.9030  -22.8264  -53.9474 H         1 UNK         0.0600 
    234 H234       -4.5724  -23.3446  -55.5962 H         1 UNK         0.0600 
    235 H235       -3.2768  -21.8022  -56.6335 H         1 UNK         0.3000 
    236 H236       -1.7449  -19.8406  -55.1193 H         1 UNK         0.0600 
    237 H237       -0.8678  -18.7445  -57.1961 H         1 UNK         0.0600 
    238 H238       -1.9988  -19.6661  -58.1821 H         1 UNK         0.0600 
    239 H239       -2.5933  -18.4626  -57.0394 H         1 UNK         0.0600 
    240 H240        0.5163  -20.2103  -55.3533 H         1 UNK         0.3000 
    241 H241        1.1966  -23.0113  -56.0593 H         1 UNK         0.0600 
    242 H242        2.8544  -20.4719  -58.6347 H         1 UNK         0.3800 
    243 H243        1.3861  -20.1207  -57.7633 H         1 UNK         0.3800 
    244 H244        3.2075  -22.6005  -54.5862 H         1 UNK         0.0800 
    245 H245        2.5902  -21.0194  -54.2049 H         1 UNK         0.0800 
    246 H246       -0.0982  -20.8543  -53.0143 H         1 UNK         0.0800 
    247 H247       -0.0913  -21.7689  -51.5320 H         1 UNK         0.0800 
@<TRIPOS>BOND
     1    1    2 1    
     2    1  127 1    
     3    1  128 1    
     4    1  129 1    
     5    2    3 2    
     6    2    4 am   BACKBONE|DICT|INTERRES
     7    4    5 1    
     8    4  130 1    
     9    5    6 1    
    10    5   65 1    
    11    5  131 1    
    12    6    7 1    
    13    6  132 1    
    14    6  133 1    
    15    7    8 1    
    16    8    9 1    
    17    8  134 1    
    18    8  135 1    
    19    9   10 ar   
    20    9   14 ar   
    21   10   11 ar   
    22   10  136 1    
    23   11   12 ar   
    24   11  126 1    
    25   12   13 ar   
    26   12  137 1    
    27   13   14 ar   
    28   13   15 1    
    29   14  138 1    
    30   15   16 1    
    31   15  139 1    
    32   15  140 1    
    33   16   17 1    
    34   17   18 1    
    35   17  141 1    
    36   17  142 1    
    37   18   19 1    
    38   18   67 1    
    39   18  143 1    
    40   19   20 am   BACKBONE|DICT|INTERRES
    41   19  144 1    
    42   20   21 2    
    43   20   22 1    
    44   22   23 1    
    45   22   24 1    
    46   22  145 1    
    47   23  146 1    
    48   23  147 1    
    49   23  148 1    
    50   24   25 am   BACKBONE|DICT|INTERRES
    51   24  149 1    
    52   25   26 2    
    53   25   27 1    
    54   27   28 1    
    55   27   29 1    
    56   27  150 1    
    57   28  151 1    
    58   28  152 1    
    59   28  153 1    
    60   29   30 am   BACKBONE|DICT|INTERRES
    61   29  154 1    
    62   30   31 2    
    63   30   32 1    
    64   32   33 1    
    65   32   34 1    
    66   32  155 1    
    67   33  156 1    
    68   33  157 1    
    69   33  158 1    
    70   34   35 am   BACKBONE|DICT|INTERRES
    71   34  159 1    
    72   35   36 2    
    73   35   37 1    
    74   37   38 1    
    75   37   39 1    
    76   37  160 1    
    77   38  161 1    
    78   38  162 1    
    79   38  163 1    
    80   39   40 am   BACKBONE|DICT|INTERRES
    81   39  164 1    
    82   40   41 2    
    83   40   42 1    
    84   42   43 1    
    85   42   44 1    
    86   42  165 1    
    87   43  166 1    
    88   43  167 1    
    89   43  168 1    
    90   44   45 am   BACKBONE|DICT|INTERRES
    91   44  169 1    
    92   45   46 2    
    93   45   47 1    
    94   47   48 1    
    95   47   49 1    
    96   47  170 1    
    97   48  171 1    
    98   48  172 1    
    99   48  173 1    
   100   49   50 am   BACKBONE|DICT|INTERRES
   101   49  174 1    
   102   50   51 2    
   103   50   52 1    
   104   52   53 1    
   105   52   54 1    
   106   52  175 1    
   107   53  176 1    
   108   53  177 1    
   109   53  178 1    
   110   54   55 am   BACKBONE|DICT|INTERRES
   111   54  179 1    
   112   55   56 2    
   113   55   57 1    
   114   57   58 1    
   115   57   59 1    
   116   57  180 1    
   117   58  181 1    
   118   58  182 1    
   119   58  183 1    
   120   59   60 am   BACKBONE|DICT|INTERRES
   121   59  184 1    
   122   60   61 2    
   123   60   62 1    
   124   62   63 1    
   125   62   64 1    
   126   62  185 1    
   127   63  186 1    
   128   63  187 1    
   129   63  188 1    
   130   64   65 am   BACKBONE|DICT|INTERRES
   131   64  189 1    
   132   65   66 2    
   133   67   68 2    
   134   67   69 am   BACKBONE|DICT|INTERRES
   135   69   70 1    
   136   69  190 1    
   137   70   71 1    
   138   70   72 1    
   139   70  191 1    
   140   71  192 1    
   141   71  193 1    
   142   71  194 1    
   143   72   73 2    
   144   72   74 am   BACKBONE|DICT|INTERRES
   145   74   75 1    
   146   74  195 1    
   147   75   76 1    
   148   75   77 1    
   149   75  196 1    
   150   76  197 1    
   151   76  198 1    
   152   76  199 1    
   153   77   78 2    
   154   77   79 am   BACKBONE|DICT|INTERRES
   155   79   80 1    
   156   79  200 1    
   157   80   81 1    
   158   80   82 1    
   159   80  201 1    
   160   81  202 1    
   161   81  203 1    
   162   81  204 1    
   163   82   83 2    
   164   82   84 am   BACKBONE|DICT|INTERRES
   165   84   85 1    
   166   84  205 1    
   167   85   86 1    
   168   85   87 1    
   169   85  206 1    
   170   86  207 1    
   171   86  208 1    
   172   86  209 1    
   173   87   88 2    
   174   87   89 am   BACKBONE|DICT|INTERRES
   175   89   90 1    
   176   89  210 1    
   177   90   91 1    
   178   90   92 1    
   179   90  211 1    
   180   91  212 1    
   181   91  213 1    
   182   91  214 1    
   183   92   93 2    
   184   92   94 am   BACKBONE|DICT|INTERRES
   185   94   95 1    
   186   94  215 1    
   187   95   96 1    
   188   95   97 1    
   189   95  216 1    
   190   96  217 1    
   191   96  218 1    
   192   96  219 1    
   193   97   98 2    
   194   97   99 am   BACKBONE|DICT|INTERRES
   195   99  100 1    
   196   99  220 1    
   197  100  101 1    
   198  100  102 1    
   199  100  221 1    
   200  101  222 1    
   201  101  223 1    
   202  101  224 1    
   203  102  103 2    
   204  102  104 am   BACKBONE|DICT|INTERRES
   205  104  105 1    
   206  104  225 1    
   207  105  106 1    
   208  105  107 1    
   209  105  226 1    
   210  106  227 1    
   211  106  228 1    
   212  106  229 1    
   213  107  108 2    
   214  107  109 am   BACKBONE|DICT|INTERRES
   215  109  110 1    
   216  109  230 1    
   217  110  111 1    
   218  110  112 1    
   219  110  231 1    
   220  111  232 1    
   221  111  233 1    
   222  111  234 1    
   223  112  113 2    
   224  112  114 am   BACKBONE|DICT|INTERRES
   225  114  115 1    
   226  114  235 1    
   227  115  116 1    
   228  115  117 1    
   229  115  236 1    
   230  116  237 1    
   231  116  238 1    
   232  116  239 1    
   233  117  118 2    
   234  117  119 am   BACKBONE|DICT|INTERRES
   235  119  120 1    
   236  119  240 1    
   237  120  121 1    
   238  120  124 1    
   239  120  241 1    
   240  121  122 am   BACKBONE|DICT|INTERRES
   241  121  123 2    
   242  122  242 1    
   243  122  243 1    
   244  124  125 1    
   245  124  244 1    
   246  124  245 1    
   247  125  126 1    
   248  126  246 1    
   249  126  247 1    
@<TRIPOS>SUBSTRUCTURE
     1 UNK         1 GROUP             0       ****    0 ROOT    
