@<TRIPOS>MOLECULE
3R540
247   249    1
SMALL
USER_CHARGES


@<TRIPOS>ATOM
      1 CA          7.7635  -13.3169  -47.0372 C.3       0 UNK        -0.1800 
      2 C           6.3612  -12.8526  -46.6710 C.2       0 UNK         0.5000 
      3 O           6.0338  -11.6833  -46.8677 O.2       0 UNK        -0.5000 
      4 N           5.5392  -13.7639  -46.1313 N.am      1 UNK        -0.5000 
      5 CA          4.1407  -13.5610  -45.7184 C.3       1 UNK         0.1400 
      6 C6          3.2024  -13.1237  -46.8872 C.3       23 UNK        -0.0398 
      7 S7          2.1988  -14.5062  -47.5195 S.3       23 UNK        -0.2404 
      8 C8          3.1650  -14.9986  -48.9816 C.3       23 UNK        -0.0205 
      9 C9          2.4848  -16.1106  -49.7698 C.ar      23 UNK        -0.0193 
     10 C10         1.4116  -15.8073  -50.6129 C.ar      23 UNK        -0.1150 
     11 C11         0.8057  -16.8048  -51.3814 C.ar      23 UNK        -0.0193 
     12 C12         1.2841  -18.1165  -51.3066 C.ar      23 UNK        -0.1150 
     13 C13         2.3608  -18.4350  -50.4748 C.ar      23 UNK        -0.0193 
     14 C14         2.9517  -17.4286  -49.7011 C.ar      23 UNK        -0.1150 
     15 C15         2.9300  -19.8482  -50.4707 C.3       23 UNK        -0.0205 
     16 S16         2.4450  -20.8093  -49.0045 S.3       23 UNK        -0.2404 
     17 C17         0.7260  -21.2900  -49.3888 C.3       23 UNK        -0.0398 
     18 CA          0.2182  -22.4165  -48.4518 C.3       11 UNK         0.1400 
     19 N           0.2109  -22.0261  -47.0372 N.am      11 UNK        -0.5000 
     20 C          -0.0449  -22.8478  -46.0093 C.2       10 UNK         0.5000 
     21 O          -0.2548  -24.0530  -46.1348 O.2       10 UNK        -0.5000 
     22 CA         -0.1334  -22.2150  -44.6100 C.3       10 UNK         0.1400 
     23 CB          1.2570  -22.0697  -43.9730 C.3       10 UNK        -0.1800 
     24 N          -0.8099  -20.9189  -44.6424 N.am      10 UNK        -0.5000 
     25 C          -2.1289  -20.7655  -44.8261 C.2       9 UNK         0.5000 
     26 O          -2.9151  -21.7074  -44.9324 O.2       9 UNK        -0.5000 
     27 CA         -2.6517  -19.3201  -44.9490 C.3       9 UNK         0.1400 
     28 CB         -2.8679  -18.7009  -43.5604 C.3       9 UNK        -0.1800 
     29 N          -1.7655  -18.4531  -45.7254 N.am      9 UNK        -0.5000 
     30 C          -1.4528  -18.6429  -47.0149 C.2       8 UNK         0.5000 
     31 O          -1.9255  -19.5405  -47.7092 O.2       8 UNK        -0.5000 
     32 CA         -0.3872  -17.7076  -47.6098 C.3       8 UNK         0.1400 
     33 CB         -1.0442  -16.4025  -48.0760 C.3       8 UNK        -0.1800 
     34 N           0.7100  -17.4133  -46.6830 N.am      8 UNK        -0.5000 
     35 C           1.4958  -18.3302  -46.0971 C.2       7 UNK         0.5000 
     36 O           1.3478  -19.5405  -46.2355 O.2       7 UNK        -0.5000 
     37 CA          2.5951  -17.8232  -45.1511 C.3       7 UNK         0.1400 
     38 CB          3.8952  -17.5264  -45.9127 C.3       7 UNK        -0.1800 
     39 N           2.1554  -16.6409  -44.4126 N.am      7 UNK        -0.5000 
     40 C           1.3693  -16.6978  -43.3291 C.2       6 UNK         0.5000 
     41 O           1.0123  -17.7471  -42.7924 O.2       6 UNK        -0.5000 
     42 CA          0.8685  -15.3523  -42.7780 C.3       6 UNK         0.1400 
     43 CB          1.9114  -14.7271  -41.8430 C.3       6 UNK        -0.1800 
     44 N           0.5036  -14.4004  -43.8333 N.am      6 UNK        -0.5000 
     45 C          -0.5482  -14.5743  -44.6477 C.2       5 UNK         0.5000 
     46 O          -1.2223  -15.6068  -44.6465 O.2       5 UNK        -0.5000 
     47 CA         -0.9159  -13.4514  -45.6464 C.3       5 UNK         0.1400 
     48 CB         -2.4413  -13.2310  -45.7071 C.3       5 UNK        -0.1800 
     49 N          -0.2352  -12.1592  -45.4853 N.am      5 UNK        -0.5000 
     50 C          -0.2523  -11.3419  -44.4238 C.2       4 UNK         0.5000 
     51 O          -0.7233  -11.6347  -43.3228 O.2       4 UNK        -0.5000 
     52 CA          0.3151   -9.9339  -44.6494 C.3       4 UNK         0.1400 
     53 CB         -0.8450   -8.9266  -44.7955 C.3       4 UNK        -0.1800 
     54 N           1.1880   -9.5950  -43.5303 N.am      4 UNK        -0.5000 
     55 C           1.9234   -8.4840  -43.3976 C.2       3 UNK         0.5000 
     56 O           1.9229   -7.5500  -44.2005 O.2       3 UNK        -0.5000 
     57 CA          2.8531   -8.4274  -42.1709 C.3       3 UNK         0.1400 
     58 CB          2.0590   -8.1240  -40.8905 C.3       3 UNK        -0.1800 
     59 N           3.6059   -9.6707  -41.9971 N.am      3 UNK        -0.5000 
     60 C           4.5589  -10.1016  -42.8358 C.2       2 UNK         0.5000 
     61 O           4.9734   -9.4413  -43.7905 O.2       2 UNK        -0.5000 
     62 CA          5.1620  -11.4997  -42.5798 C.3       2 UNK         0.1400 
     63 CB          4.5768  -12.2299  -41.3505 C.3       2 UNK        -0.1800 
     64 N           5.0755  -12.3442  -43.7760 N.am      2 UNK        -0.5000 
     65 C           3.9669  -12.6945  -44.4469 C.2       1 UNK         0.5000 
     66 O           2.8270  -12.4107  -44.0737 O.2       1 UNK        -0.5000 
     67 C          -1.1623  -22.9421  -48.8980 C.2       11 UNK         0.5000 
     68 O          -1.2294  -23.9962  -49.5298 O.2       11 UNK        -0.5000 
     69 N          -2.2359  -22.2384  -48.5087 N.am      12 UNK        -0.5000 
     70 CA         -3.6280  -22.6365  -48.7241 C.3       12 UNK         0.1400 
     71 CB         -4.5642  -21.5230  -48.2324 C.3       12 UNK        -0.1800 
     72 C          -3.9773  -23.9663  -48.0366 C.2       12 UNK         0.5000 
     73 O          -4.6099  -24.8198  -48.6587 O.2       12 UNK        -0.5000 
     74 N          -3.5392  -24.1285  -46.7793 N.am      13 UNK        -0.5000 
     75 CA         -3.7221  -25.3469  -45.9906 C.3       13 UNK         0.1400 
     76 CB         -3.3033  -25.0938  -44.5348 C.3       13 UNK        -0.1800 
     77 C          -2.9701  -26.5529  -46.5811 C.2       13 UNK         0.5000 
     78 O          -3.5556  -27.6293  -46.6984 O.2       13 UNK        -0.5000 
     79 N          -1.7089  -26.3446  -46.9855 N.am      14 UNK        -0.5000 
     80 CA         -0.8602  -27.3450  -47.6387 C.3       14 UNK         0.1400 
     81 CB          0.5649  -26.7907  -47.7841 C.3       14 UNK        -0.1800 
     82 C          -1.4081  -27.7981  -49.0049 C.2       14 UNK         0.5000 
     83 O          -1.3250  -28.9818  -49.3335 O.2       14 UNK        -0.5000 
     84 N          -1.9931  -26.8559  -49.7550 N.am      15 UNK        -0.5000 
     85 CA         -2.6831  -27.0979  -51.0216 C.3       15 UNK         0.1400 
     86 CB         -2.7263  -25.7819  -51.8119 C.3       15 UNK        -0.1800 
     87 C          -4.1082  -27.6644  -50.8523 C.2       15 UNK         0.5000 
     88 O          -4.7540  -27.9521  -51.8600 O.2       15 UNK        -0.5000 
     89 N          -4.5991  -27.7741  -49.6074 N.am      16 UNK        -0.5000 
     90 CA         -5.9472  -28.2071  -49.2163 C.3       16 UNK         0.1400 
     91 CB         -6.1230  -29.7164  -49.4806 C.3       16 UNK        -0.1800 
     92 C          -7.0656  -27.3510  -49.8527 C.2       16 UNK         0.5000 
     93 O          -8.1306  -27.8711  -50.1892 O.2       16 UNK        -0.5000 
     94 N          -6.7751  -26.0545  -50.0366 N.am      17 UNK        -0.5000 
     95 CA         -7.5783  -25.0261  -50.7048 C.3       17 UNK         0.1400 
     96 CB         -8.8836  -24.7614  -49.9271 C.3       17 UNK        -0.1800 
     97 C          -7.8313  -25.2697  -52.2116 C.2       17 UNK         0.5000 
     98 O          -8.6332  -24.5469  -52.8056 O.2       17 UNK        -0.5000 
     99 N          -7.1401  -26.2432  -52.8262 N.am      18 UNK        -0.5000 
    100 CA        -7.2120  -26.5242  -54.2654 C.3       18 UNK         0.1400 
    101 CB        -6.7795  -27.9761  -54.5208 C.3       18 UNK        -0.1800 
    102 C         -6.3572  -25.5491  -55.1003 C.2       18 UNK         0.5000 
    103 O         -6.5583  -25.4408  -56.3106 O.2       18 UNK        -0.5000 
    104 N         -5.4309  -24.8539  -54.4359 N.am      19 UNK        -0.5000 
    105 CA        -4.5846  -23.7887  -54.9524 C.3       19 UNK         0.1400 
    106 CB        -3.3154  -24.3890  -55.5856 C.3       19 UNK        -0.1800 
    107 C         -4.2617  -22.8453  -53.7816 C.2       19 UNK         0.5000 
    108 O         -4.6652  -23.1228  -52.6475 O.2       19 UNK        -0.5000 
    109 N         -3.5455  -21.7516  -54.0797 N.am      20 UNK        -0.5000 
    110 CA        -3.1396  -20.6934  -53.1466 C.3       20 UNK         0.1400 
    111 CB        -2.0944  -21.2121  -52.1361 C.3       20 UNK        -0.1800 
    112 C         -4.3534  -20.0094  -52.4843 C.2       20 UNK         0.5000 
    113 O         -4.4595  -19.9557  -51.2586 O.2       20 UNK        -0.5000 
    114 N         -5.2479  -19.4754  -53.3308 N.am      21 UNK        -0.5000 
    115 CA        -6.4714  -18.7512  -52.9524 C.3       21 UNK         0.1400 
    116 CB        -7.2603  -18.4162  -54.2277 C.3       21 UNK        -0.1800 
    117 C         -6.2330  -17.4774  -52.1093 C.2       21 UNK         0.5000 
    118 O         -7.1670  -16.9748  -51.4833 O.2       21 UNK        -0.5000 
    119 N         -4.9823  -17.0047  -52.0902 N.am      22 UNK        -0.5000 
    120 CA        -4.4172  -16.0399  -51.1383 C.3       22 UNK         0.1400 
    121 C         -4.5150  -16.4596  -49.6394 C.2       22 UNK         0.5000 
    122 N         -4.6017  -17.7441  -49.3117 N.am      22 UNK        -0.7600 
    123 O         -4.5166  -15.5999  -48.7631 O.2       22 UNK        -0.5000 
    124 C124       -2.9513  -15.6968  -51.5224 C.3       23 UNK        -0.0398 
    125 S125       -1.9051  -17.1831  -51.7551 S.3       23 UNK        -0.2404 
    126 C126       -0.3372  -16.4639  -52.3252 C.3       23 UNK        -0.0205 
    127 H127        8.5062  -12.7363  -46.4899 H         1 UNK         0.0600 
    128 H128        7.9165  -14.3710  -46.8043 H         1 UNK         0.0600 
    129 H129        7.9378  -13.1762  -48.1039 H         1 UNK         0.0600 
    130 H130        5.8923  -14.7000  -45.9873 H         1 UNK         0.3000 
    131 H131        3.8239  -14.5454  -45.3770 H         1 UNK         0.0600 
    132 H132        2.5017  -12.3444  -46.5863 H         1 UNK         0.0800 
    133 H133        3.7578  -12.6795  -47.7128 H         1 UNK         0.0800 
    134 H134        3.3023  -14.1335  -49.6320 H         1 UNK         0.0800 
    135 H135        4.1633  -15.3070  -48.6677 H         1 UNK         0.0800 
    136 H136        1.0544  -14.7888  -50.6739 H         1 UNK         0.1150 
    137 H137        0.8261  -18.8852  -51.9133 H         1 UNK         0.1150 
    138 H138        3.7918  -17.6702  -49.0656 H         1 UNK         0.1150 
    139 H139        2.6395  -20.3868  -51.3739 H         1 UNK         0.0800 
    140 H140        4.0189  -19.7884  -50.4970 H         1 UNK         0.0800 
    141 H141        0.6891  -21.6201  -50.4285 H         1 UNK         0.0800 
    142 H142        0.0875  -20.4089  -49.3228 H         1 UNK         0.0800 
    143 H143        0.9130  -23.2545  -48.5410 H         1 UNK         0.0600 
    144 H144        0.4512  -21.0585  -46.8336 H         1 UNK         0.3000 
    145 H145       -0.7176  -22.8867  -43.9776 H         1 UNK         0.0600 
    146 H146        1.1905  -21.6363  -42.9750 H         1 UNK         0.0600 
    147 H147        1.7392  -23.0430  -43.8738 H         1 UNK         0.0600 
    148 H148        1.9179  -21.4403  -44.5682 H         1 UNK         0.0600 
    149 H149       -0.2186  -20.0991  -44.6429 H         1 UNK         0.3000 
    150 H150       -3.6145  -19.3584  -45.4626 H         1 UNK         0.0600 
    151 H151       -3.5387  -19.3147  -42.9579 H         1 UNK         0.0600 
    152 H152       -3.3138  -17.7089  -43.6372 H         1 UNK         0.0600 
    153 H153       -1.9288  -18.6024  -43.0137 H         1 UNK         0.0600 
    154 H154       -1.3654  -17.6547  -45.2445 H         1 UNK         0.3000 
    155 H155        0.0499  -18.1979  -48.4808 H         1 UNK         0.0600 
    156 H156       -0.3160  -15.6881  -48.4527 H         1 UNK         0.0600 
    157 H157       -1.6125  -15.9237  -47.2800 H         1 UNK         0.0600 
    158 H158       -1.7407  -16.6058  -48.8859 H         1 UNK         0.0600 
    159 H159        0.9070  -16.4378  -46.5222 H         1 UNK         0.3000 
    160 H160        2.8114  -18.6237  -44.4398 H         1 UNK         0.0600 
    161 H161        3.7628  -16.7518  -46.6642 H         1 UNK         0.0600 
    162 H162        4.2509  -18.4192  -46.4290 H         1 UNK         0.0600 
    163 H163        4.6858  -17.2070  -45.2338 H         1 UNK         0.0600 
    164 H164        2.3685  -15.7381  -44.8052 H         1 UNK         0.3000 
    165 H165       -0.0292  -15.5514  -42.1883 H         1 UNK         0.0600 
    166 H166        2.8584  -14.5542  -42.3532 H         1 UNK         0.0600 
    167 H167        1.5595  -13.7761  -41.4433 H         1 UNK         0.0600 
    168 H168        2.1146  -15.3816  -40.9945 H         1 UNK         0.0600 
    169 H169        1.0303  -13.5351  -43.8804 H         1 UNK         0.3000 
    170 H170       -0.6058  -13.8185  -46.6244 H         1 UNK         0.0600 
    171 H171       -2.9656  -14.1484  -45.9784 H         1 UNK         0.0600 
    172 H172       -2.8378  -12.8994  -44.7469 H         1 UNK         0.0600 
    173 H173       -2.7026  -12.4822  -46.4548 H         1 UNK         0.0600 
    174 H174        0.2060  -11.8160  -46.3263 H         1 UNK         0.3000 
    175 H175        0.9150   -9.9300  -45.5616 H         1 UNK         0.0600 
    176 H176       -0.4932   -7.9394  -45.0928 H         1 UNK         0.0600 
    177 H177       -1.5510   -9.2528  -45.5606 H         1 UNK         0.0600 
    178 H178       -1.4001   -8.8184  -43.8629 H         1 UNK         0.0600 
    179 H179        1.2726  -10.3241  -42.8343 H         1 UNK         0.3000 
    180 H180        3.5663   -7.6151  -42.3270 H         1 UNK         0.0600 
    181 H181        1.3460   -8.9158  -40.6576 H         1 UNK         0.0600 
    182 H182        1.4960   -7.1953  -40.9929 H         1 UNK         0.0600 
    183 H183        2.7228   -8.0075  -40.0337 H         1 UNK         0.0600 
    184 H184        3.3268  -10.2704  -41.2347 H         1 UNK         0.3000 
    185 H185        6.2252  -11.3425  -42.3927 H         1 UNK         0.0600 
    186 H186        5.0159  -13.2213  -41.2387 H         1 UNK         0.0600 
    187 H187        4.7882  -11.6823  -40.4313 H         1 UNK         0.0600 
    188 H188        3.4969  -12.3530  -41.4223 H         1 UNK         0.0600 
    189 H189        5.9603  -12.6121  -44.1817 H         1 UNK         0.3000 
    190 H190       -2.0921  -21.3445  -48.0429 H         1 UNK         0.3000 
    191 H191       -3.7830  -22.7642  -49.7967 H         1 UNK         0.0600 
    192 H192       -4.3344  -20.5752  -48.7161 H         1 UNK         0.0600 
    193 H193       -5.6044  -21.7604  -48.4579 H         1 UNK         0.0600 
    194 H194       -4.4844  -21.3704  -47.1560 H         1 UNK         0.0600 
    195 H195       -3.0564  -23.3608  -46.3272 H         1 UNK         0.3000 
    196 H196       -4.7874  -25.5869  -45.9965 H         1 UNK         0.0600 
    197 H197       -3.4658  -25.9816  -43.9225 H         1 UNK         0.0600 
    198 H198       -3.8836  -24.2834  -44.0933 H         1 UNK         0.0600 
    199 H199       -2.2488  -24.8303  -44.4565 H         1 UNK         0.0600 
    200 H200       -1.2839  -25.4356  -46.8132 H         1 UNK         0.3000 
    201 H201       -0.8206  -28.2224  -46.9901 H         1 UNK         0.0600 
    202 H202        0.9932  -26.5459  -46.8120 H         1 UNK         0.0600 
    203 H203        0.5839  -25.8869  -48.3943 H         1 UNK         0.0600 
    204 H204        1.2235  -27.5211  -48.2556 H         1 UNK         0.0600 
    205 H205       -1.9606  -25.8912  -49.4394 H         1 UNK         0.3000 
    206 H206       -2.1120  -27.8251  -51.6022 H         1 UNK         0.0600 
    207 H207       -1.7232  -25.4037  -52.0093 H         1 UNK         0.0600 
    208 H208       -3.2174  -25.9194  -52.7748 H         1 UNK         0.0600 
    209 H209       -3.2732  -25.0097  -51.2696 H         1 UNK         0.0600 
    210 H210       -4.0034  -27.4894  -48.8399 H         1 UNK         0.3000 
    211 H211       -6.0186  -28.0474  -48.1396 H         1 UNK         0.0600 
    212 H212       -6.1170  -29.9437  -50.5471 H         1 UNK         0.0600 
    213 H213       -7.0678  -30.0784  -49.0737 H         1 UNK         0.0600 
    214 H214       -5.3265  -30.2930  -49.0101 H         1 UNK         0.0600 
    215 H215       -5.8815  -25.7246  -49.6748 H         1 UNK         0.3000 
    216 H216       -6.9791  -24.1155  -50.6544 H         1 UNK         0.0600 
    217 H217       -8.6817  -24.5657  -48.8740 H         1 UNK         0.0600 
    218 H218       -9.5700  -25.6063  -49.9870 H         1 UNK         0.0600 
    219 H219       -9.4059  -23.8893  -50.3220 H         1 UNK         0.0600 
    220 H220       -6.4883  -26.8056  -52.2898 H         1 UNK         0.3000 
    221 H221       -8.2486  -26.4204  -54.5926 H         1 UNK         0.0600 
    222 H222       -5.7225  -28.1272  -54.3011 H         1 UNK         0.0600 
    223 H223       -7.3536  -28.6744  -53.9114 H         1 UNK         0.0600 
    224 H224       -6.9360  -28.2494  -55.5650 H         1 UNK         0.0600 
    225 H225       -5.3874  -24.9481  -53.4288 H         1 UNK         0.3000 
    226 H226       -5.1374  -23.2194  -55.7024 H         1 UNK         0.0600 
    227 H227       -3.5656  -25.1007  -56.3724 H         1 UNK         0.0600 
    228 H228       -2.6959  -23.6151  -56.0394 H         1 UNK         0.0600 
    229 H229       -2.7023  -24.9086  -54.8493 H         1 UNK         0.0600 
    230 H230       -3.2663  -21.6120  -55.0407 H         1 UNK         0.3000 
    231 H231       -2.6491  -19.9221  -53.7423 H         1 UNK         0.0600 
    232 H232       -1.7888  -20.4246  -51.4456 H         1 UNK         0.0600 
    233 H233       -1.1973  -21.5634  -52.6452 H         1 UNK         0.0600 
    234 H234       -2.4797  -22.0374  -51.5403 H         1 UNK         0.0600 
    235 H235       -5.0828  -19.5738  -54.3219 H         1 UNK         0.3000 
    236 H236       -7.0751  -19.4269  -52.3432 H         1 UNK         0.0600 
    237 H237       -8.1957  -17.9086  -53.9881 H         1 UNK         0.0600 
    238 H238       -6.6925  -17.7620  -54.8905 H         1 UNK         0.0600 
    239 H239       -7.5165  -19.3188  -54.7828 H         1 UNK         0.0600 
    240 H240       -4.2960  -17.4994  -52.6396 H         1 UNK         0.3000 
    241 H241       -5.0063  -15.1261  -51.2333 H         1 UNK         0.0600 
    242 H242       -4.5602  -18.4698  -50.0222 H         1 UNK         0.3800 
    243 H243       -4.6582  -18.0022  -48.3414 H         1 UNK         0.3800 
    244 H244       -2.9497  -15.1340  -52.4568 H         1 UNK         0.0800 
    245 H245       -2.4908  -15.0421  -50.7800 H         1 UNK         0.0800 
    246 H246       -0.1109  -16.8549  -53.3181 H         1 UNK         0.0800 
    247 H247       -0.4342  -15.3833  -52.4393 H         1 UNK         0.0800 
@<TRIPOS>BOND
     1    1    2 1    
     2    1  127 1    
     3    1  128 1    
     4    1  129 1    
     5    2    3 2    
     6    2    4 am   BACKBONE|DICT|INTERRES
     7    4    5 1    
     8    4  130 1    
     9    5    6 1    
    10    5   65 1    
    11    5  131 1    
    12    6    7 1    
    13    6  132 1    
    14    6  133 1    
    15    7    8 1    
    16    8    9 1    
    17    8  134 1    
    18    8  135 1    
    19    9   10 ar   
    20    9   14 ar   
    21   10   11 ar   
    22   10  136 1    
    23   11   12 ar   
    24   11  126 1    
    25   12   13 ar   
    26   12  137 1    
    27   13   14 ar   
    28   13   15 1    
    29   14  138 1    
    30   15   16 1    
    31   15  139 1    
    32   15  140 1    
    33   16   17 1    
    34   17   18 1    
    35   17  141 1    
    36   17  142 1    
    37   18   19 1    
    38   18   67 1    
    39   18  143 1    
    40   19   20 am   BACKBONE|DICT|INTERRES
    41   19  144 1    
    42   20   21 2    
    43   20   22 1    
    44   22   23 1    
    45   22   24 1    
    46   22  145 1    
    47   23  146 1    
    48   23  147 1    
    49   23  148 1    
    50   24   25 am   BACKBONE|DICT|INTERRES
    51   24  149 1    
    52   25   26 2    
    53   25   27 1    
    54   27   28 1    
    55   27   29 1    
    56   27  150 1    
    57   28  151 1    
    58   28  152 1    
    59   28  153 1    
    60   29   30 am   BACKBONE|DICT|INTERRES
    61   29  154 1    
    62   30   31 2    
    63   30   32 1    
    64   32   33 1    
    65   32   34 1    
    66   32  155 1    
    67   33  156 1    
    68   33  157 1    
    69   33  158 1    
    70   34   35 am   BACKBONE|DICT|INTERRES
    71   34  159 1    
    72   35   36 2    
    73   35   37 1    
    74   37   38 1    
    75   37   39 1    
    76   37  160 1    
    77   38  161 1    
    78   38  162 1    
    79   38  163 1    
    80   39   40 am   BACKBONE|DICT|INTERRES
    81   39  164 1    
    82   40   41 2    
    83   40   42 1    
    84   42   43 1    
    85   42   44 1    
    86   42  165 1    
    87   43  166 1    
    88   43  167 1    
    89   43  168 1    
    90   44   45 am   BACKBONE|DICT|INTERRES
    91   44  169 1    
    92   45   46 2    
    93   45   47 1    
    94   47   48 1    
    95   47   49 1    
    96   47  170 1    
    97   48  171 1    
    98   48  172 1    
    99   48  173 1    
   100   49   50 am   BACKBONE|DICT|INTERRES
   101   49  174 1    
   102   50   51 2    
   103   50   52 1    
   104   52   53 1    
   105   52   54 1    
   106   52  175 1    
   107   53  176 1    
   108   53  177 1    
   109   53  178 1    
   110   54   55 am   BACKBONE|DICT|INTERRES
   111   54  179 1    
   112   55   56 2    
   113   55   57 1    
   114   57   58 1    
   115   57   59 1    
   116   57  180 1    
   117   58  181 1    
   118   58  182 1    
   119   58  183 1    
   120   59   60 am   BACKBONE|DICT|INTERRES
   121   59  184 1    
   122   60   61 2    
   123   60   62 1    
   124   62   63 1    
   125   62   64 1    
   126   62  185 1    
   127   63  186 1    
   128   63  187 1    
   129   63  188 1    
   130   64   65 am   BACKBONE|DICT|INTERRES
   131   64  189 1    
   132   65   66 2    
   133   67   68 2    
   134   67   69 am   BACKBONE|DICT|INTERRES
   135   69   70 1    
   136   69  190 1    
   137   70   71 1    
   138   70   72 1    
   139   70  191 1    
   140   71  192 1    
   141   71  193 1    
   142   71  194 1    
   143   72   73 2    
   144   72   74 am   BACKBONE|DICT|INTERRES
   145   74   75 1    
   146   74  195 1    
   147   75   76 1    
   148   75   77 1    
   149   75  196 1    
   150   76  197 1    
   151   76  198 1    
   152   76  199 1    
   153   77   78 2    
   154   77   79 am   BACKBONE|DICT|INTERRES
   155   79   80 1    
   156   79  200 1    
   157   80   81 1    
   158   80   82 1    
   159   80  201 1    
   160   81  202 1    
   161   81  203 1    
   162   81  204 1    
   163   82   83 2    
   164   82   84 am   BACKBONE|DICT|INTERRES
   165   84   85 1    
   166   84  205 1    
   167   85   86 1    
   168   85   87 1    
   169   85  206 1    
   170   86  207 1    
   171   86  208 1    
   172   86  209 1    
   173   87   88 2    
   174   87   89 am   BACKBONE|DICT|INTERRES
   175   89   90 1    
   176   89  210 1    
   177   90   91 1    
   178   90   92 1    
   179   90  211 1    
   180   91  212 1    
   181   91  213 1    
   182   91  214 1    
   183   92   93 2    
   184   92   94 am   BACKBONE|DICT|INTERRES
   185   94   95 1    
   186   94  215 1    
   187   95   96 1    
   188   95   97 1    
   189   95  216 1    
   190   96  217 1    
   191   96  218 1    
   192   96  219 1    
   193   97   98 2    
   194   97   99 am   BACKBONE|DICT|INTERRES
   195   99  100 1    
   196   99  220 1    
   197  100  101 1    
   198  100  102 1    
   199  100  221 1    
   200  101  222 1    
   201  101  223 1    
   202  101  224 1    
   203  102  103 2    
   204  102  104 am   BACKBONE|DICT|INTERRES
   205  104  105 1    
   206  104  225 1    
   207  105  106 1    
   208  105  107 1    
   209  105  226 1    
   210  106  227 1    
   211  106  228 1    
   212  106  229 1    
   213  107  108 2    
   214  107  109 am   BACKBONE|DICT|INTERRES
   215  109  110 1    
   216  109  230 1    
   217  110  111 1    
   218  110  112 1    
   219  110  231 1    
   220  111  232 1    
   221  111  233 1    
   222  111  234 1    
   223  112  113 2    
   224  112  114 am   BACKBONE|DICT|INTERRES
   225  114  115 1    
   226  114  235 1    
   227  115  116 1    
   228  115  117 1    
   229  115  236 1    
   230  116  237 1    
   231  116  238 1    
   232  116  239 1    
   233  117  118 2    
   234  117  119 am   BACKBONE|DICT|INTERRES
   235  119  120 1    
   236  119  240 1    
   237  120  121 1    
   238  120  124 1    
   239  120  241 1    
   240  121  122 am   BACKBONE|DICT|INTERRES
   241  121  123 2    
   242  122  242 1    
   243  122  243 1    
   244  124  125 1    
   245  124  244 1    
   246  124  245 1    
   247  125  126 1    
   248  126  246 1    
   249  126  247 1    
@<TRIPOS>SUBSTRUCTURE
     1 UNK         1 GROUP             0       ****    0 ROOT    
