@<TRIPOS>MOLECULE
3R540
247   249    1
SMALL
USER_CHARGES


@<TRIPOS>ATOM
      1 CA         -1.7770  -12.4062  -48.3841 C.3       0 UNK        -0.1800 
      2 C          -0.2766  -12.3237  -48.6276 C.2       0 UNK         0.5000 
      3 O           0.3314  -11.2963  -48.3271 O.2       0 UNK        -0.5000 
      4 N           0.3064  -13.3970  -49.1787 N.am      1 UNK        -0.5000 
      5 CA          1.7324  -13.6053  -49.4547 C.3       1 UNK         0.1400 
      6 C6          1.9556  -15.0362  -49.9970 C.3       23 UNK        -0.0398 
      7 S7          3.6537  -15.3691  -50.5758 S.3       23 UNK        -0.2404 
      8 C8          4.1136  -16.7701  -49.4965 C.3       23 UNK        -0.0205 
      9 C9          3.3377  -18.0742  -49.7061 C.ar      23 UNK        -0.0193 
     10 C10         2.5087  -18.3050  -50.8139 C.ar      23 UNK        -0.1150 
     11 C11         1.8211  -19.5138  -50.9534 C.ar      23 UNK        -0.0193 
     12 C12         1.9712  -20.5068  -49.9825 C.ar      23 UNK        -0.1150 
     13 C13         2.8136  -20.3058  -48.8865 C.ar      23 UNK        -0.0193 
     14 C14         3.4882  -19.0883  -48.7546 C.ar      23 UNK        -0.1150 
     15 C15         3.0255  -21.4244  -47.8745 C.3       23 UNK        -0.0205 
     16 S16         2.5956  -20.9573  -46.1666 S.3       23 UNK        -0.2404 
     17 C17         0.8393  -20.4920  -46.3037 C.3       23 UNK        -0.0398 
     18 CA         -0.1260  -21.6984  -46.1733 C.3       11 UNK         0.1400 
     19 N          -1.2890  -21.3851  -45.3408 N.am      11 UNK        -0.5000 
     20 C          -2.2207  -22.2639  -44.9474 C.2       10 UNK         0.5000 
     21 O          -2.1610  -23.4718  -45.1726 O.2       10 UNK        -0.5000 
     22 CA         -3.4538  -21.6827  -44.2344 C.3       10 UNK         0.1400 
     23 CB         -3.2058  -21.5416  -42.7250 C.3       10 UNK        -0.1800 
     24 N          -3.8359  -20.3876  -44.8006 N.am      10 UNK        -0.5000 
     25 C          -4.4163  -20.2390  -46.0001 C.2       9 UNK         0.5000 
     26 O          -4.7620  -21.1854  -46.7074 O.2       9 UNK        -0.5000 
     27 CA         -4.6011  -18.7957  -46.5107 C.3       9 UNK         0.1400 
     28 CB         -5.9057  -18.1894  -45.9740 C.3       9 UNK        -0.1800 
     29 N          -3.4778  -17.9184  -46.1662 N.am      9 UNK        -0.5000 
     30 C          -2.2443  -18.0549  -46.6727 C.2       8 UNK         0.5000 
     31 O          -1.9471  -18.9033  -47.5091 O.2       8 UNK        -0.5000 
     32 CA         -1.1340  -17.1480  -46.1123 C.3       8 UNK         0.1400 
     33 CB         -0.9581  -15.8890  -46.9683 C.3       8 UNK        -0.1800 
     34 N          -1.2929  -16.7845  -44.6997 N.am      8 UNK        -0.5000 
     35 C          -1.3331  -17.6751  -43.6948 C.2       7 UNK         0.5000 
     36 O          -1.3265  -18.8908  -43.8862 O.2       7 UNK        -0.5000 
     37 CA         -1.3712  -17.1602  -42.2433 C.3       7 UNK         0.1400 
     38 CB         -0.2079  -17.7499  -41.4288 C.3       7 UNK        -0.1800 
     39 N          -1.3216  -15.7019  -42.1527 N.am      7 UNK        -0.5000 
     40 C          -2.3972  -14.9022  -42.1450 C.2       6 UNK         0.5000 
     41 O          -3.5550  -15.3187  -42.1924 O.2       6 UNK        -0.5000 
     42 CA         -2.1445  -13.3807  -42.0958 C.3       6 UNK         0.1400 
     43 CB         -2.2832  -12.8594  -40.6575 C.3       6 UNK        -0.1800 
     44 N          -0.8372  -12.9797  -42.6221 N.am      6 UNK        -0.5000 
     45 C          -0.4390  -13.1468  -43.8898 C.2       5 UNK         0.5000 
     46 O          -1.1522  -13.6445  -44.7604 O.2       5 UNK        -0.5000 
     47 CA          1.0015  -12.7322  -44.2454 C.3       5 UNK         0.1400 
     48 CB          1.6861  -11.8377  -43.1889 C.3       5 UNK        -0.1800 
     49 N           1.8382  -13.8956  -44.5435 N.am      5 UNK        -0.5000 
     50 C           2.1023  -14.9498  -43.7569 C.2       4 UNK         0.5000 
     51 O           1.6201  -15.0999  -42.6335 O.2       4 UNK        -0.5000 
     52 CA          3.0858  -16.0040  -44.3018 C.3       4 UNK         0.1400 
     53 CB          2.3431  -17.1120  -45.0589 C.3       4 UNK        -0.1800 
     54 N           4.0698  -15.4070  -45.2051 N.am      4 UNK        -0.5000 
     55 C           5.3866  -15.3273  -44.9728 C.2       3 UNK         0.5000 
     56 O           5.9394  -15.8057  -43.9815 O.2       3 UNK        -0.5000 
     57 CA          6.2395  -14.5787  -46.0196 C.3       3 UNK         0.1400 
     58 CB          6.9076  -15.5695  -46.9845 C.3       3 UNK        -0.1800 
     59 N           5.4765  -13.5915  -46.7887 N.am      3 UNK        -0.5000 
     60 C           4.9859  -12.4568  -46.2716 C.2       2 UNK         0.5000 
     61 O           5.1973  -12.0914  -45.1149 O.2       2 UNK        -0.5000 
     62 CA          4.0965  -11.5828  -47.1767 C.3       2 UNK         0.1400 
     63 CB          4.9065  -10.4029  -47.7356 C.3       2 UNK        -0.1800 
     64 N           3.4222  -12.2587  -48.2918 N.am      2 UNK        -0.5000 
     65 C           2.5978  -13.3126  -48.2096 C.2       1 UNK         0.5000 
     66 O           2.4796  -14.0218  -47.2093 O.2       1 UNK        -0.5000 
     67 C          -0.5514  -22.2446  -47.5530 C.2       11 UNK         0.5000 
     68 O          -0.0210  -23.2637  -47.9887 O.2       11 UNK        -0.5000 
     69 N          -1.5425  -21.5988  -48.1842 N.am      12 UNK        -0.5000 
     70 CA         -2.1637  -22.0240  -49.4383 C.3       12 UNK         0.1400 
     71 CB         -3.1936  -20.9779  -49.8831 C.3       12 UNK        -0.1800 
     72 C          -2.8313  -23.4050  -49.3319 C.2       12 UNK         0.5000 
     73 O          -2.6797  -24.2259  -50.2371 O.2       12 UNK        -0.5000 
     74 N          -3.5332  -23.6544  -48.2178 N.am      13 UNK        -0.5000 
     75 CA         -4.1305  -24.9504  -47.8997 C.3       13 UNK         0.1400 
     76 CB         -5.0496  -24.8175  -46.6770 C.3       13 UNK        -0.1800 
     77 C          -3.0730  -26.0533  -47.7040 C.2       13 UNK         0.5000 
     78 O          -3.2206  -27.1352  -48.2727 O.2       13 UNK        -0.5000 
     79 N          -2.0019  -25.7449  -46.9588 N.am      14 UNK        -0.5000 
     80 CA         -0.8534  -26.6287  -46.7356 C.3       14 UNK         0.1400 
     81 CB          0.0664  -26.0125  -45.6706 C.3       14 UNK        -0.1800 
     82 C          -0.0658  -26.9404  -48.0243 C.2       14 UNK         0.5000 
     83 O           0.3793  -28.0738  -48.2072 O.2       14 UNK        -0.5000 
     84 N           0.0577  -25.9419  -48.9085 N.am      15 UNK        -0.5000 
     85 CA          0.6731  -26.0434  -50.2341 C.3       15 UNK         0.1400 
     86 CB          1.0192  -24.6273  -50.7255 C.3       15 UNK        -0.1800 
     87 C          -0.2019  -26.7749  -51.2750 C.2       15 UNK         0.5000 
     88 O           0.2727  -27.0189  -52.3849 O.2       15 UNK        -0.5000 
     89 N          -1.4544  -27.0936  -50.9141 N.am      16 UNK        -0.5000 
     90 CA         -2.4900  -27.7358  -51.7308 C.3       16 UNK         0.1400 
     91 CB         -2.0560  -29.1436  -52.1903 C.3       16 UNK        -0.1800 
     92 C          -3.0043  -26.8523  -52.8882 C.2       16 UNK         0.5000 
     93 O          -3.5692  -27.3713  -53.8525 O.2       16 UNK        -0.5000 
     94 N          -2.8444  -25.5290  -52.7543 N.am      17 UNK        -0.5000 
     95 CA         -3.4553  -24.5199  -53.6211 C.3       17 UNK         0.1400 
     96 CB         -2.6093  -23.2366  -53.5683 C.3       17 UNK        -0.1800 
     97 C          -4.9133  -24.2251  -53.2122 C.2       17 UNK         0.5000 
     98 O          -5.6797  -23.7384  -54.0440 O.2       17 UNK        -0.5000 
     99 N          -5.2497  -24.5451  -51.9509 N.am      18 UNK        -0.5000 
    100 CA        -6.5000  -24.2959  -51.2249 C.3       18 UNK         0.1400 
    101 CB        -7.7372  -24.7911  -51.9996 C.3       18 UNK        -0.1800 
    102 C         -6.6419  -22.8231  -50.8020 C.2       18 UNK         0.5000 
    103 O         -6.1107  -21.9275  -51.4570 O.2       18 UNK        -0.5000 
    104 N         -7.3530  -22.5954  -49.6925 N.am      19 UNK        -0.5000 
    105 CA        -7.6126  -21.2597  -49.1583 C.3       19 UNK         0.1400 
    106 CB        -8.1163  -21.3973  -47.7129 C.3       19 UNK        -0.1800 
    107 C         -8.6514  -20.4979  -50.0185 C.2       19 UNK         0.5000 
    108 O         -9.5671  -21.1340  -50.5425 O.2       19 UNK        -0.5000 
    109 N         -8.5881  -19.1628  -50.1331 N.am      20 UNK        -0.5000 
    110 CA        -7.5152  -18.2851  -49.6627 C.3       20 UNK         0.1400 
    111 CB        -8.0608  -16.8615  -49.4763 C.3       20 UNK        -0.1800 
    112 C         -6.3188  -18.2862  -50.6294 C.2       20 UNK         0.5000 
    113 O         -5.1860  -18.4147  -50.1701 O.2       20 UNK        -0.5000 
    114 N         -6.6001  -18.1557  -51.9364 N.am      21 UNK        -0.5000 
    115 CA        -5.6496  -18.1052  -53.0554 C.3       21 UNK         0.1400 
    116 CB        -5.1421  -19.5235  -53.3922 C.3       21 UNK        -0.1800 
    117 C         -4.5185  -17.0786  -52.8245 C.2       21 UNK         0.5000 
    118 O         -4.7831  -15.8756  -52.8537 O.2       21 UNK        -0.5000 
    119 N         -3.2964  -17.5689  -52.5884 N.am      22 UNK        -0.5000 
    120 CA        -2.1123  -16.7871  -52.2049 C.3       22 UNK         0.1400 
    121 C         -2.1422  -16.2040  -50.7614 C.2       22 UNK         0.5000 
    122 N         -3.0712  -16.5817  -49.8935 N.am      22 UNK        -0.7600 
    123 O         -1.3146  -15.3616  -50.4303 O.2       22 UNK        -0.5000 
    124 C124       -0.7954  -17.5585  -52.4967 C.3       23 UNK        -0.0398 
    125 S125       -0.7816  -19.2757  -51.8698 S.3       23 UNK        -0.2404 
    126 C126        0.9419  -19.7683  -52.1682 C.3       23 UNK        -0.0205 
    127 H127       -1.9831  -12.3685  -47.3142 H         1 UNK         0.0600 
    128 H128       -2.2021  -13.3294  -48.7783 H         1 UNK         0.0600 
    129 H129       -2.2838  -11.5681  -48.8620 H         1 UNK         0.0600 
    130 H130       -0.2936  -14.1710  -49.4588 H         1 UNK         0.3000 
    131 H131        2.0043  -12.8999  -50.2421 H         1 UNK         0.0600 
    132 H132        1.3008  -15.2049  -50.8520 H         1 UNK         0.0800 
    133 H133        1.6592  -15.7745  -49.2492 H         1 UNK         0.0800 
    134 H134        3.9980  -16.4519  -48.4591 H         1 UNK         0.0800 
    135 H135        5.1740  -16.9777  -49.6448 H         1 UNK         0.0800 
    136 H136        2.3944  -17.5534  -51.5801 H         1 UNK         0.1150 
    137 H137        1.4454  -21.4452  -50.0929 H         1 UNK         0.1150 
    138 H138        4.1402  -18.9339  -47.9059 H         1 UNK         0.1150 
    139 H139        2.4620  -22.3154  -48.1528 H         1 UNK         0.0800 
    140 H140        4.0761  -21.7166  -47.8979 H         1 UNK         0.0800 
    141 H141        0.6647  -19.9090  -47.2099 H         1 UNK         0.0800 
    142 H142        0.6713  -19.7963  -45.4818 H         1 UNK         0.0800 
    143 H143        0.3945  -22.5075  -45.6564 H         1 UNK         0.0600 
    144 H144       -1.3925  -20.4198  -45.0429 H         1 UNK         0.3000 
    145 H145       -4.2823  -22.3802  -44.3757 H         1 UNK         0.0600 
    146 H146       -4.0887  -21.1560  -42.2150 H         1 UNK         0.0600 
    147 H147       -2.9701  -22.5090  -42.2800 H         1 UNK         0.0600 
    148 H148       -2.3735  -20.8722  -42.5075 H         1 UNK         0.0600 
    149 H149       -3.5164  -19.5665  -44.3067 H         1 UNK         0.3000 
    150 H150       -4.6707  -18.8440  -47.5988 H         1 UNK         0.0600 
    151 H151       -6.7577  -18.8320  -46.1968 H         1 UNK         0.0600 
    152 H152       -6.1039  -17.2185  -46.4285 H         1 UNK         0.0600 
    153 H153       -5.8725  -18.0545  -44.8922 H         1 UNK         0.0600 
    154 H154       -3.6421  -17.2041  -45.4720 H         1 UNK         0.3000 
    155 H155       -0.2107  -17.7200  -46.1920 H         1 UNK         0.0600 
    156 H156       -0.1140  -15.2899  -46.6265 H         1 UNK         0.0600 
    157 H157       -0.7534  -16.1585  -48.0035 H         1 UNK         0.0600 
    158 H158       -1.8481  -15.2595  -46.9527 H         1 UNK         0.0600 
    159 H159       -1.3134  -15.7938  -44.4874 H         1 UNK         0.3000 
    160 H160       -2.3011  -17.5221  -41.8001 H         1 UNK         0.0600 
    161 H161       -0.2214  -17.3876  -40.4008 H         1 UNK         0.0600 
    162 H162        0.7599  -17.4963  -41.8617 H         1 UNK         0.0600 
    163 H163       -0.2705  -18.8382  -41.3880 H         1 UNK         0.0600 
    164 H164       -0.3955  -15.2858  -42.1477 H         1 UNK         0.3000 
    165 H165       -2.9117  -12.9033  -42.7089 H         1 UNK         0.0600 
    166 H166       -2.1899  -11.7738  -40.6198 H         1 UNK         0.0600 
    167 H167       -3.2587  -13.1147  -40.2413 H         1 UNK         0.0600 
    168 H168       -1.5241  -13.2859  -40.0006 H         1 UNK         0.0600 
    169 H169       -0.1810  -12.5932  -41.9593 H         1 UNK         0.3000 
    170 H170        0.9326  -12.1581  -45.1709 H         1 UNK         0.0600 
    171 H171        1.0959  -10.9428  -42.9875 H         1 UNK         0.0600 
    172 H172        1.8425  -12.3570  -42.2429 H         1 UNK         0.0600 
    173 H173        2.6621  -11.5038  -43.5422 H         1 UNK         0.0600 
    174 H174        2.1864  -13.9238  -45.4997 H         1 UNK         0.3000 
    175 H175        3.5787  -16.4570  -43.4394 H         1 UNK         0.0600 
    176 H176        1.8635  -16.7243  -45.9576 H         1 UNK         0.0600 
    177 H177        3.0278  -17.9027  -45.3656 H         1 UNK         0.0600 
    178 H178        1.5786  -17.5712  -44.4326 H         1 UNK         0.0600 
    179 H179        3.6973  -14.9588  -46.0360 H         1 UNK         0.3000 
    180 H180        7.0289  -14.0500  -45.4810 H         1 UNK         0.0600 
    181 H181        6.1728  -16.1593  -47.5300 H         1 UNK         0.0600 
    182 H182        7.5467  -16.2677  -46.4425 H         1 UNK         0.0600 
    183 H183        7.5349  -15.0538  -47.7117 H         1 UNK         0.0600 
    184 H184        5.2595  -13.8180  -47.7482 H         1 UNK         0.3000 
    185 H185        3.3094  -11.1773  -46.5375 H         1 UNK         0.0600 
    186 H186        5.3998   -9.8495  -46.9352 H         1 UNK         0.0600 
    187 H187        5.6801  -10.7399  -48.4268 H         1 UNK         0.0600 
    188 H188        4.2651   -9.6981  -48.2652 H         1 UNK         0.0600 
    189 H189        3.4549  -11.7616  -49.1700 H         1 UNK         0.3000 
    190 H190       -1.8687  -20.7137  -47.8019 H         1 UNK         0.3000 
    191 H191       -1.3779  -22.0786  -50.1939 H         1 UNK         0.0600 
    192 H192       -4.0689  -20.9600  -49.2347 H         1 UNK         0.0600 
    193 H193       -3.5431  -21.1918  -50.8921 H         1 UNK         0.0600 
    194 H194       -2.7735  -19.9729  -49.8889 H         1 UNK         0.0600 
    195 H195       -3.6474  -22.9125  -47.5374 H         1 UNK         0.3000 
    196 H196       -4.7495  -25.2449  -48.7477 H         1 UNK         0.0600 
    197 H197       -5.5556  -25.7605  -46.4671 H         1 UNK         0.0600 
    198 H198       -5.8195  -24.0637  -46.8438 H         1 UNK         0.0600 
    199 H199       -4.4974  -24.5371  -45.7808 H         1 UNK         0.0600 
    200 H200       -1.9762  -24.8409  -46.4937 H         1 UNK         0.3000 
    201 H201       -1.2355  -27.5746  -46.3464 H         1 UNK         0.0600 
    202 H202       -0.4679  -25.8508  -44.7342 H         1 UNK         0.0600 
    203 H203        0.4711  -25.0532  -45.9934 H         1 UNK         0.0600 
    204 H204        0.9101  -26.6693  -45.4556 H         1 UNK         0.0600 
    205 H205       -0.2604  -25.0153  -48.6344 H         1 UNK         0.3000 
    206 H206        1.6027  -26.6078  -50.1389 H         1 UNK         0.0600 
    207 H207        1.6921  -24.1228  -50.0320 H         1 UNK         0.0600 
    208 H208        1.5174  -24.6557  -51.6952 H         1 UNK         0.0600 
    209 H209        0.1258  -24.0114  -50.8335 H         1 UNK         0.0600 
    210 H210       -1.7475  -26.8353  -49.9802 H         1 UNK         0.3000 
    211 H211       -3.3435  -27.8661  -51.0641 H         1 UNK         0.0600 
    212 H212       -1.2642  -29.1024  -52.9385 H         1 UNK         0.0600 
    213 H213       -2.8927  -29.6845  -52.6338 H         1 UNK         0.0600 
    214 H214       -1.6959  -29.7386  -51.3510 H         1 UNK         0.0600 
    215 H215       -2.4192  -25.1808  -51.8997 H         1 UNK         0.3000 
    216 H216       -3.4607  -24.8836  -54.6507 H         1 UNK         0.0600 
    217 H217       -3.0168  -22.4736  -54.2327 H         1 UNK         0.0600 
    218 H218       -1.5826  -23.4272  -53.8810 H         1 UNK         0.0600 
    219 H219       -2.5800  -22.8113  -52.5652 H         1 UNK         0.0600 
    220 H220       -4.4866  -24.8698  -51.3719 H         1 UNK         0.3000 
    221 H221       -6.4297  -24.8909  -50.3142 H         1 UNK         0.0600 
    222 H222       -7.9520  -24.1695  -52.8690 H         1 UNK         0.0600 
    223 H223       -7.6066  -25.8179  -52.3414 H         1 UNK         0.0600 
    224 H224       -8.6244  -24.7694  -51.3659 H         1 UNK         0.0600 
    225 H225       -7.8053  -23.3647  -49.2214 H         1 UNK         0.3000 
    226 H226       -6.6577  -20.7341  -49.1419 H         1 UNK         0.0600 
    227 H227       -7.3843  -21.9063  -47.0858 H         1 UNK         0.0600 
    228 H228       -8.3015  -20.4198  -47.2673 H         1 UNK         0.0600 
    229 H229       -9.0493  -21.9601  -47.6636 H         1 UNK         0.0600 
    230 H230       -9.3180  -18.7072  -50.6599 H         1 UNK         0.3000 
    231 H231       -7.1676  -18.6183  -48.6843 H         1 UNK         0.0600 
    232 H232       -8.8623  -16.8415  -48.7376 H         1 UNK         0.0600 
    233 H233       -7.2782  -16.1886  -49.1226 H         1 UNK         0.0600 
    234 H234       -8.4525  -16.4486  -50.4067 H         1 UNK         0.0600 
    235 H235       -7.5691  -18.0456  -52.1959 H         1 UNK         0.3000 
    236 H236       -6.2099  -17.7472  -53.9202 H         1 UNK         0.0600 
    237 H237       -4.4672  -19.5113  -54.2489 H         1 UNK         0.0600 
    238 H238       -4.6120  -19.9768  -52.5557 H         1 UNK         0.0600 
    239 H239       -5.9713  -20.1833  -53.6478 H         1 UNK         0.0600 
    240 H240       -3.1805  -18.5707  -52.5388 H         1 UNK         0.3000 
    241 H241       -2.1016  -15.9076  -52.8513 H         1 UNK         0.0600 
    242 H242       -3.7588  -17.2945  -50.1298 H         1 UNK         0.3800 
    243 H243       -3.0789  -16.1720  -48.9775 H         1 UNK         0.3800 
    244 H244       -0.6446  -17.6055  -53.5759 H         1 UNK         0.0800 
    245 H245        0.0687  -17.0218  -52.1031 H         1 UNK         0.0800 
    246 H246        0.9594  -20.8309  -52.4152 H         1 UNK         0.0800 
    247 H247        1.3362  -19.2501  -53.0436 H         1 UNK         0.0800 
@<TRIPOS>BOND
     1    1    2 1    
     2    1  127 1    
     3    1  128 1    
     4    1  129 1    
     5    2    3 2    
     6    2    4 am   BACKBONE|DICT|INTERRES
     7    4    5 1    
     8    4  130 1    
     9    5    6 1    
    10    5   65 1    
    11    5  131 1    
    12    6    7 1    
    13    6  132 1    
    14    6  133 1    
    15    7    8 1    
    16    8    9 1    
    17    8  134 1    
    18    8  135 1    
    19    9   10 ar   
    20    9   14 ar   
    21   10   11 ar   
    22   10  136 1    
    23   11   12 ar   
    24   11  126 1    
    25   12   13 ar   
    26   12  137 1    
    27   13   14 ar   
    28   13   15 1    
    29   14  138 1    
    30   15   16 1    
    31   15  139 1    
    32   15  140 1    
    33   16   17 1    
    34   17   18 1    
    35   17  141 1    
    36   17  142 1    
    37   18   19 1    
    38   18   67 1    
    39   18  143 1    
    40   19   20 am   BACKBONE|DICT|INTERRES
    41   19  144 1    
    42   20   21 2    
    43   20   22 1    
    44   22   23 1    
    45   22   24 1    
    46   22  145 1    
    47   23  146 1    
    48   23  147 1    
    49   23  148 1    
    50   24   25 am   BACKBONE|DICT|INTERRES
    51   24  149 1    
    52   25   26 2    
    53   25   27 1    
    54   27   28 1    
    55   27   29 1    
    56   27  150 1    
    57   28  151 1    
    58   28  152 1    
    59   28  153 1    
    60   29   30 am   BACKBONE|DICT|INTERRES
    61   29  154 1    
    62   30   31 2    
    63   30   32 1    
    64   32   33 1    
    65   32   34 1    
    66   32  155 1    
    67   33  156 1    
    68   33  157 1    
    69   33  158 1    
    70   34   35 am   BACKBONE|DICT|INTERRES
    71   34  159 1    
    72   35   36 2    
    73   35   37 1    
    74   37   38 1    
    75   37   39 1    
    76   37  160 1    
    77   38  161 1    
    78   38  162 1    
    79   38  163 1    
    80   39   40 am   BACKBONE|DICT|INTERRES
    81   39  164 1    
    82   40   41 2    
    83   40   42 1    
    84   42   43 1    
    85   42   44 1    
    86   42  165 1    
    87   43  166 1    
    88   43  167 1    
    89   43  168 1    
    90   44   45 am   BACKBONE|DICT|INTERRES
    91   44  169 1    
    92   45   46 2    
    93   45   47 1    
    94   47   48 1    
    95   47   49 1    
    96   47  170 1    
    97   48  171 1    
    98   48  172 1    
    99   48  173 1    
   100   49   50 am   BACKBONE|DICT|INTERRES
   101   49  174 1    
   102   50   51 2    
   103   50   52 1    
   104   52   53 1    
   105   52   54 1    
   106   52  175 1    
   107   53  176 1    
   108   53  177 1    
   109   53  178 1    
   110   54   55 am   BACKBONE|DICT|INTERRES
   111   54  179 1    
   112   55   56 2    
   113   55   57 1    
   114   57   58 1    
   115   57   59 1    
   116   57  180 1    
   117   58  181 1    
   118   58  182 1    
   119   58  183 1    
   120   59   60 am   BACKBONE|DICT|INTERRES
   121   59  184 1    
   122   60   61 2    
   123   60   62 1    
   124   62   63 1    
   125   62   64 1    
   126   62  185 1    
   127   63  186 1    
   128   63  187 1    
   129   63  188 1    
   130   64   65 am   BACKBONE|DICT|INTERRES
   131   64  189 1    
   132   65   66 2    
   133   67   68 2    
   134   67   69 am   BACKBONE|DICT|INTERRES
   135   69   70 1    
   136   69  190 1    
   137   70   71 1    
   138   70   72 1    
   139   70  191 1    
   140   71  192 1    
   141   71  193 1    
   142   71  194 1    
   143   72   73 2    
   144   72   74 am   BACKBONE|DICT|INTERRES
   145   74   75 1    
   146   74  195 1    
   147   75   76 1    
   148   75   77 1    
   149   75  196 1    
   150   76  197 1    
   151   76  198 1    
   152   76  199 1    
   153   77   78 2    
   154   77   79 am   BACKBONE|DICT|INTERRES
   155   79   80 1    
   156   79  200 1    
   157   80   81 1    
   158   80   82 1    
   159   80  201 1    
   160   81  202 1    
   161   81  203 1    
   162   81  204 1    
   163   82   83 2    
   164   82   84 am   BACKBONE|DICT|INTERRES
   165   84   85 1    
   166   84  205 1    
   167   85   86 1    
   168   85   87 1    
   169   85  206 1    
   170   86  207 1    
   171   86  208 1    
   172   86  209 1    
   173   87   88 2    
   174   87   89 am   BACKBONE|DICT|INTERRES
   175   89   90 1    
   176   89  210 1    
   177   90   91 1    
   178   90   92 1    
   179   90  211 1    
   180   91  212 1    
   181   91  213 1    
   182   91  214 1    
   183   92   93 2    
   184   92   94 am   BACKBONE|DICT|INTERRES
   185   94   95 1    
   186   94  215 1    
   187   95   96 1    
   188   95   97 1    
   189   95  216 1    
   190   96  217 1    
   191   96  218 1    
   192   96  219 1    
   193   97   98 2    
   194   97   99 am   BACKBONE|DICT|INTERRES
   195   99  100 1    
   196   99  220 1    
   197  100  101 1    
   198  100  102 1    
   199  100  221 1    
   200  101  222 1    
   201  101  223 1    
   202  101  224 1    
   203  102  103 2    
   204  102  104 am   BACKBONE|DICT|INTERRES
   205  104  105 1    
   206  104  225 1    
   207  105  106 1    
   208  105  107 1    
   209  105  226 1    
   210  106  227 1    
   211  106  228 1    
   212  106  229 1    
   213  107  108 2    
   214  107  109 am   BACKBONE|DICT|INTERRES
   215  109  110 1    
   216  109  230 1    
   217  110  111 1    
   218  110  112 1    
   219  110  231 1    
   220  111  232 1    
   221  111  233 1    
   222  111  234 1    
   223  112  113 2    
   224  112  114 am   BACKBONE|DICT|INTERRES
   225  114  115 1    
   226  114  235 1    
   227  115  116 1    
   228  115  117 1    
   229  115  236 1    
   230  116  237 1    
   231  116  238 1    
   232  116  239 1    
   233  117  118 2    
   234  117  119 am   BACKBONE|DICT|INTERRES
   235  119  120 1    
   236  119  240 1    
   237  120  121 1    
   238  120  124 1    
   239  120  241 1    
   240  121  122 am   BACKBONE|DICT|INTERRES
   241  121  123 2    
   242  122  242 1    
   243  122  243 1    
   244  124  125 1    
   245  124  244 1    
   246  124  245 1    
   247  125  126 1    
   248  126  246 1    
   249  126  247 1    
@<TRIPOS>SUBSTRUCTURE
     1 UNK         1 GROUP             0       ****    0 ROOT    
