@<TRIPOS>MOLECULE
3R540
247   249    1
SMALL
USER_CHARGES


@<TRIPOS>ATOM
      1 CA         -1.6131  -12.4792  -44.3759 C.3       0 UNK        -0.1800 
      2 C          -0.5368  -12.6593  -45.4365 C.2       0 UNK         0.5000 
      3 O           0.3059  -13.5467  -45.3094 O.2       0 UNK        -0.5000 
      4 N          -0.5831  -11.8333  -46.4906 N.am      1 UNK        -0.5000 
      5 CA          0.3272  -11.8451  -47.6456 C.3       1 UNK         0.1400 
      6 C6          0.2313  -13.1381  -48.5026 C.3       23 UNK        -0.0398 
      7 S7         -1.4229  -13.3096  -49.2640 S.3       23 UNK        -0.2404 
      8 C8         -2.2248  -14.5427  -48.1911 C.3       23 UNK        -0.0205 
      9 C9         -2.1886  -15.9353  -48.7988 C.ar      23 UNK        -0.0193 
     10 C10        -3.3413  -16.4892  -49.3643 C.ar      23 UNK        -0.1150 
     11 C11        -3.3236  -17.7853  -49.8882 C.ar      23 UNK        -0.0193 
     12 C12        -2.1394  -18.5263  -49.8485 C.ar      23 UNK        -0.1150 
     13 C13        -0.9824  -17.9857  -49.2808 C.ar      23 UNK        -0.0193 
     14 C14        -1.0120  -16.6865  -48.7658 C.ar      23 UNK        -0.1150 
     15 C15         0.2916  -18.8118  -49.2035 C.3       23 UNK        -0.0205 
     16 S16         0.8220  -19.0256  -47.4755 S.3       23 UNK        -0.2404 
     17 C17         1.4817  -20.7232  -47.4739 C.3       23 UNK        -0.0398 
     18 CA          0.5424  -21.7590  -46.8119 C.3       11 UNK         0.1400 
     19 N           0.2608  -21.4739  -45.4025 N.am      11 UNK        -0.5000 
     20 C          -0.1943  -22.3959  -44.5432 C.2       10 UNK         0.5000 
     21 O          -0.4014  -23.5719  -44.8483 O.2       10 UNK        -0.5000 
     22 CA         -0.5163  -21.9114  -43.1208 C.3       10 UNK         0.1400 
     23 CB          0.7681  -21.6412  -42.3221 C.3       10 UNK        -0.1800 
     24 N          -1.3732  -20.7240  -43.1115 N.am      10 UNK        -0.5000 
     25 C          -2.6467  -20.7166  -43.5337 C.2       9 UNK         0.5000 
     26 O          -3.1975  -21.6916  -44.0428 O.2       9 UNK        -0.5000 
     27 CA         -3.4576  -19.4193  -43.3556 C.3       9 UNK         0.1400 
     28 CB         -4.2989  -19.4896  -42.0723 C.3       9 UNK        -0.1800 
     29 N          -2.6432  -18.2068  -43.3226 N.am      9 UNK        -0.5000 
     30 C          -1.9695  -17.7129  -44.3685 C.2       8 UNK         0.5000 
     31 O          -1.9522  -18.2520  -45.4757 O.2       8 UNK        -0.5000 
     32 CA         -1.1880  -16.3984  -44.1459 C.3       8 UNK         0.1400 
     33 CB         -1.2612  -15.8487  -42.7036 C.3       8 UNK        -0.1800 
     34 N           0.2087  -16.4965  -44.5715 N.am      8 UNK        -0.5000 
     35 C           1.1060  -17.4226  -44.2024 C.2       7 UNK         0.5000 
     36 O           0.8596  -18.3270  -43.4017 O.2       7 UNK        -0.5000 
     37 CA          2.5040  -17.3455  -44.8518 C.3       7 UNK         0.1400 
     38 CB          2.6761  -16.1769  -45.8466 C.3       7 UNK        -0.1800 
     39 N           3.5406  -17.2483  -43.8320 N.am      7 UNK        -0.5000 
     40 C           4.1363  -18.2773  -43.2163 C.2       6 UNK         0.5000 
     41 O           3.8921  -19.4599  -43.4586 O.2       6 UNK        -0.5000 
     42 CA          5.2038  -17.9313  -42.1641 C.3       6 UNK         0.1400 
     43 CB          6.5715  -17.7389  -42.8388 C.3       6 UNK        -0.1800 
     44 N           4.8660  -16.7117  -41.4282 N.am      6 UNK        -0.5000 
     45 C           4.5781  -16.6544  -40.1209 C.2       5 UNK         0.5000 
     46 O           4.5829  -17.6340  -39.3741 O.2       5 UNK        -0.5000 
     47 CA          4.2335  -15.2686  -39.5349 C.3       5 UNK         0.1400 
     48 CB          5.4811  -14.6270  -38.9085 C.3       5 UNK        -0.1800 
     49 N           3.6698  -14.3433  -40.5189 N.am      5 UNK        -0.5000 
     50 C           2.4606  -14.4725  -41.0804 C.2       4 UNK         0.5000 
     51 O           1.6520  -15.3423  -40.7583 O.2       4 UNK        -0.5000 
     52 CA          2.0903  -13.4768  -42.1983 C.3       4 UNK         0.1400 
     53 CB          1.1787  -12.3719  -41.6445 C.3       4 UNK        -0.1800 
     54 N           3.2140  -12.8420  -42.8972 N.am      4 UNK        -0.5000 
     55 C           4.2172  -13.4583  -43.5352 C.2       3 UNK         0.5000 
     56 O           4.4317  -14.6668  -43.4453 O.2       3 UNK        -0.5000 
     57 CA          5.1169  -12.5820  -44.4304 C.3       3 UNK         0.1400 
     58 CB          6.0352  -13.4220  -45.3366 C.3       3 UNK        -0.1800 
     59 N           4.3339  -11.6768  -45.2739 N.am      3 UNK        -0.5000 
     60 C           3.8342  -10.4946  -44.9015 C.2       2 UNK         0.5000 
     61 O           3.9371  -10.0477  -43.7586 O.2       2 UNK        -0.5000 
     62 CA          3.0684   -9.6895  -45.9654 C.3       2 UNK         0.1400 
     63 CB          3.9947   -9.2283  -47.1082 C.3       2 UNK        -0.1800 
     64 N           1.8690  -10.3640  -46.4762 N.am      2 UNK        -0.5000 
     65 C           1.7683  -11.4685  -47.2323 C.2       1 UNK         0.5000 
     66 O           2.7294  -12.1500  -47.5952 O.2       1 UNK        -0.5000 
     67 C          -0.7523  -21.9857  -47.6178 C.2       11 UNK         0.5000 
     68 O          -0.7538  -22.8260  -48.5152 O.2       11 UNK        -0.5000 
     69 N          -1.8362  -21.2779  -47.2614 N.am      12 UNK        -0.5000 
     70 CA         -3.1616  -21.4410  -47.8591 C.3       12 UNK         0.1400 
     71 CB         -4.1137  -20.3609  -47.3264 C.3       12 UNK        -0.1800 
     72 C          -3.7399  -22.8455  -47.6206 C.2       12 UNK         0.5000 
     73 O          -4.2485  -23.4540  -48.5618 O.2       12 UNK        -0.5000 
     74 N          -3.6093  -23.3490  -46.3848 N.am      13 UNK        -0.5000 
     75 CA         -3.9956  -24.7032  -45.9929 C.3       13 UNK         0.1400 
     76 CB         -3.9202  -24.8437  -44.4654 C.3       13 UNK        -0.1800 
     77 C          -3.1425  -25.7812  -46.6823 C.2       13 UNK         0.5000 
     78 O          -3.6984  -26.7685  -47.1631 O.2       13 UNK        -0.5000 
     79 N          -1.8214  -25.5588  -46.7573 N.am      14 UNK        -0.5000 
     80 CA         -0.8702  -26.4431  -47.4387 C.3       14 UNK         0.1400 
     81 CB          0.5640  -25.9767  -47.1487 C.3       14 UNK        -0.1800 
     82 C          -1.1176  -26.5353  -48.9575 C.2       14 UNK         0.5000 
     83 O          -1.0255  -27.6227  -49.5275 O.2       14 UNK        -0.5000 
     84 N          -1.4626  -25.3978  -49.5738 N.am      15 UNK        -0.5000 
     85 CA         -1.8463  -25.2774  -50.9804 C.3       15 UNK         0.1400 
     86 CB         -1.7173  -23.8006  -51.3869 C.3       15 UNK        -0.1800 
     87 C          -3.2754  -25.7732  -51.2794 C.2       15 UNK         0.5000 
     88 O          -3.6372  -25.8828  -52.4531 O.2       15 UNK        -0.5000 
     89 N          -4.0756  -25.9970  -50.2245 N.am      16 UNK        -0.5000 
     90 CA         -5.5125  -26.2948  -50.2363 C.3       16 UNK         0.1400 
     91 CB         -5.7618  -27.7176  -50.7761 C.3       16 UNK        -0.1800 
     92 C          -6.3251  -25.2153  -50.9845 C.2       16 UNK         0.5000 
     93 O          -7.2772  -25.5391  -51.6972 O.2       16 UNK        -0.5000 
     94 N          -5.8782  -23.9555  -50.8585 N.am      17 UNK        -0.5000 
     95 CA         -6.2563  -22.7447  -51.5983 C.3       17 UNK         0.1400 
     96 CB         -7.7290  -22.3726  -51.3446 C.3       17 UNK        -0.1800 
     97 C          -5.9448  -22.7946  -53.1105 C.2       17 UNK         0.5000 
     98 O          -5.3951  -21.8319  -53.6477 O.2       17 UNK        -0.5000 
     99 N          -6.2924  -23.9093  -53.7629 N.am      18 UNK        -0.5000 
    100 CA        -6.2296  -24.1467  -55.2023 C.3       18 UNK         0.1400 
    101 CB        -6.7813  -25.5483  -55.5028 C.3       18 UNK        -0.1800 
    102 C         -4.8333  -23.9725  -55.8205 C.2       18 UNK         0.5000 
    103 O         -4.7205  -23.3235  -56.8606 O.2       18 UNK        -0.5000 
    104 N         -3.7897  -24.5141  -55.1735 N.am      19 UNK        -0.5000 
    105 CA        -2.4110  -24.4349  -55.6750 C.3       19 UNK         0.1400 
    106 CB        -1.5412  -25.5005  -54.9920 C.3       19 UNK        -0.1800 
    107 C         -1.7881  -23.0306  -55.5345 C.2       19 UNK         0.5000 
    108 O         -0.8165  -22.7291  -56.2280 O.2       19 UNK        -0.5000 
    109 N         -2.3718  -22.1919  -54.6679 N.am      20 UNK        -0.5000 
    110 CA        -2.0309  -20.7783  -54.5046 C.3       20 UNK         0.1400 
    111 CB        -2.1986  -20.4031  -53.0225 C.3       20 UNK        -0.1800 
    112 C         -2.8904  -19.8668  -55.4064 C.2       20 UNK         0.5000 
    113 O         -2.6550  -18.6585  -55.4333 O.2       20 UNK        -0.5000 
    114 N         -3.8695  -20.4538  -56.1153 N.am      21 UNK        -0.5000 
    115 CA        -4.8900  -19.8113  -56.9500 C.3       21 UNK         0.1400 
    116 CB        -4.2511  -19.0987  -58.1604 C.3       21 UNK        -0.1800 
    117 C         -5.8511  -18.9055  -56.1493 C.2       21 UNK         0.5000 
    118 O         -6.4078  -17.9560  -56.7048 O.2       21 UNK        -0.5000 
    119 N         -6.0353  -19.2168  -54.8613 N.am      22 UNK        -0.5000 
    120 CA        -6.9514  -18.5208  -53.9511 C.3       22 UNK         0.1400 
    121 C         -8.4124  -19.0200  -54.1184 C.2       22 UNK         0.5000 
    122 N         -9.3951  -18.1603  -53.8865 N.am      22 UNK        -0.7600 
    123 O         -8.6687  -20.1843  -54.4182 O.2       22 UNK        -0.5000 
    124 C124       -6.4924  -18.6537  -52.4787 C.3       23 UNK        -0.0398 
    125 S125       -4.8719  -17.8758  -52.1765 S.3       23 UNK        -0.2404 
    126 C126       -4.5934  -18.3961  -50.4589 C.3       23 UNK        -0.0205 
    127 H127       -1.1792  -12.5293  -43.3787 H         1 UNK         0.0600 
    128 H128       -2.1205  -11.5195  -44.4754 H         1 UNK         0.0600 
    129 H129       -2.3581  -13.2697  -44.4617 H         1 UNK         0.0600 
    130 H130       -1.3166  -11.1396  -46.5323 H         1 UNK         0.3000 
    131 H131        0.0021  -11.0216  -48.2838 H         1 UNK         0.0600 
    132 H132        0.9534  -13.1060  -49.3200 H         1 UNK         0.0800 
    133 H133        0.4826  -14.0223  -47.9166 H         1 UNK         0.0800 
    134 H134       -3.2571  -14.2328  -48.0223 H         1 UNK         0.0800 
    135 H135       -1.7551  -14.5643  -47.2083 H         1 UNK         0.0800 
    136 H136       -4.2582  -15.9172  -49.3885 H         1 UNK         0.1150 
    137 H137       -2.1237  -19.5311  -50.2442 H         1 UNK         0.1150 
    138 H138       -0.1213  -16.2712  -48.3176 H         1 UNK         0.1150 
    139 H139        0.1367  -19.7848  -49.6717 H         1 UNK         0.0800 
    140 H140        1.0837  -18.3164  -49.7663 H         1 UNK         0.0800 
    141 H141        1.7346  -21.0284  -48.4906 H         1 UNK         0.0800 
    142 H142        2.4298  -20.7049  -46.9347 H         1 UNK         0.0800 
    143 H143        1.0827  -22.7076  -46.8373 H         1 UNK         0.0600 
    144 H144        0.3749  -20.5185  -45.0927 H         1 UNK         0.3000 
    145 H145       -1.0585  -22.7140  -42.6159 H         1 UNK         0.0600 
    146 H146        0.5417  -21.3430  -41.2984 H         1 UNK         0.0600 
    147 H147        1.3884  -22.5368  -42.2702 H         1 UNK         0.0600 
    148 H148        1.3719  -20.8541  -42.7743 H         1 UNK         0.0600 
    149 H149       -0.9645  -19.8659  -42.7658 H         1 UNK         0.3000 
    150 H150       -4.1416  -19.3399  -44.2024 H         1 UNK         0.0600 
    151 H151       -4.9437  -20.3696  -42.0757 H         1 UNK         0.0600 
    152 H152       -4.9445  -18.6166  -41.9745 H         1 UNK         0.0600 
    153 H153       -3.6712  -19.5463  -41.1820 H         1 UNK         0.0600 
    154 H154       -2.5946  -17.7163  -42.4416 H         1 UNK         0.3000 
    155 H155       -1.6537  -15.6644  -44.8038 H         1 UNK         0.0600 
    156 H156       -0.7328  -14.8994  -42.6247 H         1 UNK         0.0600 
    157 H157       -0.8107  -16.5312  -41.9817 H         1 UNK         0.0600 
    158 H158       -2.2912  -15.6610  -42.3983 H         1 UNK         0.0600 
    159 H159        0.5051  -15.7698  -45.2111 H         1 UNK         0.3000 
    160 H160        2.6514  -18.2737  -45.4050 H         1 UNK         0.0600 
    161 H161        2.5270  -15.2072  -45.3711 H         1 UNK         0.0600 
    162 H162        1.9719  -16.2527  -46.6759 H         1 UNK         0.0600 
    163 H163        3.6766  -16.1784  -46.2793 H         1 UNK         0.0600 
    164 H164        3.8332  -16.3026  -43.5973 H         1 UNK         0.3000 
    165 H165        5.2788  -18.7831  -41.4851 H         1 UNK         0.0600 
    166 H166        6.5633  -16.8967  -43.5323 H         1 UNK         0.0600 
    167 H167        7.3516  -17.5561  -42.0997 H         1 UNK         0.0600 
    168 H168        6.8585  -18.6276  -43.4023 H         1 UNK         0.0600 
    169 H169        4.8051  -15.8600  -41.9772 H         1 UNK         0.3000 
    170 H170        3.4939  -15.4191  -38.7457 H         1 UNK         0.0600 
    171 H171        5.9144  -15.2772  -38.1473 H         1 UNK         0.0600 
    172 H172        6.2531  -14.4360  -39.6551 H         1 UNK         0.0600 
    173 H173        5.2382  -13.6804  -38.4253 H         1 UNK         0.0600 
    174 H174        4.2689  -13.5982  -40.8422 H         1 UNK         0.3000 
    175 H175        1.5325  -14.0400  -42.9482 H         1 UNK         0.0600 
    176 H176        1.6861  -11.7805  -40.8813 H         1 UNK         0.0600 
    177 H177        0.8574  -11.6918  -42.4333 H         1 UNK         0.0600 
    178 H178        0.2809  -12.7944  -41.1914 H         1 UNK         0.0600 
    179 H179        3.1605  -11.8360  -43.0055 H         1 UNK         0.3000 
    180 H180        5.7523  -11.9919  -43.7670 H         1 UNK         0.0600 
    181 H181        5.4595  -14.0562  -46.0122 H         1 UNK         0.0600 
    182 H182        6.6840  -14.0713  -44.7473 H         1 UNK         0.0600 
    183 H183        6.6803  -12.7856  -45.9425 H         1 UNK         0.0600 
    184 H184        4.0935  -12.0081  -46.2039 H         1 UNK         0.3000 
    185 H185        2.7059   -8.7885  -45.4678 H         1 UNK         0.0600 
    186 H186        4.8367   -8.6558  -46.7172 H         1 UNK         0.0600 
    187 H187        4.4067  -10.0659  -47.6714 H         1 UNK         0.0600 
    188 H188        3.4629   -8.5846  -47.8089 H         1 UNK         0.0600 
    189 H189        1.0000   -9.9244  -46.2068 H         1 UNK         0.3000 
    190 H190       -1.7454  -20.5806  -46.5345 H         1 UNK         0.3000 
    191 H191       -3.0579  -21.3039  -48.9368 H         1 UNK         0.0600 
    192 H192       -5.0669  -20.3886  -47.8554 H         1 UNK         0.0600 
    193 H193       -3.6963  -19.3624  -47.4555 H         1 UNK         0.0600 
    194 H194       -4.3250  -20.4970  -46.2666 H         1 UNK         0.0600 
    195 H195       -3.2263  -22.7605  -45.6499 H         1 UNK         0.3000 
    196 H196       -5.0333  -24.8560  -46.2966 H         1 UNK         0.0600 
    197 H197       -4.2022  -25.8488  -44.1495 H         1 UNK         0.0600 
    198 H198       -4.5981  -24.1462  -43.9731 H         1 UNK         0.0600 
    199 H199       -2.9140  -24.6502  -44.0918 H         1 UNK         0.0600 
    200 H200       -1.4373  -24.7379  -46.3024 H         1 UNK         0.3000 
    201 H201       -0.9916  -27.4448  -47.0214 H         1 UNK         0.0600 
    202 H202        0.7609  -25.9454  -46.0769 H         1 UNK         0.0600 
    203 H203        0.7532  -24.9829  -47.5539 H         1 UNK         0.0600 
    204 H204        1.2919  -26.6557  -47.5942 H         1 UNK         0.0600 
    205 H205       -1.4360  -24.5299  -49.0445 H         1 UNK         0.3000 
    206 H206       -1.1565  -25.8697  -51.5844 H         1 UNK         0.0600 
    207 H207       -0.6905  -23.4497  -51.2833 H         1 UNK         0.0600 
    208 H208       -2.0089  -23.6479  -52.4234 H         1 UNK         0.0600 
    209 H209       -2.3543  -23.1593  -50.7766 H         1 UNK         0.0600 
    210 H210       -3.6775  -25.8554  -49.3055 H         1 UNK         0.3000 
    211 H211       -5.8432  -26.2657  -49.1972 H         1 UNK         0.0600 
    212 H212       -5.4991  -27.8018  -51.8311 H         1 UNK         0.0600 
    213 H213       -6.8115  -27.9960  -50.6763 H         1 UNK         0.0600 
    214 H214       -5.1774  -28.4544  -50.2250 H         1 UNK         0.0600 
    215 H215       -5.1233  -23.8194  -50.1894 H         1 UNK         0.3000 
    216 H216       -5.6400  -21.9459  -51.1829 H         1 UNK         0.0600 
    217 H217       -8.4134  -23.1388  -51.7090 H         1 UNK         0.0600 
    218 H218       -7.9938  -21.4437  -51.8496 H         1 UNK         0.0600 
    219 H219       -7.9203  -22.2312  -50.2810 H         1 UNK         0.0600 
    220 H220       -6.7197  -24.6432  -53.2033 H         1 UNK         0.3000 
    221 H221       -6.8877  -23.4146  -55.6746 H         1 UNK         0.0600 
    222 H222       -6.1976  -26.3241  -55.0052 H         1 UNK         0.0600 
    223 H223       -7.8152  -25.6440  -55.1707 H         1 UNK         0.0600 
    224 H224       -6.7633  -25.7565  -56.5734 H         1 UNK         0.0600 
    225 H225       -3.9380  -25.0177  -54.3035 H         1 UNK         0.3000 
    226 H226       -2.4298  -24.6685  -56.7418 H         1 UNK         0.0600 
    227 H227       -1.9784  -26.4938  -55.0944 H         1 UNK         0.0600 
    228 H228       -0.5473  -25.5349  -55.4398 H         1 UNK         0.0600 
    229 H229       -1.4100  -25.2999  -53.9313 H         1 UNK         0.0600 
    230 H230       -3.1909  -22.5107  -54.1678 H         1 UNK         0.3000 
    231 H231       -0.9866  -20.6140  -54.7776 H         1 UNK         0.0600 
    232 H232       -3.2210  -20.5588  -52.6777 H         1 UNK         0.0600 
    233 H233       -1.5365  -20.9928  -52.3888 H         1 UNK         0.0600 
    234 H234       -1.9548  -19.3533  -52.8541 H         1 UNK         0.0600 
    235 H235       -3.9684  -21.4579  -56.0339 H         1 UNK         0.3000 
    236 H236       -5.5065  -20.6224  -57.3396 H         1 UNK         0.0600 
    237 H237       -3.5800  -19.7659  -58.7012 H         1 UNK         0.0600 
    238 H238       -5.0140  -18.7671  -58.8657 H         1 UNK         0.0600 
    239 H239       -3.6816  -18.2189  -57.8603 H         1 UNK         0.0600 
    240 H240       -5.5985  -20.0554  -54.4922 H         1 UNK         0.3000 
    241 H241       -6.9379  -17.4588  -54.2050 H         1 UNK         0.0600 
    242 H242       -9.2137  -17.2003  -53.6358 H         1 UNK         0.3800 
    243 H243      -10.3492  -18.4734  -53.9787 H         1 UNK         0.3800 
    244 H244       -7.2156  -18.1869  -51.8075 H         1 UNK         0.0800 
    245 H245       -6.4341  -19.7028  -52.1906 H         1 UNK         0.0800 
    246 H246       -4.5423  -19.4852  -50.4169 H         1 UNK         0.0800 
    247 H247       -5.4466  -18.1028  -49.8453 H         1 UNK         0.0800 
@<TRIPOS>BOND
     1    1    2 1    
     2    1  127 1    
     3    1  128 1    
     4    1  129 1    
     5    2    3 2    
     6    2    4 am   BACKBONE|DICT|INTERRES
     7    4    5 1    
     8    4  130 1    
     9    5    6 1    
    10    5   65 1    
    11    5  131 1    
    12    6    7 1    
    13    6  132 1    
    14    6  133 1    
    15    7    8 1    
    16    8    9 1    
    17    8  134 1    
    18    8  135 1    
    19    9   10 ar   
    20    9   14 ar   
    21   10   11 ar   
    22   10  136 1    
    23   11   12 ar   
    24   11  126 1    
    25   12   13 ar   
    26   12  137 1    
    27   13   14 ar   
    28   13   15 1    
    29   14  138 1    
    30   15   16 1    
    31   15  139 1    
    32   15  140 1    
    33   16   17 1    
    34   17   18 1    
    35   17  141 1    
    36   17  142 1    
    37   18   19 1    
    38   18   67 1    
    39   18  143 1    
    40   19   20 am   BACKBONE|DICT|INTERRES
    41   19  144 1    
    42   20   21 2    
    43   20   22 1    
    44   22   23 1    
    45   22   24 1    
    46   22  145 1    
    47   23  146 1    
    48   23  147 1    
    49   23  148 1    
    50   24   25 am   BACKBONE|DICT|INTERRES
    51   24  149 1    
    52   25   26 2    
    53   25   27 1    
    54   27   28 1    
    55   27   29 1    
    56   27  150 1    
    57   28  151 1    
    58   28  152 1    
    59   28  153 1    
    60   29   30 am   BACKBONE|DICT|INTERRES
    61   29  154 1    
    62   30   31 2    
    63   30   32 1    
    64   32   33 1    
    65   32   34 1    
    66   32  155 1    
    67   33  156 1    
    68   33  157 1    
    69   33  158 1    
    70   34   35 am   BACKBONE|DICT|INTERRES
    71   34  159 1    
    72   35   36 2    
    73   35   37 1    
    74   37   38 1    
    75   37   39 1    
    76   37  160 1    
    77   38  161 1    
    78   38  162 1    
    79   38  163 1    
    80   39   40 am   BACKBONE|DICT|INTERRES
    81   39  164 1    
    82   40   41 2    
    83   40   42 1    
    84   42   43 1    
    85   42   44 1    
    86   42  165 1    
    87   43  166 1    
    88   43  167 1    
    89   43  168 1    
    90   44   45 am   BACKBONE|DICT|INTERRES
    91   44  169 1    
    92   45   46 2    
    93   45   47 1    
    94   47   48 1    
    95   47   49 1    
    96   47  170 1    
    97   48  171 1    
    98   48  172 1    
    99   48  173 1    
   100   49   50 am   BACKBONE|DICT|INTERRES
   101   49  174 1    
   102   50   51 2    
   103   50   52 1    
   104   52   53 1    
   105   52   54 1    
   106   52  175 1    
   107   53  176 1    
   108   53  177 1    
   109   53  178 1    
   110   54   55 am   BACKBONE|DICT|INTERRES
   111   54  179 1    
   112   55   56 2    
   113   55   57 1    
   114   57   58 1    
   115   57   59 1    
   116   57  180 1    
   117   58  181 1    
   118   58  182 1    
   119   58  183 1    
   120   59   60 am   BACKBONE|DICT|INTERRES
   121   59  184 1    
   122   60   61 2    
   123   60   62 1    
   124   62   63 1    
   125   62   64 1    
   126   62  185 1    
   127   63  186 1    
   128   63  187 1    
   129   63  188 1    
   130   64   65 am   BACKBONE|DICT|INTERRES
   131   64  189 1    
   132   65   66 2    
   133   67   68 2    
   134   67   69 am   BACKBONE|DICT|INTERRES
   135   69   70 1    
   136   69  190 1    
   137   70   71 1    
   138   70   72 1    
   139   70  191 1    
   140   71  192 1    
   141   71  193 1    
   142   71  194 1    
   143   72   73 2    
   144   72   74 am   BACKBONE|DICT|INTERRES
   145   74   75 1    
   146   74  195 1    
   147   75   76 1    
   148   75   77 1    
   149   75  196 1    
   150   76  197 1    
   151   76  198 1    
   152   76  199 1    
   153   77   78 2    
   154   77   79 am   BACKBONE|DICT|INTERRES
   155   79   80 1    
   156   79  200 1    
   157   80   81 1    
   158   80   82 1    
   159   80  201 1    
   160   81  202 1    
   161   81  203 1    
   162   81  204 1    
   163   82   83 2    
   164   82   84 am   BACKBONE|DICT|INTERRES
   165   84   85 1    
   166   84  205 1    
   167   85   86 1    
   168   85   87 1    
   169   85  206 1    
   170   86  207 1    
   171   86  208 1    
   172   86  209 1    
   173   87   88 2    
   174   87   89 am   BACKBONE|DICT|INTERRES
   175   89   90 1    
   176   89  210 1    
   177   90   91 1    
   178   90   92 1    
   179   90  211 1    
   180   91  212 1    
   181   91  213 1    
   182   91  214 1    
   183   92   93 2    
   184   92   94 am   BACKBONE|DICT|INTERRES
   185   94   95 1    
   186   94  215 1    
   187   95   96 1    
   188   95   97 1    
   189   95  216 1    
   190   96  217 1    
   191   96  218 1    
   192   96  219 1    
   193   97   98 2    
   194   97   99 am   BACKBONE|DICT|INTERRES
   195   99  100 1    
   196   99  220 1    
   197  100  101 1    
   198  100  102 1    
   199  100  221 1    
   200  101  222 1    
   201  101  223 1    
   202  101  224 1    
   203  102  103 2    
   204  102  104 am   BACKBONE|DICT|INTERRES
   205  104  105 1    
   206  104  225 1    
   207  105  106 1    
   208  105  107 1    
   209  105  226 1    
   210  106  227 1    
   211  106  228 1    
   212  106  229 1    
   213  107  108 2    
   214  107  109 am   BACKBONE|DICT|INTERRES
   215  109  110 1    
   216  109  230 1    
   217  110  111 1    
   218  110  112 1    
   219  110  231 1    
   220  111  232 1    
   221  111  233 1    
   222  111  234 1    
   223  112  113 2    
   224  112  114 am   BACKBONE|DICT|INTERRES
   225  114  115 1    
   226  114  235 1    
   227  115  116 1    
   228  115  117 1    
   229  115  236 1    
   230  116  237 1    
   231  116  238 1    
   232  116  239 1    
   233  117  118 2    
   234  117  119 am   BACKBONE|DICT|INTERRES
   235  119  120 1    
   236  119  240 1    
   237  120  121 1    
   238  120  124 1    
   239  120  241 1    
   240  121  122 am   BACKBONE|DICT|INTERRES
   241  121  123 2    
   242  122  242 1    
   243  122  243 1    
   244  124  125 1    
   245  124  244 1    
   246  124  245 1    
   247  125  126 1    
   248  126  246 1    
   249  126  247 1    
@<TRIPOS>SUBSTRUCTURE
     1 UNK         1 GROUP             0       ****    0 ROOT    
