@<TRIPOS>MOLECULE
3R540
247   249    1
SMALL
USER_CHARGES


@<TRIPOS>ATOM
      1 CA         -1.9040   -9.7514  -48.9494 C.3       0 UNK        -0.1800 
      2 C          -0.9946  -10.9222  -48.6076 C.2       0 UNK         0.5000 
      3 O          -0.3359  -10.9071  -47.5670 O.2       0 UNK        -0.5000 
      4 N          -0.9702  -11.9541  -49.4627 N.am      1 UNK        -0.5000 
      5 CA         -0.1257  -13.1495  -49.3226 C.3       1 UNK         0.1400 
      6 C6          0.0200  -13.9337  -50.6461 C.3       23 UNK        -0.0398 
      7 S7         -1.5499  -14.5324  -51.3742 S.3       23 UNK        -0.2404 
      8 C8         -1.6310  -16.2727  -50.8251 C.3       23 UNK        -0.0205 
      9 C9         -0.3385  -17.0468  -51.0587 C.ar      23 UNK        -0.0193 
     10 C10         0.2258  -17.1296  -52.3349 C.ar      23 UNK        -0.1150 
     11 C11         1.4527  -17.7725  -52.5309 C.ar      23 UNK        -0.0193 
     12 C12         2.0994  -18.3613  -51.4388 C.ar      23 UNK        -0.1150 
     13 C13         1.5453  -18.2883  -50.1576 C.ar      23 UNK        -0.0193 
     14 C14         0.3233  -17.6349  -49.9779 C.ar      23 UNK        -0.1150 
     15 C15         2.3045  -18.8464  -48.9605 C.3       23 UNK        -0.0205 
     16 S16         2.1776  -20.6571  -48.8173 S.3       23 UNK        -0.2404 
     17 C17         0.4084  -20.9056  -48.4543 C.3       23 UNK        -0.0398 
     18 CA          0.1745  -22.0856  -47.4796 C.3       11 UNK         0.1400 
     19 N           0.7037  -21.8185  -46.1356 N.am      11 UNK        -0.5000 
     20 C           1.0014  -22.7731  -45.2446 C.2       10 UNK         0.5000 
     21 O           0.8276  -23.9746  -45.4483 O.2       10 UNK        -0.5000 
     22 CA          1.5324  -22.2958  -43.8836 C.3       10 UNK         0.1400 
     23 CB          2.8767  -21.5637  -44.0283 C.3       10 UNK        -0.1800 
     24 N           0.5867  -21.4424  -43.1606 N.am      10 UNK        -0.5000 
     25 C          -0.6070  -21.8350  -42.6961 C.2       9 UNK         0.5000 
     26 O          -1.1336  -22.9064  -42.9893 O.2       9 UNK        -0.5000 
     27 CA         -1.3366  -20.8733  -41.7481 C.3       9 UNK         0.1400 
     28 CB         -0.4961  -20.5776  -40.4941 C.3       9 UNK        -0.1800 
     29 N          -1.6468  -19.6195  -42.4258 N.am      9 UNK        -0.5000 
     30 C          -2.8791  -19.2215  -42.7639 C.2       8 UNK         0.5000 
     31 O          -3.8961  -19.8818  -42.5450 O.2       8 UNK        -0.5000 
     32 CA         -2.9849  -17.8434  -43.4492 C.3       8 UNK         0.1400 
     33 CB         -4.4412  -17.3958  -43.6925 C.3       8 UNK        -0.1800 
     34 N          -2.2364  -16.7951  -42.7458 N.am      8 UNK        -0.5000 
     35 C          -2.3949  -16.3931  -41.4748 C.2       7 UNK         0.5000 
     36 O          -3.2078  -16.8783  -40.6859 O.2       7 UNK        -0.5000 
     37 CA         -1.4773  -15.2358  -41.0357 C.3       7 UNK         0.1400 
     38 CB         -1.6316  -14.8432  -39.5505 C.3       7 UNK        -0.1800 
     39 N          -0.0788  -15.4938  -41.3921 N.am      7 UNK        -0.5000 
     40 C           0.7435  -16.4154  -40.8713 C.2       6 UNK         0.5000 
     41 O           0.4485  -17.1622  -39.9373 O.2       6 UNK        -0.5000 
     42 CA          2.1299  -16.5098  -41.5396 C.3       6 UNK         0.1400 
     43 CB          3.0319  -17.6035  -40.9278 C.3       6 UNK        -0.1800 
     44 N           2.0326  -16.6629  -42.9952 N.am      6 UNK        -0.5000 
     45 C           1.4872  -17.6920  -43.6606 C.2       5 UNK         0.5000 
     46 O           0.9676  -18.6569  -43.1014 O.2       5 UNK        -0.5000 
     47 CA          1.4839  -17.6575  -45.2040 C.3       5 UNK         0.1400 
     48 CB          0.0707  -17.9311  -45.7429 C.3       5 UNK        -0.1800 
     49 N           1.9671  -16.3995  -45.7697 N.am      5 UNK        -0.5000 
     50 C           3.2503  -16.0309  -45.8758 C.2       4 UNK         0.5000 
     51 O           4.1990  -16.7629  -45.5959 O.2       4 UNK        -0.5000 
     52 CA          3.5084  -14.5736  -46.3055 C.3       4 UNK         0.1400 
     53 CB          3.6828  -14.4746  -47.8293 C.3       4 UNK        -0.1800 
     54 N           2.4439  -13.6628  -45.8676 N.am      4 UNK        -0.5000 
     55 C           2.1813  -13.3538  -44.5882 C.2       3 UNK         0.5000 
     56 O           2.8366  -13.7769  -43.6358 O.2       3 UNK        -0.5000 
     57 CA          0.9418  -12.4791  -44.3246 C.3       3 UNK         0.1400 
     58 CB          1.2696  -10.9935  -44.5320 C.3       3 UNK        -0.1800 
     59 N          -0.1913  -12.8567  -45.1709 N.am      3 UNK        -0.5000 
     60 C          -0.8663  -14.0116  -45.0553 C.2       2 UNK         0.5000 
     61 O          -0.6399  -14.8457  -44.1790 O.2       2 UNK        -0.5000 
     62 CA         -1.9355  -14.3198  -46.1237 C.3       2 UNK         0.1400 
     63 CB         -3.3056  -13.7922  -45.6765 C.3       2 UNK        -0.1800 
     64 N          -1.6020  -13.7634  -47.4352 N.am      2 UNK        -0.5000 
     65 C          -0.4928  -14.0598  -48.1277 C.2       1 UNK         0.5000 
     66 O           0.2711  -14.9690  -47.8036 O.2       1 UNK        -0.5000 
     67 C          -1.3072  -22.5268  -47.4583 C.2       11 UNK         0.5000 
     68 O          -1.8002  -23.0127  -48.4753 O.2       11 UNK        -0.5000 
     69 N          -1.9933  -22.3724  -46.3168 N.am      12 UNK        -0.5000 
     70 CA         -3.3235  -22.9326  -46.0877 C.3       12 UNK         0.1400 
     71 CB         -4.0411  -22.1446  -44.9833 C.3       12 UNK        -0.1800 
     72 C          -3.2314  -24.4293  -45.7418 C.2       12 UNK         0.5000 
     73 O          -3.9058  -25.2412  -46.3761 O.2       12 UNK        -0.5000 
     74 N          -2.3713  -24.7721  -44.7702 N.am      13 UNK        -0.5000 
     75 CA         -2.1154  -26.1426  -44.3201 C.3       13 UNK         0.1400 
     76 CB         -1.2244  -26.1162  -43.0696 C.3       13 UNK        -0.1800 
     77 C          -1.4876  -27.0314  -45.4072 C.2       13 UNK         0.5000 
     78 O          -1.8041  -28.2205  -45.4752 O.2       13 UNK        -0.5000 
     79 N          -0.6452  -26.4386  -46.2639 N.am      14 UNK        -0.5000 
     80 CA         -0.0389  -27.0658  -47.4387 C.3       14 UNK         0.1400 
     81 CB          1.1850  -26.2376  -47.8675 C.3       14 UNK        -0.1800 
     82 C          -1.0541  -27.2560  -48.5877 C.2       14 UNK         0.5000 
     83 O          -0.8734  -26.6996  -49.6703 O.2       14 UNK        -0.5000 
     84 N          -2.1154  -28.0302  -48.3218 N.am      15 UNK        -0.5000 
     85 CA         -3.1734  -28.4561  -49.2467 C.3       15 UNK         0.1400 
     86 CB         -2.6081  -29.4790  -50.2540 C.3       15 UNK        -0.1800 
     87 C          -3.9211  -27.2939  -49.9388 C.2       15 UNK         0.5000 
     88 O          -4.3381  -27.4339  -51.0902 O.2       15 UNK        -0.5000 
     89 N          -4.0740  -26.1683  -49.2246 N.am      16 UNK        -0.5000 
     90 CA         -4.7004  -24.9193  -49.6697 C.3       16 UNK         0.1400 
     91 CB         -6.2189  -25.1077  -49.8674 C.3       16 UNK        -0.1800 
     92 C          -4.0079  -24.2705  -50.8884 C.2       16 UNK         0.5000 
     93 O          -4.6746  -23.6169  -51.6933 O.2       16 UNK        -0.5000 
     94 N          -2.6778  -24.4258  -50.9828 N.am      17 UNK        -0.5000 
     95 CA         -1.8100  -23.8480  -52.0151 C.3       17 UNK         0.1400 
     96 CB         -0.3636  -24.3082  -51.7796 C.3       17 UNK        -0.1800 
     97 C          -1.8609  -22.3110  -52.1185 C.2       17 UNK         0.5000 
     98 O          -1.5455  -21.7755  -53.1817 O.2       17 UNK        -0.5000 
     99 N          -2.2724  -21.6322  -51.0368 N.am      18 UNK        -0.5000 
    100 CA        -2.5386  -20.1940  -51.0015 C.3       18 UNK         0.1400 
    101 CB        -2.9855  -19.7784  -49.5900 C.3       18 UNK        -0.1800 
    102 C         -3.5976  -19.7585  -52.0286 C.2       18 UNK         0.5000 
    103 O         -3.4097  -18.7403  -52.6913 O.2       18 UNK        -0.5000 
    104 N         -4.6937  -20.5267  -52.1359 N.am      19 UNK        -0.5000 
    105 CA        -5.7932  -20.4199  -53.1119 C.3       19 UNK         0.1400 
    106 CB        -5.2754  -20.8565  -54.4969 C.3       19 UNK        -0.1800 
    107 C         -6.5124  -19.0497  -53.2045 C.2       19 UNK         0.5000 
    108 O         -7.3410  -18.8664  -54.0969 O.2       19 UNK        -0.5000 
    109 N         -6.1535  -18.1040  -52.3231 N.am      20 UNK        -0.5000 
    110 CA        -6.4248  -16.6624  -52.3772 C.3       20 UNK         0.1400 
    111 CB        -7.9323  -16.3776  -52.2135 C.3       20 UNK        -0.1800 
    112 C         -5.8150  -15.9612  -53.6177 C.2       20 UNK         0.5000 
    113 O         -6.2501  -14.8603  -53.9607 O.2       20 UNK        -0.5000 
    114 N         -4.8291  -16.5962  -54.2714 N.am      21 UNK        -0.5000 
    115 CA        -4.2464  -16.1571  -55.5460 C.3       21 UNK         0.1400 
    116 CB        -5.2780  -16.3442  -56.6805 C.3       21 UNK        -0.1800 
    117 C         -2.9237  -16.8651  -55.9127 C.2       21 UNK         0.5000 
    118 O         -2.3564  -16.5427  -56.9575 O.2       21 UNK        -0.5000 
    119 N         -2.4535  -17.8040  -55.0802 N.am      22 UNK        -0.5000 
    120 CA        -1.3568  -18.7523  -55.3243 C.3       22 UNK         0.1400 
    121 C         -1.7707  -19.8691  -56.3236 C.2       22 UNK         0.5000 
    122 N         -1.8932  -21.1073  -55.8685 N.am      22 UNK        -0.7600 
    123 O         -1.9601  -19.6322  -57.5141 O.2       22 UNK        -0.5000 
    124 C124       -0.0164  -18.0745  -55.7204 C.3       23 UNK        -0.0398 
    125 S125        1.4248  -18.9765  -55.0543 S.3       23 UNK        -0.2404 
    126 C126        2.1277  -17.7596  -53.8969 C.3       23 UNK        -0.0205 
    127 H127       -2.4350   -9.9113  -49.8881 H         1 UNK         0.0600 
    128 H128       -1.3180   -8.8370  -49.0410 H         1 UNK         0.0600 
    129 H129       -2.6420   -9.6071  -48.1604 H         1 UNK         0.0600 
    130 H130       -1.5510  -11.9306  -50.2897 H         1 UNK         0.3000 
    131 H131        0.8751  -12.7817  -49.0854 H         1 UNK         0.0600 
    132 H132        0.7333  -14.7485  -50.5236 H         1 UNK         0.0800 
    133 H133        0.4795  -13.2802  -51.3886 H         1 UNK         0.0800 
    134 H134       -2.4430  -16.7636  -51.3589 H         1 UNK         0.0800 
    135 H135       -1.9056  -16.2905  -49.7694 H         1 UNK         0.0800 
    136 H136       -0.2750  -16.6504  -53.1627 H         1 UNK         0.1150 
    137 H137        3.0551  -18.8473  -51.5769 H         1 UNK         0.1150 
    138 H138       -0.0988  -17.5467  -48.9891 H         1 UNK         0.1150 
    139 H139        1.9667  -18.3790  -48.0373 H         1 UNK         0.0800 
    140 H140        3.3585  -18.5808  -49.0540 H         1 UNK         0.0800 
    141 H141       -0.0793  -21.0870  -49.4126 H         1 UNK         0.0800 
    142 H142       -0.0201  -19.9879  -48.0531 H         1 UNK         0.0800 
    143 H143        0.7222  -22.9391  -47.8830 H         1 UNK         0.0600 
    144 H144        0.8761  -20.8552  -45.8951 H         1 UNK         0.3000 
    145 H145        1.7029  -23.1856  -43.2738 H         1 UNK         0.0600 
    146 H146        2.7764  -20.6276  -44.5770 H         1 UNK         0.0600 
    147 H147        3.6025  -22.1804  -44.5601 H         1 UNK         0.0600 
    148 H148        3.3026  -21.3309  -43.0521 H         1 UNK         0.0600 
    149 H149        0.8986  -20.4993  -42.9426 H         1 UNK         0.3000 
    150 H150       -2.2500  -21.3729  -41.4186 H         1 UNK         0.0600 
    151 H151        0.4236  -20.0420  -40.7319 H         1 UNK         0.0600 
    152 H152       -0.2192  -21.4992  -39.9808 H         1 UNK         0.0600 
    153 H153       -1.0561  -19.9657  -39.7866 H         1 UNK         0.0600 
    154 H154       -0.8485  -19.0312  -42.6465 H         1 UNK         0.3000 
    155 H155       -2.5237  -17.9611  -44.4283 H         1 UNK         0.0600 
    156 H156       -4.9913  -17.2788  -42.7584 H         1 UNK         0.0600 
    157 H157       -4.9783  -18.1260  -44.2991 H         1 UNK         0.0600 
    158 H158       -4.4782  -16.4458  -44.2246 H         1 UNK         0.0600 
    159 H159       -1.5449  -16.2947  -43.2967 H         1 UNK         0.3000 
    160 H160       -1.7821  -14.3706  -41.6265 H         1 UNK         0.0600 
    161 H161       -1.4250  -15.6778  -38.8804 H         1 UNK         0.0600 
    162 H162       -2.6485  -14.5081  -39.3437 H         1 UNK         0.0600 
    163 H163       -0.9608  -14.0257  -39.2869 H         1 UNK         0.0600 
    164 H164        0.2361  -15.0063  -42.2220 H         1 UNK         0.3000 
    165 H165        2.6194  -15.5505  -41.3650 H         1 UNK         0.0600 
    166 H166        3.2015  -17.4175  -39.8667 H         1 UNK         0.0600 
    167 H167        2.5914  -18.5968  -41.0163 H         1 UNK         0.0600 
    168 H168        4.0075  -17.6255  -41.4133 H         1 UNK         0.0600 
    169 H169        2.4016  -15.8878  -43.5321 H         1 UNK         0.3000 
    170 H170        2.1386  -18.4623  -45.5422 H         1 UNK         0.0600 
    171 H171        0.0499  -17.9279  -46.8286 H         1 UNK         0.0600 
    172 H172       -0.3067  -18.8997  -45.4135 H         1 UNK         0.0600 
    173 H173       -0.6298  -17.1704  -45.4077 H         1 UNK         0.0600 
    174 H174        1.2611  -15.7481  -46.0925 H         1 UNK         0.3000 
    175 H175        4.4396  -14.2502  -45.8357 H         1 UNK         0.0600 
    176 H176        4.5258  -15.0817  -48.1616 H         1 UNK         0.0600 
    177 H177        2.8019  -14.8255  -48.3663 H         1 UNK         0.0600 
    178 H178        3.8801  -13.4485  -48.1397 H         1 UNK         0.0600 
    179 H179        1.8312  -13.3053  -46.5846 H         1 UNK         0.3000 
    180 H180        0.6487  -12.6187  -43.2818 H         1 UNK         0.0600 
    181 H181        1.5750  -10.7861  -45.5583 H         1 UNK         0.0600 
    182 H182        2.0831  -10.6786  -43.8773 H         1 UNK         0.0600 
    183 H183        0.4081  -10.3647  -44.3064 H         1 UNK         0.0600 
    184 H184       -0.4178  -12.2244  -45.9313 H         1 UNK         0.3000 
    185 H185       -2.0027  -15.4041  -46.2267 H         1 UNK         0.0600 
    186 H186       -3.5748  -14.1850  -44.6951 H         1 UNK         0.0600 
    187 H187       -3.3148  -12.7037  -45.6071 H         1 UNK         0.0600 
    188 H188       -4.0895  -14.0918  -46.3723 H         1 UNK         0.0600 
    189 H189       -2.1753  -13.0017  -47.7667 H         1 UNK         0.3000 
    190 H190       -1.5134  -21.9921  -45.5153 H         1 UNK         0.3000 
    191 H191       -3.9153  -22.8292  -46.9992 H         1 UNK         0.0600 
    192 H192       -4.1288  -21.0901  -45.2452 H         1 UNK         0.0600 
    193 H193       -5.0512  -22.5254  -44.8281 H         1 UNK         0.0600 
    194 H194       -3.5192  -22.2099  -44.0290 H         1 UNK         0.0600 
    195 H195       -1.8654  -24.0444  -44.2708 H         1 UNK         0.3000 
    196 H196       -3.0745  -26.5866  -44.0459 H         1 UNK         0.0600 
    197 H197       -0.2634  -25.6412  -43.2723 H         1 UNK         0.0600 
    198 H198       -1.0242  -27.1257  -42.7083 H         1 UNK         0.0600 
    199 H199       -1.7028  -25.5694  -42.2569 H         1 UNK         0.0600 
    200 H200       -0.3948  -25.4701  -46.0924 H         1 UNK         0.3000 
    201 H201        0.3176  -28.0582  -47.1555 H         1 UNK         0.0600 
    202 H202        0.8981  -25.2357  -48.1854 H         1 UNK         0.0600 
    203 H203        1.9017  -26.1386  -47.0521 H         1 UNK         0.0600 
    204 H204        1.7046  -26.7102  -48.7018 H         1 UNK         0.0600 
    205 H205       -2.1905  -28.3824  -47.3714 H         1 UNK         0.3000 
    206 H206       -3.9186  -28.9701  -48.6384 H         1 UNK         0.0600 
    207 H207       -2.1088  -30.3019  -49.7425 H         1 UNK         0.0600 
    208 H208       -3.4019  -29.9133  -50.8628 H         1 UNK         0.0600 
    209 H209       -1.8881  -29.0196  -50.9323 H         1 UNK         0.0600 
    210 H210       -3.7179  -26.1483  -48.2750 H         1 UNK         0.3000 
    211 H211       -4.5679  -24.2114  -48.8520 H         1 UNK         0.0600 
    212 H212       -6.6798  -25.5433  -48.9810 H         1 UNK         0.0600 
    213 H213       -6.7120  -24.1523  -50.0503 H         1 UNK         0.0600 
    214 H214       -6.4401  -25.7565  -50.7152 H         1 UNK         0.0600 
    215 H215       -2.2098  -24.9808  -50.2761 H         1 UNK         0.3000 
    216 H216       -2.1427  -24.2421  -52.9771 H         1 UNK         0.0600 
    217 H217       -0.0164  -24.0425  -50.7800 H         1 UNK         0.0600 
    218 H218        0.3193  -23.8527  -52.4981 H         1 UNK         0.0600 
    219 H219       -0.2723  -25.3881  -51.8931 H         1 UNK         0.0600 
    220 H220       -2.4326  -22.1595  -50.1848 H         1 UNK         0.3000 
    221 H221       -1.6073  -19.6778  -51.2424 H         1 UNK         0.0600 
    222 H222       -3.8841  -20.3118  -49.2775 H         1 UNK         0.0600 
    223 H223       -2.2148  -19.9720  -48.8487 H         1 UNK         0.0600 
    224 H224       -3.2055  -18.7109  -49.5475 H         1 UNK         0.0600 
    225 H225       -4.7228  -21.3662  -51.5702 H         1 UNK         0.3000 
    226 H226       -6.5490  -21.1396  -52.7947 H         1 UNK         0.0600 
    227 H227       -4.7816  -21.8271  -54.4450 H         1 UNK         0.0600 
    228 H228       -6.0908  -20.9475  -55.2152 H         1 UNK         0.0600 
    229 H229       -4.5609  -20.1398  -54.9025 H         1 UNK         0.0600 
    230 H230       -5.4470  -18.3749  -51.6543 H         1 UNK         0.3000 
    231 H231       -5.9150  -16.2313  -51.5146 H         1 UNK         0.0600 
    232 H232       -8.5033  -16.6983  -53.0850 H         1 UNK         0.0600 
    233 H233       -8.1167  -15.3113  -52.0790 H         1 UNK         0.0600 
    234 H234       -8.3376  -16.8876  -51.3396 H         1 UNK         0.0600 
    235 H235       -4.5003  -17.4744  -53.8902 H         1 UNK         0.3000 
    236 H236       -4.0090  -15.0947  -55.4620 H         1 UNK         0.0600 
    237 H237       -5.5841  -17.3874  -56.7682 H         1 UNK         0.0600 
    238 H238       -6.1743  -15.7467  -56.5164 H         1 UNK         0.0600 
    239 H239       -4.8704  -16.0392  -57.6451 H         1 UNK         0.0600 
    240 H240       -2.9392  -17.9924  -54.2078 H         1 UNK         0.3000 
    241 H241       -1.2113  -19.2215  -54.3497 H         1 UNK         0.0600 
    242 H242       -2.1485  -21.8430  -56.5068 H         1 UNK         0.3800 
    243 H243       -1.7332  -21.3289  -54.8852 H         1 UNK         0.3800 
    244 H244        0.0114  -17.0469  -55.3603 H         1 UNK         0.0800 
    245 H245        0.0872  -17.9924  -56.8037 H         1 UNK         0.0800 
    246 H246        2.0792  -16.7581  -54.3266 H         1 UNK         0.0800 
    247 H247        3.1908  -17.9775  -53.7848 H         1 UNK         0.0800 
@<TRIPOS>BOND
     1    1    2 1    
     2    1  127 1    
     3    1  128 1    
     4    1  129 1    
     5    2    3 2    
     6    2    4 am   BACKBONE|DICT|INTERRES
     7    4    5 1    
     8    4  130 1    
     9    5    6 1    
    10    5   65 1    
    11    5  131 1    
    12    6    7 1    
    13    6  132 1    
    14    6  133 1    
    15    7    8 1    
    16    8    9 1    
    17    8  134 1    
    18    8  135 1    
    19    9   10 ar   
    20    9   14 ar   
    21   10   11 ar   
    22   10  136 1    
    23   11   12 ar   
    24   11  126 1    
    25   12   13 ar   
    26   12  137 1    
    27   13   14 ar   
    28   13   15 1    
    29   14  138 1    
    30   15   16 1    
    31   15  139 1    
    32   15  140 1    
    33   16   17 1    
    34   17   18 1    
    35   17  141 1    
    36   17  142 1    
    37   18   19 1    
    38   18   67 1    
    39   18  143 1    
    40   19   20 am   BACKBONE|DICT|INTERRES
    41   19  144 1    
    42   20   21 2    
    43   20   22 1    
    44   22   23 1    
    45   22   24 1    
    46   22  145 1    
    47   23  146 1    
    48   23  147 1    
    49   23  148 1    
    50   24   25 am   BACKBONE|DICT|INTERRES
    51   24  149 1    
    52   25   26 2    
    53   25   27 1    
    54   27   28 1    
    55   27   29 1    
    56   27  150 1    
    57   28  151 1    
    58   28  152 1    
    59   28  153 1    
    60   29   30 am   BACKBONE|DICT|INTERRES
    61   29  154 1    
    62   30   31 2    
    63   30   32 1    
    64   32   33 1    
    65   32   34 1    
    66   32  155 1    
    67   33  156 1    
    68   33  157 1    
    69   33  158 1    
    70   34   35 am   BACKBONE|DICT|INTERRES
    71   34  159 1    
    72   35   36 2    
    73   35   37 1    
    74   37   38 1    
    75   37   39 1    
    76   37  160 1    
    77   38  161 1    
    78   38  162 1    
    79   38  163 1    
    80   39   40 am   BACKBONE|DICT|INTERRES
    81   39  164 1    
    82   40   41 2    
    83   40   42 1    
    84   42   43 1    
    85   42   44 1    
    86   42  165 1    
    87   43  166 1    
    88   43  167 1    
    89   43  168 1    
    90   44   45 am   BACKBONE|DICT|INTERRES
    91   44  169 1    
    92   45   46 2    
    93   45   47 1    
    94   47   48 1    
    95   47   49 1    
    96   47  170 1    
    97   48  171 1    
    98   48  172 1    
    99   48  173 1    
   100   49   50 am   BACKBONE|DICT|INTERRES
   101   49  174 1    
   102   50   51 2    
   103   50   52 1    
   104   52   53 1    
   105   52   54 1    
   106   52  175 1    
   107   53  176 1    
   108   53  177 1    
   109   53  178 1    
   110   54   55 am   BACKBONE|DICT|INTERRES
   111   54  179 1    
   112   55   56 2    
   113   55   57 1    
   114   57   58 1    
   115   57   59 1    
   116   57  180 1    
   117   58  181 1    
   118   58  182 1    
   119   58  183 1    
   120   59   60 am   BACKBONE|DICT|INTERRES
   121   59  184 1    
   122   60   61 2    
   123   60   62 1    
   124   62   63 1    
   125   62   64 1    
   126   62  185 1    
   127   63  186 1    
   128   63  187 1    
   129   63  188 1    
   130   64   65 am   BACKBONE|DICT|INTERRES
   131   64  189 1    
   132   65   66 2    
   133   67   68 2    
   134   67   69 am   BACKBONE|DICT|INTERRES
   135   69   70 1    
   136   69  190 1    
   137   70   71 1    
   138   70   72 1    
   139   70  191 1    
   140   71  192 1    
   141   71  193 1    
   142   71  194 1    
   143   72   73 2    
   144   72   74 am   BACKBONE|DICT|INTERRES
   145   74   75 1    
   146   74  195 1    
   147   75   76 1    
   148   75   77 1    
   149   75  196 1    
   150   76  197 1    
   151   76  198 1    
   152   76  199 1    
   153   77   78 2    
   154   77   79 am   BACKBONE|DICT|INTERRES
   155   79   80 1    
   156   79  200 1    
   157   80   81 1    
   158   80   82 1    
   159   80  201 1    
   160   81  202 1    
   161   81  203 1    
   162   81  204 1    
   163   82   83 2    
   164   82   84 am   BACKBONE|DICT|INTERRES
   165   84   85 1    
   166   84  205 1    
   167   85   86 1    
   168   85   87 1    
   169   85  206 1    
   170   86  207 1    
   171   86  208 1    
   172   86  209 1    
   173   87   88 2    
   174   87   89 am   BACKBONE|DICT|INTERRES
   175   89   90 1    
   176   89  210 1    
   177   90   91 1    
   178   90   92 1    
   179   90  211 1    
   180   91  212 1    
   181   91  213 1    
   182   91  214 1    
   183   92   93 2    
   184   92   94 am   BACKBONE|DICT|INTERRES
   185   94   95 1    
   186   94  215 1    
   187   95   96 1    
   188   95   97 1    
   189   95  216 1    
   190   96  217 1    
   191   96  218 1    
   192   96  219 1    
   193   97   98 2    
   194   97   99 am   BACKBONE|DICT|INTERRES
   195   99  100 1    
   196   99  220 1    
   197  100  101 1    
   198  100  102 1    
   199  100  221 1    
   200  101  222 1    
   201  101  223 1    
   202  101  224 1    
   203  102  103 2    
   204  102  104 am   BACKBONE|DICT|INTERRES
   205  104  105 1    
   206  104  225 1    
   207  105  106 1    
   208  105  107 1    
   209  105  226 1    
   210  106  227 1    
   211  106  228 1    
   212  106  229 1    
   213  107  108 2    
   214  107  109 am   BACKBONE|DICT|INTERRES
   215  109  110 1    
   216  109  230 1    
   217  110  111 1    
   218  110  112 1    
   219  110  231 1    
   220  111  232 1    
   221  111  233 1    
   222  111  234 1    
   223  112  113 2    
   224  112  114 am   BACKBONE|DICT|INTERRES
   225  114  115 1    
   226  114  235 1    
   227  115  116 1    
   228  115  117 1    
   229  115  236 1    
   230  116  237 1    
   231  116  238 1    
   232  116  239 1    
   233  117  118 2    
   234  117  119 am   BACKBONE|DICT|INTERRES
   235  119  120 1    
   236  119  240 1    
   237  120  121 1    
   238  120  124 1    
   239  120  241 1    
   240  121  122 am   BACKBONE|DICT|INTERRES
   241  121  123 2    
   242  122  242 1    
   243  122  243 1    
   244  124  125 1    
   245  124  244 1    
   246  124  245 1    
   247  125  126 1    
   248  126  246 1    
   249  126  247 1    
@<TRIPOS>SUBSTRUCTURE
     1 UNK         1 GROUP             0       ****    0 ROOT    
