@<TRIPOS>MOLECULE
3R540
247   249    1
SMALL
USER_CHARGES


@<TRIPOS>ATOM
      1 CA          2.8392  -16.1772  -51.0671 C.3       0 UNK        -0.1800 
      2 C           2.6222  -15.7087  -49.6359 C.2       0 UNK         0.5000 
      3 O           3.3961  -16.0685  -48.7480 O.2       0 UNK        -0.5000 
      4 N           1.5803  -14.8987  -49.4103 N.am      1 UNK        -0.5000 
      5 CA          1.2279  -14.3056  -48.1186 C.3       1 UNK         0.1400 
      6 C6         -0.2383  -13.8064  -48.0863 C.3       23 UNK        -0.0398 
      7 S7         -1.4345  -15.1664  -47.8926 S.3       23 UNK        -0.2404 
      8 C8         -2.1976  -15.2567  -49.5458 C.3       23 UNK        -0.0205 
      9 C9         -1.4726  -16.1585  -50.5439 C.ar      23 UNK        -0.0193 
     10 C10        -1.5956  -15.8728  -51.9047 C.ar      23 UNK        -0.1150 
     11 C11        -1.0018  -16.6928  -52.8645 C.ar      23 UNK        -0.0193 
     12 C12        -0.2589  -17.8012  -52.4534 C.ar      23 UNK        -0.1150 
     13 C13        -0.1275  -18.1191  -51.0992 C.ar      23 UNK        -0.0193 
     14 C14        -0.7449  -17.2911  -50.1490 C.ar      23 UNK        -0.1150 
     15 C15         0.6948  -19.3612  -50.7401 C.3       23 UNK        -0.0205 
     16 S16         1.0325  -19.6244  -48.9645 S.3       23 UNK        -0.2404 
     17 C17        -0.4545  -20.5361  -48.4281 C.3       23 UNK        -0.0398 
     18 CA         -0.0883  -21.8837  -47.7561 C.3       11 UNK         0.1400 
     19 N           0.4594  -21.6878  -46.4089 N.am      11 UNK        -0.5000 
     20 C           0.9474  -22.6519  -45.6157 C.2       10 UNK         0.5000 
     21 O           1.0507  -23.8299  -45.9544 O.2       10 UNK        -0.5000 
     22 CA          1.3311  -22.2450  -44.1802 C.3       10 UNK         0.1400 
     23 CB          2.6995  -21.5485  -44.1467 C.3       10 UNK        -0.1800 
     24 N           0.3185  -21.3961  -43.5478 N.am      10 UNK        -0.5000 
     25 C          -0.9312  -21.7976  -43.2709 C.2       9 UNK         0.5000 
     26 O          -1.3430  -22.9371  -43.4802 O.2       9 UNK        -0.5000 
     27 CA         -1.9025  -20.7464  -42.7069 C.3       9 UNK         0.1400 
     28 CB         -1.7215  -20.5964  -41.1894 C.3       9 UNK        -0.1800 
     29 N          -1.7638  -19.4434  -43.3551 N.am      9 UNK        -0.5000 
     30 C          -2.0014  -19.2121  -44.6545 C.2       8 UNK         0.5000 
     31 O          -2.4162  -20.0674  -45.4375 O.2       8 UNK        -0.5000 
     32 CA         -1.6500  -17.8066  -45.1780 C.3       8 UNK         0.1400 
     33 CB         -2.7323  -16.7881  -44.7887 C.3       8 UNK        -0.1800 
     34 N          -0.3411  -17.3526  -44.7020 N.am      8 UNK        -0.5000 
     35 C           0.8171  -17.9715  -44.9774 C.2       7 UNK         0.5000 
     36 O           0.9056  -18.9553  -45.7070 O.2       7 UNK        -0.5000 
     37 CA          2.0770  -17.4538  -44.2654 C.3       7 UNK         0.1400 
     38 CB          2.7916  -16.3839  -45.1011 C.3       7 UNK        -0.1800 
     39 N           1.7662  -16.9330  -42.9342 N.am      7 UNK        -0.5000 
     40 C           1.5056  -17.7210  -41.8814 C.2       6 UNK         0.5000 
     41 O           1.5214  -18.9518  -41.9316 O.2       6 UNK        -0.5000 
     42 CA          1.1301  -17.0179  -40.5657 C.3       6 UNK         0.1400 
     43 CB          2.3727  -16.4122  -39.8954 C.3       6 UNK        -0.1800 
     44 N           0.1153  -15.9774  -40.7412 N.am      6 UNK        -0.5000 
     45 C          -1.1581  -16.2122  -41.0887 C.2       5 UNK         0.5000 
     46 O          -1.5976  -17.3260  -41.3678 O.2       5 UNK        -0.5000 
     47 CA         -2.0714  -14.9880  -41.2066 C.3       5 UNK         0.1400 
     48 CB         -2.1539  -14.1825  -39.8966 C.3       5 UNK        -0.1800 
     49 N          -1.5601  -14.1684  -42.2926 N.am      5 UNK        -0.5000 
     50 C          -2.2375  -13.2891  -43.0303 C.2       4 UNK         0.5000 
     51 O          -3.4105  -12.9799  -42.8148 O.2       4 UNK        -0.5000 
     52 CA         -1.4632  -12.6707  -44.2191 C.3       4 UNK         0.1400 
     53 CB         -2.2256  -11.5148  -44.8903 C.3       4 UNK        -0.1800 
     54 N          -0.1054  -12.2118  -43.8920 N.am      4 UNK        -0.5000 
     55 C           0.9522  -12.9900  -43.6325 C.2       3 UNK         0.5000 
     56 O           0.8927  -14.2199  -43.5485 O.2       3 UNK        -0.5000 
     57 CA          2.3128  -12.3038  -43.4870 C.3       3 UNK         0.1400 
     58 CB          3.0096  -12.6971  -42.1743 C.3       3 UNK        -0.1800 
     59 N           3.0979  -12.7646  -44.6202 N.am      3 UNK        -0.5000 
     60 C           3.9288  -12.0285  -45.3650 C.2       2 UNK         0.5000 
     61 O           4.2763  -10.8812  -45.0837 O.2       2 UNK        -0.5000 
     62 CA          4.4153  -12.6832  -46.6751 C.3       2 UNK         0.1400 
     63 CB          5.7093  -13.4756  -46.4362 C.3       2 UNK        -0.1800 
     64 N           3.4087  -13.5746  -47.2627 N.am      2 UNK        -0.5000 
     65 C           2.2180  -13.1834  -47.7369 C.2       1 UNK         0.5000 
     66 O           1.8920  -12.0016  -47.8612 O.2       1 UNK        -0.5000 
     67 C          -1.2886  -22.8535  -47.7451 C.2       11 UNK         0.5000 
     68 O          -1.3179  -23.7932  -48.5417 O.2       11 UNK        -0.5000 
     69 N          -2.2280  -22.6478  -46.8103 N.am      12 UNK        -0.5000 
     70 CA         -3.3808  -23.5227  -46.5943 C.3       12 UNK         0.1400 
     71 CB         -4.3282  -22.8859  -45.5673 C.3       12 UNK        -0.1800 
     72 C          -2.9849  -24.9529  -46.1778 C.2       12 UNK         0.5000 
     73 O          -3.4991  -25.9106  -46.7558 O.2       12 UNK        -0.5000 
     74 N          -2.0512  -25.0774  -45.2232 N.am      13 UNK        -0.5000 
     75 CA         -1.5147  -26.3524  -44.7345 C.3       13 UNK         0.1400 
     76 CB         -0.6168  -26.0994  -43.5144 C.3       13 UNK        -0.1800 
     77 C          -0.7514  -27.1496  -45.8094 C.2       13 UNK         0.5000 
     78 O          -0.8262  -28.3786  -45.8222 O.2       13 UNK        -0.5000 
     79 N          -0.0647  -26.4378  -46.7124 N.am      14 UNK        -0.5000 
     80 CA          0.6222  -26.9920  -47.8808 C.3       14 UNK         0.1400 
     81 CB          1.6407  -25.9576  -48.3884 C.3       14 UNK        -0.1800 
     82 C          -0.3302  -27.4139  -49.0207 C.2       14 UNK         0.5000 
     83 O           0.1398  -27.9891  -50.0032 O.2       14 UNK        -0.5000 
     84 N          -1.6311  -27.1071  -48.8891 N.am      15 UNK        -0.5000 
     85 CA         -2.7011  -27.3020  -49.8743 C.3       15 UNK         0.1400 
     86 CB         -2.9141  -28.7973  -50.1895 C.3       15 UNK        -0.1800 
     87 C          -2.5196  -26.4333  -51.1376 C.2       15 UNK         0.5000 
     88 O          -3.0084  -26.7873  -52.2115 O.2       15 UNK        -0.5000 
     89 N          -1.8471  -25.2894  -50.9740 N.am      16 UNK        -0.5000 
     90 CA         -1.6202  -24.2626  -51.9826 C.3       16 UNK         0.1400 
     91 CB         -0.1109  -23.9559  -52.0201 C.3       16 UNK        -0.1800 
     92 C          -2.4690  -23.0447  -51.5855 C.2       16 UNK         0.5000 
     93 O          -1.9166  -21.9816  -51.3046 O.2       16 UNK        -0.5000 
     94 N          -3.7904  -23.2754  -51.4904 N.am      17 UNK        -0.5000 
     95 CA         -4.8060  -22.4516  -50.8245 C.3       17 UNK         0.1400 
     96 CB         -6.2060  -22.9052  -51.2651 C.3       17 UNK        -0.1800 
     97 C          -4.6354  -20.9359  -51.0190 C.2       17 UNK         0.5000 
     98 O          -4.6842  -20.4560  -52.1554 O.2       17 UNK        -0.5000 
     99 N          -4.4074  -20.2435  -49.8955 N.am      18 UNK        -0.5000 
    100 CA        -4.0510  -18.8321  -49.7875 C.3       18 UNK         0.1400 
    101 CB        -3.9663  -18.4708  -48.2955 C.3       18 UNK        -0.1800 
    102 C         -5.0309  -17.9134  -50.5348 C.2       18 UNK         0.5000 
    103 O         -6.1952  -17.8217  -50.1430 O.2       18 UNK        -0.5000 
    104 N         -4.5508  -17.3105  -51.6309 N.am      19 UNK        -0.5000 
    105 CA        -5.2449  -16.4402  -52.5916 C.3       19 UNK         0.1400 
    106 CB        -5.7951  -15.1780  -51.9012 C.3       19 UNK        -0.1800 
    107 C         -6.3326  -17.1352  -53.4404 C.2       19 UNK         0.5000 
    108 O         -6.5759  -16.7074  -54.5692 O.2       19 UNK        -0.5000 
    109 N         -6.9639  -18.1842  -52.9011 N.am      20 UNK        -0.5000 
    110 CA        -8.0105  -18.9778  -53.5403 C.3       20 UNK         0.1400 
    111 CB        -8.6866  -19.8549  -52.4759 C.3       20 UNK        -0.1800 
    112 C         -7.4969  -19.8440  -54.7042 C.2       20 UNK         0.5000 
    113 O         -8.2322  -20.0386  -55.6736 O.2       20 UNK        -0.5000 
    114 N         -6.2609  -20.3466  -54.5920 N.am      21 UNK        -0.5000 
    115 CA        -5.6132  -21.1771  -55.6079 C.3       21 UNK         0.1400 
    116 CB        -5.7636  -22.6626  -55.2397 C.3       21 UNK        -0.1800 
    117 C         -4.1319  -20.8197  -55.7913 C.2       21 UNK         0.5000 
    118 O         -3.6381  -20.8978  -56.9161 O.2       21 UNK        -0.5000 
    119 N         -3.4460  -20.4628  -54.6963 N.am      22 UNK        -0.5000 
    120 CA        -2.0079  -20.1400  -54.6235 C.3       22 UNK         0.1400 
    121 C         -1.0411  -21.3432  -54.8516 C.2       22 UNK         0.5000 
    122 N         -1.5167  -22.5597  -55.0899 N.am      22 UNK        -0.7600 
    123 O          0.1733  -21.1753  -54.7865 O.2       22 UNK        -0.5000 
    124 C124       -1.5974  -18.9230  -55.5028 C.3       23 UNK        -0.0398 
    125 S125       -2.4914  -17.3846  -55.0945 S.3       23 UNK        -0.2404 
    126 C126       -1.1724  -16.3775  -54.3419 C.3       23 UNK        -0.0205 
    127 H127        2.0013  -15.9103  -51.7116 H         1 UNK         0.0600 
    128 H128        2.9568  -17.2598  -51.0930 H         1 UNK         0.0600 
    129 H129        3.7432  -15.7263  -51.4759 H         1 UNK         0.0600 
    130 H130        0.9792  -14.6492  -50.1820 H         1 UNK         0.3000 
    131 H131        1.3208  -15.0840  -47.3603 H         1 UNK         0.0600 
    132 H132       -0.4028  -13.1473  -47.2320 H         1 UNK         0.0800 
    133 H133       -0.4673  -13.2074  -48.9688 H         1 UNK         0.0800 
    134 H134       -3.2175  -15.6219  -49.4362 H         1 UNK         0.0800 
    135 H135       -2.2947  -14.2473  -49.9480 H         1 UNK         0.0800 
    136 H136       -2.1741  -15.0158  -52.2212 H         1 UNK         0.1150 
    137 H137        0.2152  -18.4302  -53.1933 H         1 UNK         0.1150 
    138 H138       -0.6671  -17.5258  -49.0986 H         1 UNK         0.1150 
    139 H139        0.2100  -20.2458  -51.1559 H         1 UNK         0.0800 
    140 H140        1.6591  -19.2887  -51.2438 H         1 UNK         0.0800 
    141 H141       -1.1082  -20.6843  -49.2869 H         1 UNK         0.0800 
    142 H142       -1.0118  -19.9025  -47.7389 H         1 UNK         0.0800 
    143 H143        0.6881  -22.3651  -48.3547 H         1 UNK         0.0600 
    144 H144        0.4723  -20.7279  -46.0704 H         1 UNK         0.3000 
    145 H145        1.4085  -23.1586  -43.5872 H         1 UNK         0.0600 
    146 H146        2.9758  -21.2668  -43.1304 H         1 UNK         0.0600 
    147 H147        3.4791  -22.2105  -44.5254 H         1 UNK         0.0600 
    148 H148        2.7128  -20.6485  -44.7601 H         1 UNK         0.0600 
    149 H149        0.5900  -20.4484  -43.3171 H         1 UNK         0.3000 
    150 H150       -2.9180  -21.1020  -42.8922 H         1 UNK         0.0600 
    151 H151       -1.8210  -21.5590  -40.6863 H         1 UNK         0.0600 
    152 H152       -2.4745  -19.9304  -40.7679 H         1 UNK         0.0600 
    153 H153       -0.7403  -20.1927  -40.9380 H         1 UNK         0.0600 
    154 H154       -1.4727  -18.6740  -42.7592 H         1 UNK         0.3000 
    155 H155       -1.6044  -17.8562  -46.2677 H         1 UNK         0.0600 
    156 H156       -2.8589  -16.7199  -43.7087 H         1 UNK         0.0600 
    157 H157       -2.4941  -15.7921  -45.1597 H         1 UNK         0.0600 
    158 H158       -3.6966  -17.0695  -45.2133 H         1 UNK         0.0600 
    159 H159       -0.3222  -16.5554  -44.0847 H         1 UNK         0.3000 
    160 H160        2.7655  -18.2939  -44.1541 H         1 UNK         0.0600 
    161 H161        3.6858  -16.0182  -44.5963 H         1 UNK         0.0600 
    162 H162        2.1436  -15.5349  -45.3020 H         1 UNK         0.0600 
    163 H163        3.1029  -16.7923  -46.0634 H         1 UNK         0.0600 
    164 H164        1.6685  -15.9274  -42.8500 H         1 UNK         0.3000 
    165 H165        0.7208  -17.7756  -39.8938 H         1 UNK         0.0600 
    166 H166        2.1292  -15.9959  -38.9178 H         1 UNK         0.0600 
    167 H167        3.1417  -17.1705  -39.7417 H         1 UNK         0.0600 
    168 H168        2.8120  -15.6171  -40.4984 H         1 UNK         0.0600 
    169 H169        0.4005  -15.0307  -40.5395 H         1 UNK         0.3000 
    170 H170       -3.0716  -15.3419  -41.4658 H         1 UNK         0.0600 
    171 H171       -2.8873  -13.3800  -39.9765 H         1 UNK         0.0600 
    172 H172       -1.1975  -13.7303  -39.6327 H         1 UNK         0.0600 
    173 H173       -2.4603  -14.8193  -39.0659 H         1 UNK         0.0600 
    174 H174       -0.6030  -14.3576  -42.5826 H         1 UNK         0.3000 
    175 H175       -1.3701  -13.4673  -44.9600 H         1 UNK         0.0600 
    176 H176       -1.6934  -11.1481  -45.7682 H         1 UNK         0.0600 
    177 H177       -2.3661  -10.6767  -44.2067 H         1 UNK         0.0600 
    178 H178       -3.2124  -11.8362  -45.2262 H         1 UNK         0.0600 
    179 H179        0.0313  -11.2116  -43.9180 H         1 UNK         0.3000 
    180 H180        2.1819  -11.2201  -43.5213 H         1 UNK         0.0600 
    181 H181        3.1894  -13.7712  -42.1173 H         1 UNK         0.0600 
    182 H182        2.4058  -12.4154  -41.3109 H         1 UNK         0.0600 
    183 H183        3.9722  -12.1948  -42.0778 H         1 UNK         0.0600 
    184 H184        2.8605  -13.6909  -44.9439 H         1 UNK         0.3000 
    185 H185        4.6245  -11.8858  -47.3911 H         1 UNK         0.0600 
    186 H186        5.5540  -14.3012  -45.7403 H         1 UNK         0.0600 
    187 H187        6.0949  -13.8904  -47.3678 H         1 UNK         0.0600 
    188 H188        6.4876  -12.8355  -46.0188 H         1 UNK         0.0600 
    189 H189        3.6387  -14.5609  -47.3198 H         1 UNK         0.3000 
    190 H190       -2.1485  -21.8392  -46.1993 H         1 UNK         0.3000 
    191 H191       -3.9169  -23.5968  -47.5424 H         1 UNK         0.0600 
    192 H192       -4.6691  -21.9055  -45.9006 H         1 UNK         0.0600 
    193 H193       -5.2131  -23.5051  -45.4155 H         1 UNK         0.0600 
    194 H194       -3.8460  -22.7586  -44.5982 H         1 UNK         0.0600 
    195 H195       -1.7028  -24.2385  -44.7641 H         1 UNK         0.3000 
    196 H196       -2.3598  -26.9639  -44.4121 H         1 UNK         0.0600 
    197 H197       -0.2135  -27.0344  -43.1234 H         1 UNK         0.0600 
    198 H198       -1.1738  -25.6236  -42.7072 H         1 UNK         0.0600 
    199 H199        0.2270  -25.4555  -43.7642 H         1 UNK         0.0600 
    200 H200        0.0050  -25.4325  -46.5856 H         1 UNK         0.3000 
    201 H201        1.1695  -27.8838  -47.5692 H         1 UNK         0.0600 
    202 H202        2.3607  -25.6996  -47.6118 H         1 UNK         0.0600 
    203 H203        1.1518  -25.0375  -48.7103 H         1 UNK         0.0600 
    204 H204        2.2059  -26.3433  -49.2377 H         1 UNK         0.0600 
    205 H205       -1.9171  -26.6294  -48.0425 H         1 UNK         0.3000 
    206 H206       -3.6118  -26.9398  -49.3957 H         1 UNK         0.0600 
    207 H207       -3.0282  -29.3802  -49.2755 H         1 UNK         0.0600 
    208 H208       -3.8174  -28.9456  -50.7822 H         1 UNK         0.0600 
    209 H209       -2.0827  -29.2177  -50.7555 H         1 UNK         0.0600 
    210 H210       -1.5557  -25.0295  -50.0349 H         1 UNK         0.3000 
    211 H211       -1.9386  -24.5958  -52.9721 H         1 UNK         0.0600 
    212 H212        0.2561  -23.6209  -51.0487 H         1 UNK         0.0600 
    213 H213        0.1166  -23.1728  -52.7427 H         1 UNK         0.0600 
    214 H214        0.4613  -24.8388  -52.3050 H         1 UNK         0.0600 
    215 H215       -4.1061  -24.1915  -51.7730 H         1 UNK         0.3000 
    216 H216       -4.7135  -22.6732  -49.7598 H         1 UNK         0.0600 
    217 H217       -6.9778  -22.3834  -50.6983 H         1 UNK         0.0600 
    218 H218       -6.3505  -23.9725  -51.0973 H         1 UNK         0.0600 
    219 H219       -6.3858  -22.7032  -52.3205 H         1 UNK         0.0600 
    220 H220       -4.4210  -20.7458  -49.0213 H         1 UNK         0.3000 
    221 H221       -3.0590  -18.7239  -50.2264 H         1 UNK         0.0600 
    222 H222       -4.9245  -18.6062  -47.7924 H         1 UNK         0.0600 
    223 H223       -3.2343  -19.0929  -47.7842 H         1 UNK         0.0600 
    224 H224       -3.6656  -17.4350  -48.1479 H         1 UNK         0.0600 
    225 H225       -3.5926  -17.5115  -51.8833 H         1 UNK         0.3000 
    226 H226       -4.4776  -16.1112  -53.2928 H         1 UNK         0.0600 
    227 H227       -5.0110  -14.6553  -51.3533 H         1 UNK         0.0600 
    228 H228       -6.1992  -14.4799  -52.6352 H         1 UNK         0.0600 
    229 H229       -6.5972  -15.4117  -51.2010 H         1 UNK         0.0600 
    230 H230       -6.7274  -18.4214  -51.9441 H         1 UNK         0.3000 
    231 H231       -8.7578  -18.2906  -53.9423 H         1 UNK         0.0600 
    232 H232       -7.9756  -20.5372  -52.0100 H         1 UNK         0.0600 
    233 H233       -9.4843  -20.4573  -52.9126 H         1 UNK         0.0600 
    234 H234       -9.1319  -19.2466  -51.6885 H         1 UNK         0.0600 
    235 H235       -5.7295  -20.1497  -53.7493 H         1 UNK         0.3000 
    236 H236       -6.0928  -21.0144  -56.5755 H         1 UNK         0.0600 
    237 H237       -6.8103  -22.9332  -55.1006 H         1 UNK         0.0600 
    238 H238       -5.3651  -23.3006  -56.0294 H         1 UNK         0.0600 
    239 H239       -5.2267  -22.9054  -54.3225 H         1 UNK         0.0600 
    240 H240       -3.9177  -20.4689  -53.7953 H         1 UNK         0.3000 
    241 H241       -1.8468  -19.8621  -53.5818 H         1 UNK         0.0600 
    242 H242       -0.8711  -23.3156  -55.2522 H         1 UNK         0.3800 
    243 H243       -2.5057  -22.7071  -55.1986 H         1 UNK         0.3800 
    244 H244       -0.5263  -18.7353  -55.4226 H         1 UNK         0.0800 
    245 H245       -1.7661  -19.1394  -56.5579 H         1 UNK         0.0800 
    246 H246       -1.4299  -15.3250  -54.4693 H         1 UNK         0.0800 
    247 H247       -0.2294  -16.5173  -54.8720 H         1 UNK         0.0800 
@<TRIPOS>BOND
     1    1    2 1    
     2    1  127 1    
     3    1  128 1    
     4    1  129 1    
     5    2    3 2    
     6    2    4 am   BACKBONE|DICT|INTERRES
     7    4    5 1    
     8    4  130 1    
     9    5    6 1    
    10    5   65 1    
    11    5  131 1    
    12    6    7 1    
    13    6  132 1    
    14    6  133 1    
    15    7    8 1    
    16    8    9 1    
    17    8  134 1    
    18    8  135 1    
    19    9   10 ar   
    20    9   14 ar   
    21   10   11 ar   
    22   10  136 1    
    23   11   12 ar   
    24   11  126 1    
    25   12   13 ar   
    26   12  137 1    
    27   13   14 ar   
    28   13   15 1    
    29   14  138 1    
    30   15   16 1    
    31   15  139 1    
    32   15  140 1    
    33   16   17 1    
    34   17   18 1    
    35   17  141 1    
    36   17  142 1    
    37   18   19 1    
    38   18   67 1    
    39   18  143 1    
    40   19   20 am   BACKBONE|DICT|INTERRES
    41   19  144 1    
    42   20   21 2    
    43   20   22 1    
    44   22   23 1    
    45   22   24 1    
    46   22  145 1    
    47   23  146 1    
    48   23  147 1    
    49   23  148 1    
    50   24   25 am   BACKBONE|DICT|INTERRES
    51   24  149 1    
    52   25   26 2    
    53   25   27 1    
    54   27   28 1    
    55   27   29 1    
    56   27  150 1    
    57   28  151 1    
    58   28  152 1    
    59   28  153 1    
    60   29   30 am   BACKBONE|DICT|INTERRES
    61   29  154 1    
    62   30   31 2    
    63   30   32 1    
    64   32   33 1    
    65   32   34 1    
    66   32  155 1    
    67   33  156 1    
    68   33  157 1    
    69   33  158 1    
    70   34   35 am   BACKBONE|DICT|INTERRES
    71   34  159 1    
    72   35   36 2    
    73   35   37 1    
    74   37   38 1    
    75   37   39 1    
    76   37  160 1    
    77   38  161 1    
    78   38  162 1    
    79   38  163 1    
    80   39   40 am   BACKBONE|DICT|INTERRES
    81   39  164 1    
    82   40   41 2    
    83   40   42 1    
    84   42   43 1    
    85   42   44 1    
    86   42  165 1    
    87   43  166 1    
    88   43  167 1    
    89   43  168 1    
    90   44   45 am   BACKBONE|DICT|INTERRES
    91   44  169 1    
    92   45   46 2    
    93   45   47 1    
    94   47   48 1    
    95   47   49 1    
    96   47  170 1    
    97   48  171 1    
    98   48  172 1    
    99   48  173 1    
   100   49   50 am   BACKBONE|DICT|INTERRES
   101   49  174 1    
   102   50   51 2    
   103   50   52 1    
   104   52   53 1    
   105   52   54 1    
   106   52  175 1    
   107   53  176 1    
   108   53  177 1    
   109   53  178 1    
   110   54   55 am   BACKBONE|DICT|INTERRES
   111   54  179 1    
   112   55   56 2    
   113   55   57 1    
   114   57   58 1    
   115   57   59 1    
   116   57  180 1    
   117   58  181 1    
   118   58  182 1    
   119   58  183 1    
   120   59   60 am   BACKBONE|DICT|INTERRES
   121   59  184 1    
   122   60   61 2    
   123   60   62 1    
   124   62   63 1    
   125   62   64 1    
   126   62  185 1    
   127   63  186 1    
   128   63  187 1    
   129   63  188 1    
   130   64   65 am   BACKBONE|DICT|INTERRES
   131   64  189 1    
   132   65   66 2    
   133   67   68 2    
   134   67   69 am   BACKBONE|DICT|INTERRES
   135   69   70 1    
   136   69  190 1    
   137   70   71 1    
   138   70   72 1    
   139   70  191 1    
   140   71  192 1    
   141   71  193 1    
   142   71  194 1    
   143   72   73 2    
   144   72   74 am   BACKBONE|DICT|INTERRES
   145   74   75 1    
   146   74  195 1    
   147   75   76 1    
   148   75   77 1    
   149   75  196 1    
   150   76  197 1    
   151   76  198 1    
   152   76  199 1    
   153   77   78 2    
   154   77   79 am   BACKBONE|DICT|INTERRES
   155   79   80 1    
   156   79  200 1    
   157   80   81 1    
   158   80   82 1    
   159   80  201 1    
   160   81  202 1    
   161   81  203 1    
   162   81  204 1    
   163   82   83 2    
   164   82   84 am   BACKBONE|DICT|INTERRES
   165   84   85 1    
   166   84  205 1    
   167   85   86 1    
   168   85   87 1    
   169   85  206 1    
   170   86  207 1    
   171   86  208 1    
   172   86  209 1    
   173   87   88 2    
   174   87   89 am   BACKBONE|DICT|INTERRES
   175   89   90 1    
   176   89  210 1    
   177   90   91 1    
   178   90   92 1    
   179   90  211 1    
   180   91  212 1    
   181   91  213 1    
   182   91  214 1    
   183   92   93 2    
   184   92   94 am   BACKBONE|DICT|INTERRES
   185   94   95 1    
   186   94  215 1    
   187   95   96 1    
   188   95   97 1    
   189   95  216 1    
   190   96  217 1    
   191   96  218 1    
   192   96  219 1    
   193   97   98 2    
   194   97   99 am   BACKBONE|DICT|INTERRES
   195   99  100 1    
   196   99  220 1    
   197  100  101 1    
   198  100  102 1    
   199  100  221 1    
   200  101  222 1    
   201  101  223 1    
   202  101  224 1    
   203  102  103 2    
   204  102  104 am   BACKBONE|DICT|INTERRES
   205  104  105 1    
   206  104  225 1    
   207  105  106 1    
   208  105  107 1    
   209  105  226 1    
   210  106  227 1    
   211  106  228 1    
   212  106  229 1    
   213  107  108 2    
   214  107  109 am   BACKBONE|DICT|INTERRES
   215  109  110 1    
   216  109  230 1    
   217  110  111 1    
   218  110  112 1    
   219  110  231 1    
   220  111  232 1    
   221  111  233 1    
   222  111  234 1    
   223  112  113 2    
   224  112  114 am   BACKBONE|DICT|INTERRES
   225  114  115 1    
   226  114  235 1    
   227  115  116 1    
   228  115  117 1    
   229  115  236 1    
   230  116  237 1    
   231  116  238 1    
   232  116  239 1    
   233  117  118 2    
   234  117  119 am   BACKBONE|DICT|INTERRES
   235  119  120 1    
   236  119  240 1    
   237  120  121 1    
   238  120  124 1    
   239  120  241 1    
   240  121  122 am   BACKBONE|DICT|INTERRES
   241  121  123 2    
   242  122  242 1    
   243  122  243 1    
   244  124  125 1    
   245  124  244 1    
   246  124  245 1    
   247  125  126 1    
   248  126  246 1    
   249  126  247 1    
@<TRIPOS>SUBSTRUCTURE
     1 UNK         1 GROUP             0       ****    0 ROOT    
