@<TRIPOS>MOLECULE
3R540
247   249    1
SMALL
USER_CHARGES


@<TRIPOS>ATOM
      1 CA          0.8421  -14.2951  -42.0068 C.3       0 UNK        -0.1800 
      2 C           0.1052  -13.2391  -42.8193 C.2       0 UNK         0.5000 
      3 O          -0.3470  -12.2385  -42.2616 O.2       0 UNK        -0.5000 
      4 N          -0.0242  -13.4603  -44.1319 N.am      1 UNK        -0.5000 
      5 CA         -0.6251  -12.5181  -45.0786 C.3       1 UNK         0.1400 
      6 C6         -1.0735  -13.2095  -46.3865 C.3       23 UNK        -0.0398 
      7 S7         -2.4579  -14.3550  -46.0850 S.3       23 UNK        -0.2404 
      8 C8         -3.1886  -14.5038  -47.7473 C.3       23 UNK        -0.0205 
      9 C9         -2.3043  -15.2526  -48.7385 C.ar      23 UNK        -0.0193 
     10 C10        -2.1498  -14.7657  -50.0397 C.ar      23 UNK        -0.1150 
     11 C11        -1.3810  -15.4642  -50.9759 C.ar      23 UNK        -0.0193 
     12 C12        -0.7576  -16.6576  -50.6006 C.ar      23 UNK        -0.1150 
     13 C13        -0.9073  -17.1583  -49.3048 C.ar      23 UNK        -0.0193 
     14 C14        -1.6777  -16.4503  -48.3795 C.ar      23 UNK        -0.1150 
     15 C15        -0.2214  -18.4528  -48.8983 C.3       23 UNK        -0.0205 
     16 S16        -1.2041  -19.9163  -49.3350 S.3       23 UNK        -0.2404 
     17 C17        -2.6517  -19.7780  -48.2317 C.3       23 UNK        -0.0398 
     18 CA         -2.9790  -21.1435  -47.5902 C.3       11 UNK         0.1400 
     19 N          -2.0346  -21.5056  -46.5263 N.am      11 UNK        -0.5000 
     20 C          -1.9143  -22.7356  -46.0076 C.2       10 UNK         0.5000 
     21 O          -2.6364  -23.6823  -46.3218 O.2       10 UNK        -0.5000 
     22 CA         -0.8388  -22.9279  -44.9314 C.3       10 UNK         0.1400 
     23 CB          0.5712  -22.8571  -45.5383 C.3       10 UNK        -0.1800 
     24 N          -0.9887  -21.9251  -43.8801 N.am      10 UNK        -0.5000 
     25 C          -1.8842  -22.0166  -42.8862 C.2       9 UNK         0.5000 
     26 O          -2.6160  -22.9916  -42.7147 O.2       9 UNK        -0.5000 
     27 CA         -1.9957  -20.8185  -41.9238 C.3       9 UNK         0.1400 
     28 CB         -1.1124  -21.0404  -40.6867 C.3       9 UNK        -0.1800 
     29 N          -1.6443  -19.5360  -42.5351 N.am      9 UNK        -0.5000 
     30 C          -2.3370  -18.9388  -43.5148 C.2       8 UNK         0.5000 
     31 O          -3.3455  -19.4152  -44.0316 O.2       8 UNK        -0.5000 
     32 CA         -1.7724  -17.6047  -44.0347 C.3       8 UNK         0.1400 
     33 CB         -2.1838  -16.4647  -43.0904 C.3       8 UNK        -0.1800 
     34 N          -0.3136  -17.6031  -44.1871 N.am      8 UNK        -0.5000 
     35 C           0.3997  -18.4959  -44.8851 C.2       7 UNK         0.5000 
     36 O          -0.0994  -19.4427  -45.4989 O.2       7 UNK        -0.5000 
     37 CA          1.9272  -18.3090  -44.8678 C.3       7 UNK         0.1400 
     38 CB          2.6610  -19.6608  -44.8987 C.3       7 UNK        -0.1800 
     39 N           2.3985  -17.4936  -45.9856 N.am      7 UNK        -0.5000 
     40 C           2.2774  -16.1646  -46.0840 C.2       6 UNK         0.5000 
     41 O           1.6750  -15.4627  -45.2670 O.2       6 UNK        -0.5000 
     42 CA          2.9695  -15.5130  -47.2896 C.3       6 UNK         0.1400 
     43 CB          2.0514  -15.4662  -48.5203 C.3       6 UNK        -0.1800 
     44 N           3.3913  -14.1625  -46.9355 N.am      6 UNK        -0.5000 
     45 C           4.4437  -13.5264  -47.4651 C.2       5 UNK         0.5000 
     46 O           5.1573  -14.0031  -48.3491 O.2       5 UNK        -0.5000 
     47 CA          4.7669  -12.1262  -46.9139 C.3       5 UNK         0.1400 
     48 CB          4.0718  -11.0506  -47.7590 C.3       5 UNK        -0.1800 
     49 N           4.3831  -11.9799  -45.5069 N.am      5 UNK        -0.5000 
     50 C           5.1080  -12.4729  -44.4929 C.2       4 UNK         0.5000 
     51 O           6.1785  -13.0594  -44.6649 O.2       4 UNK        -0.5000 
     52 CA          4.5737  -12.2751  -43.0606 C.3       4 UNK         0.1400 
     53 CB          5.7055  -12.3553  -42.0089 C.3       4 UNK        -0.1800 
     54 N           3.8338  -11.0179  -42.9291 N.am      4 UNK        -0.5000 
     55 C           3.0597  -10.6854  -41.8887 C.2       3 UNK         0.5000 
     56 O           2.8559  -11.4242  -40.9251 O.2       3 UNK        -0.5000 
     57 CA          2.3874   -9.3010  -41.9169 C.3       3 UNK         0.1400 
     58 CB          3.4044   -8.1607  -41.7113 C.3       3 UNK        -0.1800 
     59 N           1.5435   -9.0940  -43.0968 N.am      3 UNK        -0.5000 
     60 C           1.9075   -8.9212  -44.3742 C.2       2 UNK         0.5000 
     61 O           3.0760   -8.8549  -44.7614 O.2       2 UNK        -0.5000 
     62 CA          0.7366   -8.9111  -45.3794 C.3       2 UNK         0.1400 
     63 CB          1.1718   -8.6480  -46.8333 C.3       2 UNK        -0.1800 
     64 N          -0.0633  -10.1404  -45.2860 N.am      2 UNK        -0.5000 
     65 C           0.3913  -11.4013  -45.3646 C.2       1 UNK         0.5000 
     66 O           1.5575  -11.7077  -45.6224 O.2       1 UNK        -0.5000 
     67 C          -4.4603  -21.2464  -47.1657 C.2       11 UNK         0.5000 
     68 O          -5.3087  -21.4529  -48.0333 O.2       11 UNK        -0.5000 
     69 N          -4.7525  -21.2104  -45.8571 N.am      12 UNK        -0.5000 
     70 CA         -6.0597  -21.5486  -45.2800 C.3       12 UNK         0.1400 
     71 CB         -6.0265  -21.2962  -43.7649 C.3       12 UNK        -0.1800 
     72 C          -6.5140  -22.9975  -45.5695 C.2       12 UNK         0.5000 
     73 O          -7.7174  -23.2544  -45.6134 O.2       12 UNK        -0.5000 
     74 N          -5.5511  -23.9024  -45.7904 N.am      13 UNK        -0.5000 
     75 CA         -5.7530  -25.2862  -46.2231 C.3       13 UNK         0.1400 
     76 CB         -5.0418  -26.2135  -45.2219 C.3       13 UNK        -0.1800 
     77 C          -5.2259  -25.5011  -47.6584 C.2       13 UNK         0.5000 
     78 O          -4.9740  -26.6430  -48.0499 O.2       13 UNK        -0.5000 
     79 N          -5.0117  -24.4024  -48.4034 N.am      14 UNK        -0.5000 
     80 CA         -4.4349  -24.3230  -49.7522 C.3       14 UNK         0.1400 
     81 CB         -5.4268  -24.8952  -50.7858 C.3       14 UNK        -0.1800 
     82 C          -3.0349  -24.9634  -49.8737 C.2       14 UNK         0.5000 
     83 O          -2.6612  -25.3945  -50.9632 O.2       14 UNK        -0.5000 
     84 N          -2.3071  -25.0731  -48.7519 N.am      15 UNK        -0.5000 
     85 CA         -1.0555  -25.8157  -48.5700 C.3       15 UNK         0.1400 
     86 CB          0.1144  -25.0685  -49.2389 C.3       15 UNK        -0.1800 
     87 C          -1.1660  -27.2924  -49.0148 C.2       15 UNK         0.5000 
     88 O          -0.2445  -27.8163  -49.6400 O.2       15 UNK        -0.5000 
     89 N          -2.3194  -27.9192  -48.7285 N.am      16 UNK        -0.5000 
     90 CA         -2.7306  -29.2531  -49.1868 C.3       16 UNK         0.1400 
     91 CB         -1.8239  -30.3559  -48.6005 C.3       16 UNK        -0.1800 
     92 C          -2.8668  -29.3193  -50.7246 C.2       16 UNK         0.5000 
     93 O          -2.4269  -30.2822  -51.3542 O.2       16 UNK        -0.5000 
     94 N          -3.4670  -28.2605  -51.2860 N.am      17 UNK        -0.5000 
     95 CA         -3.7192  -27.9809  -52.7046 C.3       17 UNK         0.1400 
     96 CB         -4.5336  -29.1075  -53.3725 C.3       17 UNK        -0.1800 
     97 C          -2.4693  -27.5909  -53.5232 C.2       17 UNK         0.5000 
     98 O          -2.5876  -27.3965  -54.7340 O.2       17 UNK        -0.5000 
     99 N          -1.3071  -27.4369  -52.8726 N.am      18 UNK        -0.5000 
    100 CA        -0.0677  -26.9708  -53.5010 C.3       18 UNK         0.1400 
    101 CB         1.1295  -27.3772  -52.6293 C.3       18 UNK        -0.1800 
    102 C         -0.0538  -25.4497  -53.7561 C.2       18 UNK         0.5000 
    103 O          0.6981  -24.9924  -54.6177 O.2       18 UNK        -0.5000 
    104 N         -0.8765  -24.6979  -53.0155 N.am      19 UNK        -0.5000 
    105 CA        -1.0292  -23.2486  -53.0996 C.3       19 UNK         0.1400 
    106 CB        -0.3354  -22.5867  -51.8954 C.3       19 UNK        -0.1800 
    107 C         -2.5243  -22.9015  -53.1927 C.2       19 UNK         0.5000 
    108 O         -3.0164  -22.0427  -52.4587 O.2       19 UNK        -0.5000 
    109 N         -3.2328  -23.5870  -54.0995 N.am      20 UNK        -0.5000 
    110 CA        -4.6335  -23.3382  -54.4428 C.3       20 UNK         0.1400 
    111 CB        -5.2197  -24.6125  -55.0764 C.3       20 UNK        -0.1800 
    112 C         -4.7560  -22.1005  -55.3563 C.2       20 UNK         0.5000 
    113 O         -5.0563  -22.2261  -56.5450 O.2       20 UNK        -0.5000 
    114 N         -4.4714  -20.9279  -54.7849 N.am      21 UNK        -0.5000 
    115 CA        -4.4317  -19.6267  -55.4417 C.3       21 UNK         0.1400 
    116 CB        -3.0558  -19.4407  -56.1120 C.3       21 UNK        -0.1800 
    117 C         -4.7123  -18.5254  -54.4048 C.2       21 UNK         0.5000 
    118 O         -4.8882  -18.8242  -53.2206 O.2       21 UNK        -0.5000 
    119 N         -4.7431  -17.2716  -54.8741 N.am      22 UNK        -0.5000 
    120 CA        -4.9281  -16.0425  -54.0754 C.3       22 UNK         0.1400 
    121 C         -6.3723  -15.8313  -53.5236 C.2       22 UNK         0.5000 
    122 N         -7.3747  -16.5678  -53.9874 N.am      22 UNK        -0.7600 
    123 O         -6.6006  -14.9618  -52.6867 O.2       22 UNK        -0.5000 
    124 C124       -3.8443  -15.8433  -52.9750 C.3       23 UNK        -0.0398 
    125 S125       -2.1337  -15.9459  -53.6102 S.3       23 UNK        -0.2404 
    126 C126       -1.2302  -14.9327  -52.3946 C.3       23 UNK        -0.0205 
    127 H127        1.6711  -13.8415  -41.4644 H         1 UNK         0.0600 
    128 H128        1.2459  -15.0864  -42.6376 H         1 UNK         0.0600 
    129 H129        0.1665  -14.7483  -41.2816 H         1 UNK         0.0600 
    130 H130        0.4489  -14.2566  -44.5523 H         1 UNK         0.3000 
    131 H131       -1.5065  -12.0726  -44.6119 H         1 UNK         0.0600 
    132 H132       -1.3932  -12.4689  -47.1218 H         1 UNK         0.0800 
    133 H133       -0.2484  -13.7616  -46.8378 H         1 UNK         0.0800 
    134 H134       -3.4326  -13.5068  -48.1174 H         1 UNK         0.0800 
    135 H135       -4.1348  -15.0393  -47.6622 H         1 UNK         0.0800 
    136 H136       -2.6402  -13.8470  -50.3296 H         1 UNK         0.1150 
    137 H137       -0.1652  -17.2025  -51.3222 H         1 UNK         0.1150 
    138 H138       -1.7909  -16.8323  -47.3757 H         1 UNK         0.1150 
    139 H139        0.7445  -18.5295  -49.3986 H         1 UNK         0.0800 
    140 H140       -0.0084  -18.4517  -47.8316 H         1 UNK         0.0800 
    141 H141       -3.4804  -19.4103  -48.8403 H         1 UNK         0.0800 
    142 H142       -2.4805  -19.0322  -47.4555 H         1 UNK         0.0800 
    143 H143       -2.8650  -21.9005  -48.3696 H         1 UNK         0.0600 
    144 H144       -1.4022  -20.7757  -46.2108 H         1 UNK         0.3000 
    145 H145       -0.9650  -23.9231  -44.4992 H         1 UNK         0.0600 
    146 H146        1.3369  -22.9869  -44.7735 H         1 UNK         0.0600 
    147 H147        0.7134  -23.6456  -46.2784 H         1 UNK         0.0600 
    148 H148        0.7557  -21.9067  -46.0386 H         1 UNK         0.0600 
    149 H149       -0.4745  -21.0627  -43.9984 H         1 UNK         0.3000 
    150 H150       -3.0357  -20.7589  -41.5958 H         1 UNK         0.0600 
    151 H151       -1.3659  -21.9772  -40.1886 H         1 UNK         0.0600 
    152 H152       -1.2455  -20.2407  -39.9578 H         1 UNK         0.0600 
    153 H153       -0.0548  -21.0842  -40.9498 H         1 UNK         0.0600 
    154 H154       -0.8202  -19.0743  -42.1799 H         1 UNK         0.3000 
    155 H155       -2.2085  -17.4177  -45.0177 H         1 UNK         0.0600 
    156 H156       -1.8521  -15.4987  -43.4652 H         1 UNK         0.0600 
    157 H157       -1.7656  -16.5941  -42.0916 H         1 UNK         0.0600 
    158 H158       -3.2688  -16.4143  -42.9894 H         1 UNK         0.0600 
    159 H159        0.1800  -16.8323  -43.7620 H         1 UNK         0.3000 
    160 H160        2.1982  -17.8100  -43.9348 H         1 UNK         0.0600 
    161 H161        2.5065  -20.1839  -45.8431 H         1 UNK         0.0600 
    162 H162        2.3124  -20.3159  -44.0990 H         1 UNK         0.0600 
    163 H163        3.7346  -19.5284  -44.7634 H         1 UNK         0.0600 
    164 H164        2.8827  -17.9925  -46.7175 H         1 UNK         0.3000 
    165 H165        3.8542  -16.1069  -47.5297 H         1 UNK         0.0600 
    166 H166        2.5198  -14.9360  -49.3495 H         1 UNK         0.0600 
    167 H167        1.8339  -16.4729  -48.8713 H         1 UNK         0.0600 
    168 H168        1.1028  -14.9753  -48.3044 H         1 UNK         0.0600 
    169 H169        2.8535  -13.7165  -46.2017 H         1 UNK         0.3000 
    170 H170        5.8443  -11.9691  -47.0003 H         1 UNK         0.0600 
    171 H171        4.4789  -11.0313  -48.7705 H         1 UNK         0.0600 
    172 H172        3.0028  -11.2440  -47.8460 H         1 UNK         0.0600 
    173 H173        4.2083  -10.0569  -47.3316 H         1 UNK         0.0600 
    174 H174        3.4573  -11.5957  -45.3360 H         1 UNK         0.3000 
    175 H175        3.8770  -13.0964  -42.8811 H         1 UNK         0.0600 
    176 H176        6.4257  -11.5470  -42.1391 H         1 UNK         0.0600 
    177 H177        5.3237  -12.3001  -40.9902 H         1 UNK         0.0600 
    178 H178        6.2499  -13.2975  -42.0830 H         1 UNK         0.0600 
    179 H179        3.9193  -10.3531  -43.6929 H         1 UNK         0.3000 
    180 H180        1.7029   -9.2717  -41.0674 H         1 UNK         0.0600 
    181 H181        4.1623   -8.1337  -42.4943 H         1 UNK         0.0600 
    182 H182        3.9278   -8.2789  -40.7618 H         1 UNK         0.0600 
    183 H183        2.9089   -7.1901  -41.6904 H         1 UNK         0.0600 
    184 H184        0.5543   -9.2000  -42.9182 H         1 UNK         0.3000 
    185 H185        0.0854   -8.0873  -45.0829 H         1 UNK         0.0600 
    186 H186        0.3074   -8.5554  -47.4906 H         1 UNK         0.0600 
    187 H187        1.7405   -7.7206  -46.9103 H         1 UNK         0.0600 
    188 H188        1.7972   -9.4484  -47.2196 H         1 UNK         0.0600 
    189 H189       -1.0383  -10.0003  -45.0597 H         1 UNK         0.3000 
    190 H190       -4.0270  -20.9400  -45.2014 H         1 UNK         0.3000 
    191 H191       -6.8013  -20.8805  -45.7223 H         1 UNK         0.0600 
    192 H192       -6.9751  -21.5674  -43.2997 H         1 UNK         0.0600 
    193 H193       -5.8510  -20.2434  -43.5445 H         1 UNK         0.0600 
    194 H194       -5.2426  -21.8777  -43.2782 H         1 UNK         0.0600 
    195 H195       -4.5818  -23.6043  -45.7481 H         1 UNK         0.3000 
    196 H196       -6.8150  -25.5380  -46.2321 H         1 UNK         0.0600 
    197 H197       -5.2095  -27.2632  -45.4662 H         1 UNK         0.0600 
    198 H198       -5.4117  -26.0552  -44.2088 H         1 UNK         0.0600 
    199 H199       -3.9642  -26.0436  -45.2145 H         1 UNK         0.0600 
    200 H200       -5.2627  -23.5067  -48.0008 H         1 UNK         0.3000 
    201 H201       -4.2995  -23.2639  -49.9750 H         1 UNK         0.0600 
    202 H202       -5.6036  -25.9600  -50.6334 H         1 UNK         0.0600 
    203 H203       -5.0542  -24.7688  -51.8018 H         1 UNK         0.0600 
    204 H204       -6.3883  -24.3851  -50.7304 H         1 UNK         0.0600 
    205 H205       -2.6793  -24.6595  -47.9004 H         1 UNK         0.3000 
    206 H206       -0.8648  -25.8342  -47.4962 H         1 UNK         0.0600 
    207 H207        0.1613  -24.0311  -48.9076 H         1 UNK         0.0600 
    208 H208        1.0690  -25.5328  -48.9895 H         1 UNK         0.0600 
    209 H209        0.0244  -25.0722  -50.3244 H         1 UNK         0.0600 
    210 H210       -3.0462  -27.3885  -48.2589 H         1 UNK         0.3000 
    211 H211       -3.7339  -29.4120  -48.7886 H         1 UNK         0.0600 
    212 H212       -0.8125  -30.3132  -49.0052 H         1 UNK         0.0600 
    213 H213       -2.2216  -31.3458  -48.8266 H         1 UNK         0.0600 
    214 H214       -1.7556  -30.2743  -47.5158 H         1 UNK         0.0600 
    215 H215       -3.7198  -27.5038  -50.6654 H         1 UNK         0.3000 
    216 H216       -4.3485  -27.0906  -52.7073 H         1 UNK         0.0600 
    217 H217       -5.4201  -29.3542  -52.7883 H         1 UNK         0.0600 
    218 H218       -3.9459  -30.0173  -53.4954 H         1 UNK         0.0600 
    219 H219       -4.8742  -28.8070  -54.3640 H         1 UNK         0.0600 
    220 H220       -1.2849  -27.5869  -51.8728 H         1 UNK         0.3000 
    221 H221        0.0377  -27.4692  -54.4670 H         1 UNK         0.0600 
    222 H222        1.1344  -26.8448  -51.6783 H         1 UNK         0.0600 
    223 H223        1.1219  -28.4464  -52.4165 H         1 UNK         0.0600 
    224 H224        2.0704  -27.1511  -53.1322 H         1 UNK         0.0600 
    225 H225       -1.4870  -25.1520  -52.3371 H         1 UNK         0.3000 
    226 H226       -0.5642  -22.8700  -54.0119 H         1 UNK         0.0600 
    227 H227        0.7096  -22.8878  -51.8238 H         1 UNK         0.0600 
    228 H228       -0.3560  -21.5000  -51.9843 H         1 UNK         0.0600 
    229 H229       -0.8264  -22.8457  -50.9569 H         1 UNK         0.0600 
    230 H230       -2.7511  -24.2754  -54.6600 H         1 UNK         0.3000 
    231 H231       -5.1971  -23.1287  -53.5315 H         1 UNK         0.0600 
    232 H232       -6.2661  -24.4681  -55.3479 H         1 UNK         0.0600 
    233 H233       -5.1783  -25.4519  -54.3827 H         1 UNK         0.0600 
    234 H234       -4.6806  -24.9004  -55.9798 H         1 UNK         0.0600 
    235 H235       -4.2423  -20.9070  -53.7949 H         1 UNK         0.3000 
    236 H236       -5.2177  -19.5792  -56.1982 H         1 UNK         0.0600 
    237 H237       -2.8559  -20.2327  -56.8338 H         1 UNK         0.0600 
    238 H238       -2.9981  -18.4953  -56.6520 H         1 UNK         0.0600 
    239 H239       -2.2503  -19.4487  -55.3763 H         1 UNK         0.0600 
    240 H240       -4.5996  -17.1218  -55.8624 H         1 UNK         0.3000 
    241 H241       -4.7980  -15.2275  -54.7881 H         1 UNK         0.0600 
    242 H242       -7.2108  -17.2780  -54.6826 H         1 UNK         0.3800 
    243 H243       -8.3068  -16.4164  -53.6345 H         1 UNK         0.3800 
    244 H244       -3.9698  -14.8664  -52.5054 H         1 UNK         0.0800 
    245 H245       -3.9611  -16.5774  -52.1764 H         1 UNK         0.0800 
    246 H246       -1.5750  -13.8997  -52.4614 H         1 UNK         0.0800 
    247 H247       -0.1727  -14.9190  -52.6616 H         1 UNK         0.0800 
@<TRIPOS>BOND
     1    1    2 1    
     2    1  127 1    
     3    1  128 1    
     4    1  129 1    
     5    2    3 2    
     6    2    4 am   BACKBONE|DICT|INTERRES
     7    4    5 1    
     8    4  130 1    
     9    5    6 1    
    10    5   65 1    
    11    5  131 1    
    12    6    7 1    
    13    6  132 1    
    14    6  133 1    
    15    7    8 1    
    16    8    9 1    
    17    8  134 1    
    18    8  135 1    
    19    9   10 ar   
    20    9   14 ar   
    21   10   11 ar   
    22   10  136 1    
    23   11   12 ar   
    24   11  126 1    
    25   12   13 ar   
    26   12  137 1    
    27   13   14 ar   
    28   13   15 1    
    29   14  138 1    
    30   15   16 1    
    31   15  139 1    
    32   15  140 1    
    33   16   17 1    
    34   17   18 1    
    35   17  141 1    
    36   17  142 1    
    37   18   19 1    
    38   18   67 1    
    39   18  143 1    
    40   19   20 am   BACKBONE|DICT|INTERRES
    41   19  144 1    
    42   20   21 2    
    43   20   22 1    
    44   22   23 1    
    45   22   24 1    
    46   22  145 1    
    47   23  146 1    
    48   23  147 1    
    49   23  148 1    
    50   24   25 am   BACKBONE|DICT|INTERRES
    51   24  149 1    
    52   25   26 2    
    53   25   27 1    
    54   27   28 1    
    55   27   29 1    
    56   27  150 1    
    57   28  151 1    
    58   28  152 1    
    59   28  153 1    
    60   29   30 am   BACKBONE|DICT|INTERRES
    61   29  154 1    
    62   30   31 2    
    63   30   32 1    
    64   32   33 1    
    65   32   34 1    
    66   32  155 1    
    67   33  156 1    
    68   33  157 1    
    69   33  158 1    
    70   34   35 am   BACKBONE|DICT|INTERRES
    71   34  159 1    
    72   35   36 2    
    73   35   37 1    
    74   37   38 1    
    75   37   39 1    
    76   37  160 1    
    77   38  161 1    
    78   38  162 1    
    79   38  163 1    
    80   39   40 am   BACKBONE|DICT|INTERRES
    81   39  164 1    
    82   40   41 2    
    83   40   42 1    
    84   42   43 1    
    85   42   44 1    
    86   42  165 1    
    87   43  166 1    
    88   43  167 1    
    89   43  168 1    
    90   44   45 am   BACKBONE|DICT|INTERRES
    91   44  169 1    
    92   45   46 2    
    93   45   47 1    
    94   47   48 1    
    95   47   49 1    
    96   47  170 1    
    97   48  171 1    
    98   48  172 1    
    99   48  173 1    
   100   49   50 am   BACKBONE|DICT|INTERRES
   101   49  174 1    
   102   50   51 2    
   103   50   52 1    
   104   52   53 1    
   105   52   54 1    
   106   52  175 1    
   107   53  176 1    
   108   53  177 1    
   109   53  178 1    
   110   54   55 am   BACKBONE|DICT|INTERRES
   111   54  179 1    
   112   55   56 2    
   113   55   57 1    
   114   57   58 1    
   115   57   59 1    
   116   57  180 1    
   117   58  181 1    
   118   58  182 1    
   119   58  183 1    
   120   59   60 am   BACKBONE|DICT|INTERRES
   121   59  184 1    
   122   60   61 2    
   123   60   62 1    
   124   62   63 1    
   125   62   64 1    
   126   62  185 1    
   127   63  186 1    
   128   63  187 1    
   129   63  188 1    
   130   64   65 am   BACKBONE|DICT|INTERRES
   131   64  189 1    
   132   65   66 2    
   133   67   68 2    
   134   67   69 am   BACKBONE|DICT|INTERRES
   135   69   70 1    
   136   69  190 1    
   137   70   71 1    
   138   70   72 1    
   139   70  191 1    
   140   71  192 1    
   141   71  193 1    
   142   71  194 1    
   143   72   73 2    
   144   72   74 am   BACKBONE|DICT|INTERRES
   145   74   75 1    
   146   74  195 1    
   147   75   76 1    
   148   75   77 1    
   149   75  196 1    
   150   76  197 1    
   151   76  198 1    
   152   76  199 1    
   153   77   78 2    
   154   77   79 am   BACKBONE|DICT|INTERRES
   155   79   80 1    
   156   79  200 1    
   157   80   81 1    
   158   80   82 1    
   159   80  201 1    
   160   81  202 1    
   161   81  203 1    
   162   81  204 1    
   163   82   83 2    
   164   82   84 am   BACKBONE|DICT|INTERRES
   165   84   85 1    
   166   84  205 1    
   167   85   86 1    
   168   85   87 1    
   169   85  206 1    
   170   86  207 1    
   171   86  208 1    
   172   86  209 1    
   173   87   88 2    
   174   87   89 am   BACKBONE|DICT|INTERRES
   175   89   90 1    
   176   89  210 1    
   177   90   91 1    
   178   90   92 1    
   179   90  211 1    
   180   91  212 1    
   181   91  213 1    
   182   91  214 1    
   183   92   93 2    
   184   92   94 am   BACKBONE|DICT|INTERRES
   185   94   95 1    
   186   94  215 1    
   187   95   96 1    
   188   95   97 1    
   189   95  216 1    
   190   96  217 1    
   191   96  218 1    
   192   96  219 1    
   193   97   98 2    
   194   97   99 am   BACKBONE|DICT|INTERRES
   195   99  100 1    
   196   99  220 1    
   197  100  101 1    
   198  100  102 1    
   199  100  221 1    
   200  101  222 1    
   201  101  223 1    
   202  101  224 1    
   203  102  103 2    
   204  102  104 am   BACKBONE|DICT|INTERRES
   205  104  105 1    
   206  104  225 1    
   207  105  106 1    
   208  105  107 1    
   209  105  226 1    
   210  106  227 1    
   211  106  228 1    
   212  106  229 1    
   213  107  108 2    
   214  107  109 am   BACKBONE|DICT|INTERRES
   215  109  110 1    
   216  109  230 1    
   217  110  111 1    
   218  110  112 1    
   219  110  231 1    
   220  111  232 1    
   221  111  233 1    
   222  111  234 1    
   223  112  113 2    
   224  112  114 am   BACKBONE|DICT|INTERRES
   225  114  115 1    
   226  114  235 1    
   227  115  116 1    
   228  115  117 1    
   229  115  236 1    
   230  116  237 1    
   231  116  238 1    
   232  116  239 1    
   233  117  118 2    
   234  117  119 am   BACKBONE|DICT|INTERRES
   235  119  120 1    
   236  119  240 1    
   237  120  121 1    
   238  120  124 1    
   239  120  241 1    
   240  121  122 am   BACKBONE|DICT|INTERRES
   241  121  123 2    
   242  122  242 1    
   243  122  243 1    
   244  124  125 1    
   245  124  244 1    
   246  124  245 1    
   247  125  126 1    
   248  126  246 1    
   249  126  247 1    
@<TRIPOS>SUBSTRUCTURE
     1 UNK         1 GROUP             0       ****    0 ROOT    
