@<TRIPOS>MOLECULE
3R540
247   249    1
SMALL
USER_CHARGES


@<TRIPOS>ATOM
      1 CA         -3.2017   -9.8908  -49.7272 C.3       0 UNK        -0.1800 
      2 C          -3.1774  -10.8853  -48.5747 C.2       0 UNK         0.5000 
      3 O          -4.1924  -11.0589  -47.8991 O.2       0 UNK        -0.5000 
      4 N          -2.0251  -11.5343  -48.3573 N.am      1 UNK        -0.5000 
      5 CA         -1.7582  -12.5118  -47.2918 C.3       1 UNK         0.1400 
      6 C6         -2.6175  -13.8066  -47.4010 C.3       23 UNK        -0.0398 
      7 S7         -2.4634  -14.6340  -49.0200 S.3       23 UNK        -0.2404 
      8 C8         -1.1707  -15.8613  -48.6624 C.3       23 UNK        -0.0205 
      9 C9         -0.9490  -16.7810  -49.8501 C.ar      23 UNK        -0.0193 
     10 C10        -0.1157  -16.3913  -50.9022 C.ar      23 UNK        -0.1150 
     11 C11         0.0728  -17.2303  -52.0046 C.ar      23 UNK        -0.0193 
     12 C12        -0.5746  -18.4694  -52.0461 C.ar      23 UNK        -0.1150 
     13 C13        -1.3965  -18.8758  -50.9908 C.ar      23 UNK        -0.0193 
     14 C14        -1.5831  -18.0245  -49.8984 C.ar      23 UNK        -0.1150 
     15 C15        -2.0956  -20.2267  -51.0292 C.3       23 UNK        -0.0205 
     16 S16        -0.9371  -21.6237  -50.8515 S.3       23 UNK        -0.2404 
     17 C17        -0.2291  -21.3336  -49.1912 C.3       23 UNK        -0.0398 
     18 CA         -0.6080  -22.4257  -48.1642 C.3       11 UNK         0.1400 
     19 N           0.1399  -22.2674  -46.9232 N.am      11 UNK        -0.5000 
     20 C           0.7187  -23.2686  -46.2501 C.2       10 UNK         0.5000 
     21 O           0.7909  -24.4232  -46.6696 O.2       10 UNK        -0.5000 
     22 CA          1.2981  -22.9346  -44.8598 C.3       10 UNK         0.1400 
     23 CB          2.8074  -22.6693  -44.9674 C.3       10 UNK        -0.1800 
     24 N           0.6546  -21.7963  -44.1973 N.am      10 UNK        -0.5000 
     25 C          -0.6528  -21.6874  -43.9199 C.2       9 UNK         0.5000 
     26 O          -1.4791  -22.5706  -44.1537 O.2       9 UNK        -0.5000 
     27 CA         -1.1353  -20.3392  -43.3547 C.3       9 UNK         0.1400 
     28 CB         -1.0467  -20.3364  -41.8229 C.3       9 UNK        -0.1800 
     29 N          -0.4150  -19.1793  -43.8897 N.am      9 UNK        -0.5000 
     30 C          -0.3456  -18.8369  -45.1855 C.2       8 UNK         0.5000 
     31 O          -0.8502  -19.4886  -46.1007 O.2       8 UNK        -0.5000 
     32 CA          0.4626  -17.5737  -45.5151 C.3       8 UNK         0.1400 
     33 CB         -0.3097  -16.3030  -45.1155 C.3       8 UNK        -0.1800 
     34 N           1.7730  -17.6178  -44.8651 N.am      8 UNK        -0.5000 
     35 C           2.7917  -18.3721  -45.3073 C.2       7 UNK         0.5000 
     36 O           2.7785  -18.9669  -46.3851 O.2       7 UNK        -0.5000 
     37 CA          4.0149  -18.5327  -44.3838 C.3       7 UNK         0.1400 
     38 CB          5.1571  -17.5907  -44.7903 C.3       7 UNK        -0.1800 
     39 N           3.6940  -18.3374  -42.9689 N.am      7 UNK        -0.5000 
     40 C           3.0345  -19.2388  -42.2267 C.2       6 UNK         0.5000 
     41 O           2.6343  -20.3158  -42.6649 O.2       6 UNK        -0.5000 
     42 CA          2.7275  -18.8650  -40.7648 C.3       6 UNK         0.1400 
     43 CB          3.8835  -19.2900  -39.8476 C.3       6 UNK        -0.1800 
     44 N           2.4536  -17.4421  -40.5664 N.am      6 UNK        -0.5000 
     45 C           1.4752  -16.7500  -41.1647 C.2       5 UNK         0.5000 
     46 O           0.6819  -17.2486  -41.9654 O.2       5 UNK        -0.5000 
     47 CA          1.3859  -15.2431  -40.8512 C.3       5 UNK         0.1400 
     48 CB          2.1937  -14.8109  -39.6075 C.3       5 UNK        -0.1800 
     49 N           1.7582  -14.4094  -41.9974 N.am      5 UNK        -0.5000 
     50 C           2.8920  -14.4579  -42.7177 C.2       4 UNK         0.5000 
     51 O           3.7714  -15.3043  -42.5511 O.2       4 UNK        -0.5000 
     52 CA          3.0915  -13.3796  -43.8057 C.3       4 UNK         0.1400 
     53 CB          2.9959  -13.9843  -45.2143 C.3       4 UNK        -0.1800 
     54 N           2.1362  -12.2749  -43.7088 N.am      4 UNK        -0.5000 
     55 C           2.1962  -11.2827  -42.8103 C.2       3 UNK         0.5000 
     56 O           3.1137  -11.1468  -42.0005 O.2       3 UNK        -0.5000 
     57 CA          1.0174  -10.2900  -42.7995 C.3       3 UNK         0.1400 
     58 CB          1.3618   -9.0367  -43.6180 C.3       3 UNK        -0.1800 
     59 N          -0.2382  -10.8554  -43.3038 N.am      3 UNK        -0.5000 
     60 C          -0.9314  -11.8536  -42.7433 C.2       2 UNK         0.5000 
     61 O          -0.5521  -12.4663  -41.7454 O.2       2 UNK        -0.5000 
     62 CA         -2.2499  -12.2639  -43.4259 C.3       2 UNK         0.1400 
     63 CB         -3.3492  -11.2061  -43.2091 C.3       2 UNK        -0.1800 
     64 N          -2.1159  -12.6243  -44.8453 N.am      2 UNK        -0.5000 
     65 C          -1.8011  -11.8445  -45.8923 C.2       1 UNK         0.5000 
     66 O          -1.5115  -10.6495  -45.7832 O.2       1 UNK        -0.5000 
     67 C          -2.1127  -22.4303  -47.8418 C.2       11 UNK         0.5000 
     68 O          -2.7969  -23.4089  -48.1397 O.2       11 UNK        -0.5000 
     69 N          -2.6040  -21.3328  -47.2516 N.am      12 UNK        -0.5000 
     70 CA         -4.0249  -21.0180  -47.1088 C.3       12 UNK         0.1400 
     71 CB         -4.1674  -19.5883  -46.5647 C.3       12 UNK        -0.1800 
     72 C          -4.8258  -22.0032  -46.2418 C.2       12 UNK         0.5000 
     73 O          -5.9844  -22.2711  -46.5608 O.2       12 UNK        -0.5000 
     74 N          -4.2074  -22.5156  -45.1719 N.am      13 UNK        -0.5000 
     75 CA         -4.8442  -23.4154  -44.2143 C.3       13 UNK         0.1400 
     76 CB         -4.6134  -22.8950  -42.7851 C.3       13 UNK        -0.1800 
     77 C          -4.3128  -24.8441  -44.3753 C.2       13 UNK         0.5000 
     78 O          -5.1086  -25.7683  -44.5408 O.2       13 UNK        -0.5000 
     79 N          -2.9831  -25.0053  -44.3293 N.am      14 UNK        -0.5000 
     80 CA         -2.3226  -26.3122  -44.2878 C.3       14 UNK         0.1400 
     81 CB         -0.8643  -26.1379  -43.8449 C.3       14 UNK        -0.1800 
     82 C          -2.4047  -27.0906  -45.6130 C.2       14 UNK         0.5000 
     83 O          -2.5416  -28.3142  -45.5801 O.2       14 UNK        -0.5000 
     84 N          -2.3435  -26.3762  -46.7449 N.am      15 UNK        -0.5000 
     85 CA         -2.4902  -26.9452  -48.0886 C.3       15 UNK         0.1400 
     86 CB         -1.3701  -26.4037  -48.9934 C.3       15 UNK        -0.1800 
     87 C          -3.8797  -26.6543  -48.6895 C.2       15 UNK         0.5000 
     88 O          -4.1360  -27.0589  -49.8230 O.2       15 UNK        -0.5000 
     89 N          -4.7427  -25.9548  -47.9353 N.am      16 UNK        -0.5000 
     90 CA         -6.0980  -25.5230  -48.2961 C.3       16 UNK         0.1400 
     91 CB         -7.0434  -26.7382  -48.3960 C.3       16 UNK        -0.1800 
     92 C          -6.1386  -24.6183  -49.5486 C.2       16 UNK         0.5000 
     93 O          -7.0598  -24.7270  -50.3598 O.2       16 UNK        -0.5000 
     94 N          -5.1298  -23.7435  -49.6728 N.am      17 UNK        -0.5000 
     95 CA         -4.8937  -22.7963  -50.7635 C.3       17 UNK         0.1400 
     96 CB         -6.0053  -21.7286  -50.8326 C.3       17 UNK        -0.1800 
     97 C          -4.6274  -23.4991  -52.1084 C.2       17 UNK         0.5000 
     98 O          -5.2558  -23.1726  -53.1165 O.2       17 UNK        -0.5000 
     99 N          -3.6927  -24.4615  -52.0878 N.am      18 UNK        -0.5000 
    100 CA        -3.2783  -25.2659  -53.2415 C.3       18 UNK         0.1400 
    101 CB        -2.2524  -26.3170  -52.7913 C.3       18 UNK        -0.1800 
    102 C         -2.7136  -24.4330  -54.4075 C.2       18 UNK         0.5000 
    103 O         -3.0292  -24.7149  -55.5646 O.2       18 UNK        -0.5000 
    104 N         -1.9227  -23.4004  -54.0852 N.am      19 UNK        -0.5000 
    105 CA        -1.4378  -22.4046  -55.0383 C.3       19 UNK         0.1400 
    106 CB        -0.0674  -21.8762  -54.5796 C.3       19 UNK        -0.1800 
    107 C         -2.4903  -21.2923  -55.1835 C.2       19 UNK         0.5000 
    108 O         -2.3044  -20.1879  -54.6690 O.2       19 UNK        -0.5000 
    109 N         -3.6040  -21.6238  -55.8499 N.am      20 UNK        -0.5000 
    110 CA        -4.7261  -20.7269  -56.1261 C.3       20 UNK         0.1400 
    111 CB        -5.8220  -21.5019  -56.8728 C.3       20 UNK        -0.1800 
    112 C         -4.2689  -19.4976  -56.9314 C.2       20 UNK         0.5000 
    113 O         -3.6636  -19.6596  -57.9945 O.2       20 UNK        -0.5000 
    114 N         -4.5006  -18.3022  -56.3697 N.am      21 UNK        -0.5000 
    115 CA        -4.0278  -16.9965  -56.8543 C.3       21 UNK         0.1400 
    116 CB        -4.7634  -16.6052  -58.1531 C.3       21 UNK        -0.1800 
    117 C         -2.4881  -16.9101  -56.9909 C.2       21 UNK         0.5000 
    118 O         -1.9864  -16.1531  -57.8238 O.2       21 UNK        -0.5000 
    119 N         -1.7743  -17.7076  -56.1837 N.am      22 UNK        -0.5000 
    120 CA        -0.3201  -17.9298  -56.2186 C.3       22 UNK         0.1400 
    121 C          0.1790  -18.7175  -57.4691 C.2       22 UNK         0.5000 
    122 N         -0.6854  -19.3664  -58.2425 N.am      22 UNK        -0.7600 
    123 O          1.3777  -18.7746  -57.7292 O.2       22 UNK        -0.5000 
    124 C124        0.5218  -16.6537  -55.9304 C.3       23 UNK        -0.0398 
    125 S125        0.0465  -15.8235  -54.3749 S.3       23 UNK        -0.2404 
    126 C126        0.9748  -16.7969  -53.1486 C.3       23 UNK        -0.0205 
    127 H127       -2.2422   -9.8430  -50.2428 H         1 UNK         0.0600 
    128 H128       -3.4385   -8.8933  -49.3568 H         1 UNK         0.0600 
    129 H129       -3.9633  -10.1762  -50.4529 H         1 UNK         0.0600 
    130 H130       -1.2313  -11.3180  -48.9429 H         1 UNK         0.3000 
    131 H131       -0.7170  -12.8084  -47.4265 H         1 UNK         0.0600 
    132 H132       -3.6726  -13.5817  -47.2386 H         1 UNK         0.0800 
    133 H133       -2.3456  -14.5294  -46.6326 H         1 UNK         0.0800 
    134 H134       -1.4628  -16.4513  -47.7934 H         1 UNK         0.0800 
    135 H135       -0.2406  -15.3537  -48.4024 H         1 UNK         0.0800 
    136 H136        0.3743  -15.4283  -50.8698 H         1 UNK         0.1150 
    137 H137       -0.4395  -19.1203  -52.8979 H         1 UNK         0.1150 
    138 H138       -2.2247  -18.3283  -49.0837 H         1 UNK         0.1150 
    139 H139       -2.8501  -20.2831  -50.2438 H         1 UNK         0.0800 
    140 H140       -2.6292  -20.3261  -51.9752 H         1 UNK         0.0800 
    141 H141       -0.4946  -20.3432  -48.8220 H         1 UNK         0.0800 
    142 H142        0.8549  -21.3146  -49.3111 H         1 UNK         0.0800 
    143 H143       -0.3675  -23.3891  -48.6172 H         1 UNK         0.0600 
    144 H144        0.0996  -21.3533  -46.4887 H         1 UNK         0.3000 
    145 H145        1.1524  -23.8074  -44.2222 H         1 UNK         0.0600 
    146 H146        3.2625  -22.5738  -43.9818 H         1 UNK         0.0600 
    147 H147        3.0151  -21.7550  -45.5247 H         1 UNK         0.0600 
    148 H148        3.3157  -23.4889  -45.4772 H         1 UNK         0.0600 
    149 H149        1.2732  -21.0521  -43.8898 H         1 UNK         0.3000 
    150 H150       -2.1847  -20.2260  -43.6336 H         1 UNK         0.0600 
    151 H151       -1.6412  -21.1454  -41.3965 H         1 UNK         0.0600 
    152 H152       -1.4213  -19.4013  -41.4059 H         1 UNK         0.0600 
    153 H153       -0.0203  -20.4692  -41.4820 H         1 UNK         0.0600 
    154 H154        0.0207  -18.5661  -43.2061 H         1 UNK         0.3000 
    155 H155        0.5995  -17.5504  -46.5986 H         1 UNK         0.0600 
    156 H156       -0.2367  -16.0869  -44.0509 H         1 UNK         0.0600 
    157 H157       -1.3704  -16.3983  -45.3505 H         1 UNK         0.0600 
    158 H158        0.0561  -15.4346  -45.6597 H         1 UNK         0.0600 
    159 H159        1.8379  -17.2127  -43.9412 H         1 UNK         0.3000 
    160 H160        4.3758  -19.5556  -44.5128 H         1 UNK         0.0600 
    161 H161        4.9058  -16.5473  -44.6125 H         1 UNK         0.0600 
    162 H162        5.3968  -17.6973  -45.8490 H         1 UNK         0.0600 
    163 H163        6.0645  -17.8124  -44.2284 H         1 UNK         0.0600 
    164 H164        3.9364  -17.4398  -42.5632 H         1 UNK         0.3000 
    165 H165        1.8354  -19.4158  -40.4629 H         1 UNK         0.0600 
    166 H166        3.6412  -19.1144  -38.7993 H         1 UNK         0.0600 
    167 H167        4.0971  -20.3543  -39.9565 H         1 UNK         0.0600 
    168 H168        4.8005  -18.7457  -40.0772 H         1 UNK         0.0600 
    169 H169        3.0795  -16.9445  -39.9501 H         1 UNK         0.3000 
    170 H170        0.3336  -15.0388  -40.6484 H         1 UNK         0.0600 
    171 H171        1.9086  -15.3907  -38.7286 H         1 UNK         0.0600 
    172 H172        3.2687  -14.9239  -39.7521 H         1 UNK         0.0600 
    173 H173        2.0055  -13.7631  -39.3724 H         1 UNK         0.0600 
    174 H174        1.0940  -13.6741  -42.2077 H         1 UNK         0.3000 
    175 H175        4.0994  -12.9788  -43.6796 H         1 UNK         0.0600 
    176 H176        2.0158  -14.4167  -45.4009 H         1 UNK         0.0600 
    177 H177        3.1799  -13.2300  -45.9797 H         1 UNK         0.0600 
    178 H178        3.7342  -14.7712  -45.3591 H         1 UNK         0.0600 
    179 H179        1.3491  -12.2953  -44.3395 H         1 UNK         0.3000 
    180 H180        0.8541   -9.9892  -41.7626 H         1 UNK         0.0600 
    181 H181        0.5714   -8.2894  -43.5458 H         1 UNK         0.0600 
    182 H182        1.5043   -9.2733  -44.6733 H         1 UNK         0.0600 
    183 H183        2.2808   -8.5727  -43.2571 H         1 UNK         0.0600 
    184 H184       -0.6145  -10.4574  -44.1613 H         1 UNK         0.3000 
    185 H185       -2.5830  -13.1750  -42.9259 H         1 UNK         0.0600 
    186 H186       -3.0999  -10.2509  -43.6717 H         1 UNK         0.0600 
    187 H187       -4.3012  -11.5387  -43.6229 H         1 UNK         0.0600 
    188 H188       -3.5046  -11.0202  -42.1456 H         1 UNK         0.0600 
    189 H189       -2.3070  -13.5971  -45.0340 H         1 UNK         0.3000 
    190 H190       -1.9594  -20.6030  -46.9534 H         1 UNK         0.3000 
    191 H191       -4.4612  -21.0403  -48.1087 H         1 UNK         0.0600 
    192 H192       -3.6891  -18.8637  -47.2233 H         1 UNK         0.0600 
    193 H193       -3.7174  -19.4883  -45.5764 H         1 UNK         0.0600 
    194 H194       -5.2170  -19.3043  -46.4786 H         1 UNK         0.0600 
    195 H195       -3.2290  -22.3022  -45.0103 H         1 UNK         0.3000 
    196 H196       -5.9240  -23.4481  -44.3749 H         1 UNK         0.0600 
    197 H197       -5.0317  -21.8961  -42.6606 H         1 UNK         0.0600 
    198 H198       -3.5555  -22.8459  -42.5279 H         1 UNK         0.0600 
    199 H199       -5.0972  -23.5429  -42.0532 H         1 UNK         0.0600 
    200 H200       -2.3917  -24.1857  -44.2123 H         1 UNK         0.3000 
    201 H201       -2.8273  -26.9113  -43.5266 H         1 UNK         0.0600 
    202 H202       -0.7948  -25.5882  -42.9061 H         1 UNK         0.0600 
    203 H203       -0.2856  -25.6027  -44.5939 H         1 UNK         0.0600 
    204 H204       -0.3851  -27.1060  -43.6943 H         1 UNK         0.0600 
    205 H205       -2.2241  -25.3736  -46.6910 H         1 UNK         0.3000 
    206 H206       -2.3829  -28.0309  -48.0526 H         1 UNK         0.0600 
    207 H207       -1.5172  -25.3553  -49.2454 H         1 UNK         0.0600 
    208 H208       -0.3934  -26.5018  -48.5190 H         1 UNK         0.0600 
    209 H209       -1.3302  -26.9585  -49.9309 H         1 UNK         0.0600 
    210 H210       -4.4329  -25.6862  -47.0127 H         1 UNK         0.3000 
    211 H211       -6.4479  -24.9049  -47.4681 H         1 UNK         0.0600 
    212 H212       -6.7884  -27.3815  -49.2387 H         1 UNK         0.0600 
    213 H213       -8.0779  -26.4196  -48.5286 H         1 UNK         0.0600 
    214 H214       -7.0052  -27.3416  -47.4890 H         1 UNK         0.0600 
    215 H215       -4.3972  -23.7646  -48.9662 H         1 UNK         0.3000 
    216 H216       -3.9684  -22.2849  -50.5069 H         1 UNK         0.0600 
    217 H217       -5.7492  -20.9485  -51.5504 H         1 UNK         0.0600 
    218 H218       -6.1527  -21.2461  -49.8667 H         1 UNK         0.0600 
    219 H219       -6.9600  -22.1547  -51.1417 H         1 UNK         0.0600 
    220 H220       -3.2663  -24.6949  -51.2033 H         1 UNK         0.3000 
    221 H221       -4.1626  -25.7892  -53.6107 H         1 UNK         0.0600 
    222 H222       -1.3771  -25.8563  -52.3317 H         1 UNK         0.0600 
    223 H223       -2.6875  -27.0089  -52.0711 H         1 UNK         0.0600 
    224 H224       -1.9048  -26.9124  -53.6366 H         1 UNK         0.0600 
    225 H225       -1.7425  -23.2139  -53.1091 H         1 UNK         0.3000 
    226 H226       -1.2970  -22.8635  -56.0194 H         1 UNK         0.0600 
    227 H227        0.6578  -22.6854  -54.4949 H         1 UNK         0.0600 
    228 H228        0.3303  -21.1576  -55.2968 H         1 UNK         0.0600 
    229 H229       -0.1232  -21.3766  -53.6140 H         1 UNK         0.0600 
    230 H230       -3.6822  -22.5676  -56.2047 H         1 UNK         0.3000 
    231 H231       -5.1311  -20.3997  -55.1663 H         1 UNK         0.0600 
    232 H232       -6.6806  -20.8618  -57.0791 H         1 UNK         0.0600 
    233 H233       -6.1793  -22.3452  -56.2812 H         1 UNK         0.0600 
    234 H234       -5.4627  -21.8888  -57.8274 H         1 UNK         0.0600 
    235 H235       -4.9785  -18.2802  -55.4794 H         1 UNK         0.3000 
    236 H236       -4.3009  -16.2690  -56.0887 H         1 UNK         0.0600 
    237 H237       -4.4853  -17.2515  -58.9861 H         1 UNK         0.0600 
    238 H238       -5.8444  -16.6661  -58.0277 H         1 UNK         0.0600 
    239 H239       -4.5298  -15.5801  -58.4429 H         1 UNK         0.0600 
    240 H240       -2.2714  -18.3262  -55.5522 H         1 UNK         0.3000 
    241 H241       -0.1315  -18.6156  -55.3929 H         1 UNK         0.0600 
    242 H242       -0.3418  -19.8751  -59.0413 H         1 UNK         0.3800 
    243 H243       -1.6834  -19.3418  -58.0608 H         1 UNK         0.3800 
    244 H244        0.4180  -15.9369  -56.7456 H         1 UNK         0.0800 
    245 H245        1.5854  -16.8924  -55.8815 H         1 UNK         0.0800 
    246 H246        1.8028  -16.1965  -52.7688 H         1 UNK         0.0800 
    247 H247        1.4255  -17.6757  -53.6119 H         1 UNK         0.0800 
@<TRIPOS>BOND
     1    1    2 1    
     2    1  127 1    
     3    1  128 1    
     4    1  129 1    
     5    2    3 2    
     6    2    4 am   BACKBONE|DICT|INTERRES
     7    4    5 1    
     8    4  130 1    
     9    5    6 1    
    10    5   65 1    
    11    5  131 1    
    12    6    7 1    
    13    6  132 1    
    14    6  133 1    
    15    7    8 1    
    16    8    9 1    
    17    8  134 1    
    18    8  135 1    
    19    9   10 ar   
    20    9   14 ar   
    21   10   11 ar   
    22   10  136 1    
    23   11   12 ar   
    24   11  126 1    
    25   12   13 ar   
    26   12  137 1    
    27   13   14 ar   
    28   13   15 1    
    29   14  138 1    
    30   15   16 1    
    31   15  139 1    
    32   15  140 1    
    33   16   17 1    
    34   17   18 1    
    35   17  141 1    
    36   17  142 1    
    37   18   19 1    
    38   18   67 1    
    39   18  143 1    
    40   19   20 am   BACKBONE|DICT|INTERRES
    41   19  144 1    
    42   20   21 2    
    43   20   22 1    
    44   22   23 1    
    45   22   24 1    
    46   22  145 1    
    47   23  146 1    
    48   23  147 1    
    49   23  148 1    
    50   24   25 am   BACKBONE|DICT|INTERRES
    51   24  149 1    
    52   25   26 2    
    53   25   27 1    
    54   27   28 1    
    55   27   29 1    
    56   27  150 1    
    57   28  151 1    
    58   28  152 1    
    59   28  153 1    
    60   29   30 am   BACKBONE|DICT|INTERRES
    61   29  154 1    
    62   30   31 2    
    63   30   32 1    
    64   32   33 1    
    65   32   34 1    
    66   32  155 1    
    67   33  156 1    
    68   33  157 1    
    69   33  158 1    
    70   34   35 am   BACKBONE|DICT|INTERRES
    71   34  159 1    
    72   35   36 2    
    73   35   37 1    
    74   37   38 1    
    75   37   39 1    
    76   37  160 1    
    77   38  161 1    
    78   38  162 1    
    79   38  163 1    
    80   39   40 am   BACKBONE|DICT|INTERRES
    81   39  164 1    
    82   40   41 2    
    83   40   42 1    
    84   42   43 1    
    85   42   44 1    
    86   42  165 1    
    87   43  166 1    
    88   43  167 1    
    89   43  168 1    
    90   44   45 am   BACKBONE|DICT|INTERRES
    91   44  169 1    
    92   45   46 2    
    93   45   47 1    
    94   47   48 1    
    95   47   49 1    
    96   47  170 1    
    97   48  171 1    
    98   48  172 1    
    99   48  173 1    
   100   49   50 am   BACKBONE|DICT|INTERRES
   101   49  174 1    
   102   50   51 2    
   103   50   52 1    
   104   52   53 1    
   105   52   54 1    
   106   52  175 1    
   107   53  176 1    
   108   53  177 1    
   109   53  178 1    
   110   54   55 am   BACKBONE|DICT|INTERRES
   111   54  179 1    
   112   55   56 2    
   113   55   57 1    
   114   57   58 1    
   115   57   59 1    
   116   57  180 1    
   117   58  181 1    
   118   58  182 1    
   119   58  183 1    
   120   59   60 am   BACKBONE|DICT|INTERRES
   121   59  184 1    
   122   60   61 2    
   123   60   62 1    
   124   62   63 1    
   125   62   64 1    
   126   62  185 1    
   127   63  186 1    
   128   63  187 1    
   129   63  188 1    
   130   64   65 am   BACKBONE|DICT|INTERRES
   131   64  189 1    
   132   65   66 2    
   133   67   68 2    
   134   67   69 am   BACKBONE|DICT|INTERRES
   135   69   70 1    
   136   69  190 1    
   137   70   71 1    
   138   70   72 1    
   139   70  191 1    
   140   71  192 1    
   141   71  193 1    
   142   71  194 1    
   143   72   73 2    
   144   72   74 am   BACKBONE|DICT|INTERRES
   145   74   75 1    
   146   74  195 1    
   147   75   76 1    
   148   75   77 1    
   149   75  196 1    
   150   76  197 1    
   151   76  198 1    
   152   76  199 1    
   153   77   78 2    
   154   77   79 am   BACKBONE|DICT|INTERRES
   155   79   80 1    
   156   79  200 1    
   157   80   81 1    
   158   80   82 1    
   159   80  201 1    
   160   81  202 1    
   161   81  203 1    
   162   81  204 1    
   163   82   83 2    
   164   82   84 am   BACKBONE|DICT|INTERRES
   165   84   85 1    
   166   84  205 1    
   167   85   86 1    
   168   85   87 1    
   169   85  206 1    
   170   86  207 1    
   171   86  208 1    
   172   86  209 1    
   173   87   88 2    
   174   87   89 am   BACKBONE|DICT|INTERRES
   175   89   90 1    
   176   89  210 1    
   177   90   91 1    
   178   90   92 1    
   179   90  211 1    
   180   91  212 1    
   181   91  213 1    
   182   91  214 1    
   183   92   93 2    
   184   92   94 am   BACKBONE|DICT|INTERRES
   185   94   95 1    
   186   94  215 1    
   187   95   96 1    
   188   95   97 1    
   189   95  216 1    
   190   96  217 1    
   191   96  218 1    
   192   96  219 1    
   193   97   98 2    
   194   97   99 am   BACKBONE|DICT|INTERRES
   195   99  100 1    
   196   99  220 1    
   197  100  101 1    
   198  100  102 1    
   199  100  221 1    
   200  101  222 1    
   201  101  223 1    
   202  101  224 1    
   203  102  103 2    
   204  102  104 am   BACKBONE|DICT|INTERRES
   205  104  105 1    
   206  104  225 1    
   207  105  106 1    
   208  105  107 1    
   209  105  226 1    
   210  106  227 1    
   211  106  228 1    
   212  106  229 1    
   213  107  108 2    
   214  107  109 am   BACKBONE|DICT|INTERRES
   215  109  110 1    
   216  109  230 1    
   217  110  111 1    
   218  110  112 1    
   219  110  231 1    
   220  111  232 1    
   221  111  233 1    
   222  111  234 1    
   223  112  113 2    
   224  112  114 am   BACKBONE|DICT|INTERRES
   225  114  115 1    
   226  114  235 1    
   227  115  116 1    
   228  115  117 1    
   229  115  236 1    
   230  116  237 1    
   231  116  238 1    
   232  116  239 1    
   233  117  118 2    
   234  117  119 am   BACKBONE|DICT|INTERRES
   235  119  120 1    
   236  119  240 1    
   237  120  121 1    
   238  120  124 1    
   239  120  241 1    
   240  121  122 am   BACKBONE|DICT|INTERRES
   241  121  123 2    
   242  122  242 1    
   243  122  243 1    
   244  124  125 1    
   245  124  244 1    
   246  124  245 1    
   247  125  126 1    
   248  126  246 1    
   249  126  247 1    
@<TRIPOS>SUBSTRUCTURE
     1 UNK         1 GROUP             0       ****    0 ROOT    
