@<TRIPOS>MOLECULE
3R540
247   249    1
SMALL
USER_CHARGES


@<TRIPOS>ATOM
      1 CA          3.2572   -8.2262  -47.5382 C.3       0 UNK        -0.1800 
      2 C           3.1126   -9.7253  -47.3239 C.2       0 UNK         0.5000 
      3 O           4.0650  -10.3776  -46.8990 O.2       0 UNK        -0.5000 
      4 N           1.9218  -10.2762  -47.5941 N.am      1 UNK        -0.5000 
      5 CA          1.6076  -11.7054  -47.4609 C.3       1 UNK         0.1400 
      6 C6          0.2321  -12.0359  -48.0949 C.3       23 UNK        -0.0398 
      7 S7          0.1025  -13.7892  -48.5617 S.3       23 UNK        -0.2404 
      8 C8         -1.6303  -13.9305  -49.0900 C.3       23 UNK        -0.0205 
      9 C9         -2.0729  -15.3867  -49.0860 C.ar      23 UNK        -0.0193 
     10 C10        -1.5186  -16.2936  -49.9951 C.ar      23 UNK        -0.1150 
     11 C11        -1.8917  -17.6409  -49.9758 C.ar      23 UNK        -0.0193 
     12 C12        -2.8386  -18.0759  -49.0437 C.ar      23 UNK        -0.1150 
     13 C13        -3.4175  -17.1753  -48.1445 C.ar      23 UNK        -0.0193 
     14 C14        -3.0267  -15.8333  -48.1666 C.ar      23 UNK        -0.1150 
     15 C15        -4.4724  -17.6501  -47.1584 C.3       23 UNK        -0.0205 
     16 S16        -3.7294  -18.0727  -45.5526 S.3       23 UNK        -0.2404 
     17 C17        -4.4801  -19.6972  -45.2175 C.3       23 UNK        -0.0398 
     18 CA         -3.6573  -20.8599  -45.8212 C.3       11 UNK         0.1400 
     19 N          -2.3043  -20.9566  -45.2576 N.am      11 UNK        -0.5000 
     20 C          -1.3428  -21.7668  -45.7291 C.2       10 UNK         0.5000 
     21 O          -1.4935  -22.4887  -46.7116 O.2       10 UNK        -0.5000 
     22 CA         -0.0222  -21.8727  -44.9394 C.3       10 UNK         0.1400 
     23 CB          1.0723  -20.9997  -45.5669 C.3       10 UNK        -0.1800 
     24 N          -0.1460  -21.5455  -43.5195 N.am      10 UNK        -0.5000 
     25 C          -0.9670  -22.1455  -42.6459 C.2       9 UNK         0.5000 
     26 O          -1.6671  -23.1200  -42.9285 O.2       9 UNK        -0.5000 
     27 CA         -1.0754  -21.5024  -41.2477 C.3       9 UNK         0.1400 
     28 CB         -0.1654  -22.2355  -40.2516 C.3       9 UNK        -0.1800 
     29 N          -0.7620  -20.0655  -41.2216 N.am      9 UNK        -0.5000 
     30 C          -1.3987  -19.1191  -41.9286 C.2       8 UNK         0.5000 
     31 O          -2.3335  -19.3698  -42.6909 O.2       8 UNK        -0.5000 
     32 CA         -0.8976  -17.6687  -41.8034 C.3       8 UNK         0.1400 
     33 CB          0.5508  -17.5502  -41.2795 C.3       8 UNK        -0.1800 
     34 N          -1.0147  -17.0269  -43.1096 N.am      8 UNK        -0.5000 
     35 C          -1.1000  -15.7143  -43.3408 C.2       7 UNK         0.5000 
     36 O          -1.0786  -14.8604  -42.4523 O.2       7 UNK        -0.5000 
     37 CA         -1.1639  -15.2962  -44.8230 C.3       7 UNK         0.1400 
     38 CB         -1.5285  -13.8140  -45.0093 C.3       7 UNK        -0.1800 
     39 N           0.1180  -15.5771  -45.4686 N.am      7 UNK        -0.5000 
     40 C           0.4755  -16.7743  -45.9569 C.2       6 UNK         0.5000 
     41 O          -0.2848  -17.7392  -46.0126 O.2       6 UNK        -0.5000 
     42 CA          1.9490  -16.9553  -46.3611 C.3       6 UNK         0.1400 
     43 CB          2.2129  -16.5453  -47.8164 C.3       6 UNK        -0.1800 
     44 N           2.8275  -16.1981  -45.4743 N.am      6 UNK        -0.5000 
     45 C           3.2694  -16.6383  -44.2898 C.2       5 UNK         0.5000 
     46 O           3.0668  -17.7789  -43.8711 O.2       5 UNK        -0.5000 
     47 CA          4.0449  -15.6245  -43.4224 C.3       5 UNK         0.1400 
     48 CB          5.0504  -16.2946  -42.4638 C.3       5 UNK        -0.1800 
     49 N           4.6839  -14.5589  -44.2021 N.am      5 UNK        -0.5000 
     50 C           5.6718  -14.6707  -45.1042 C.2       4 UNK         0.5000 
     51 O           6.2279  -15.7321  -45.3875 O.2       4 UNK        -0.5000 
     52 CA          6.0998  -13.3805  -45.8364 C.3       4 UNK         0.1400 
     53 CB          5.6110  -13.4121  -47.2934 C.3       4 UNK        -0.1800 
     54 N           5.5971  -12.1588  -45.2050 N.am      4 UNK        -0.5000 
     55 C           6.0295  -11.6500  -44.0432 C.2       3 UNK         0.5000 
     56 O           6.9837  -12.1007  -43.4091 O.2       3 UNK        -0.5000 
     57 CA          5.2166  -10.4743  -43.4705 C.3       3 UNK         0.1400 
     58 CB          5.7121   -9.1338  -44.0346 C.3       3 UNK        -0.1800 
     59 N           3.7810  -10.6192  -43.7316 N.am      3 UNK        -0.5000 
     60 C           2.9887  -11.5234  -43.1365 C.2       2 UNK         0.5000 
     61 O           3.3813  -12.3125  -42.2781 O.2       2 UNK        -0.5000 
     62 CA          1.5240  -11.5882  -43.6041 C.3       2 UNK         0.1400 
     63 CB          0.6578  -10.5894  -42.8235 C.3       2 UNK        -0.1800 
     64 N           1.3837  -11.3330  -45.0384 N.am      2 UNK        -0.5000 
     65 C           1.7141  -12.2072  -45.9999 C.2       1 UNK         0.5000 
     66 O           2.1184  -13.3493  -45.7675 O.2       1 UNK        -0.5000 
     67 C          -4.4526  -22.1805  -45.7104 C.2       11 UNK         0.5000 
     68 O          -5.3613  -22.3993  -46.5119 O.2       11 UNK        -0.5000 
     69 N          -4.1033  -23.0307  -44.7356 N.am      12 UNK        -0.5000 
     70 CA         -4.6547  -24.3730  -44.5758 C.3       12 UNK         0.1400 
     71 CB         -4.9834  -24.6068  -43.0926 C.3       12 UNK        -0.1800 
     72 C          -3.6704  -25.4399  -45.0825 C.2       12 UNK         0.5000 
     73 O          -4.1013  -26.4080  -45.7097 O.2       12 UNK        -0.5000 
     74 N          -2.3769  -25.2686  -44.7739 N.am      13 UNK        -0.5000 
     75 CA         -1.3471  -26.2821  -44.9978 C.3       13 UNK         0.1400 
     76 CB         -0.1557  -26.0057  -44.0675 C.3       13 UNK        -0.1800 
     77 C          -0.8756  -26.4174  -46.4578 C.2       13 UNK         0.5000 
     78 O          -0.4977  -27.5226  -46.8513 O.2       13 UNK        -0.5000 
     79 N          -0.8638  -25.3215  -47.2311 N.am      14 UNK        -0.5000 
     80 CA         -0.3729  -25.3277  -48.6105 C.3       14 UNK         0.1400 
     81 CB          0.0482  -23.9106  -49.0305 C.3       14 UNK        -0.1800 
     82 C          -1.4294  -25.8757  -49.5815 C.2       14 UNK         0.5000 
     83 O          -2.5998  -25.4942  -49.5014 O.2       14 UNK        -0.5000 
     84 N          -0.9814  -26.7061  -50.5322 N.am      15 UNK        -0.5000 
     85 CA         -1.8092  -27.2582  -51.6075 C.3       15 UNK         0.1400 
     86 CB         -1.0053  -28.3121  -52.3830 C.3       15 UNK        -0.1800 
     87 C          -2.3448  -26.1745  -52.5609 C.2       15 UNK         0.5000 
     88 O          -3.4790  -26.2816  -53.0237 O.2       15 UNK        -0.5000 
     89 N          -1.5413  -25.1259  -52.7941 N.am      16 UNK        -0.5000 
     90 CA         -1.9214  -23.9485  -53.5757 C.3       16 UNK         0.1400 
     91 CB         -0.6917  -23.0542  -53.7916 C.3       16 UNK        -0.1800 
     92 C          -3.0578  -23.1451  -52.9212 C.2       16 UNK         0.5000 
     93 O          -3.9340  -22.6528  -53.6299 O.2       16 UNK        -0.5000 
     94 N          -3.0459  -23.0541  -51.5848 N.am      17 UNK        -0.5000 
     95 CA         -4.0896  -22.3871  -50.8101 C.3       17 UNK         0.1400 
     96 CB         -3.5758  -22.0719  -49.4024 C.3       17 UNK        -0.1800 
     97 C          -5.3818  -23.2154  -50.7617 C.2       17 UNK         0.5000 
     98 O          -6.4644  -22.6474  -50.9032 O.2       17 UNK        -0.5000 
     99 N          -5.2463  -24.5432  -50.6304 N.am      18 UNK        -0.5000 
    100 CA        -6.3531  -25.5007  -50.6975 C.3       18 UNK         0.1400 
    101 CB        -5.8420  -26.8991  -50.3206 C.3       18 UNK        -0.1800 
    102 C         -7.0443  -25.5179  -52.0766 C.2       18 UNK         0.5000 
    103 O         -8.2707  -25.6068  -52.1427 O.2       18 UNK        -0.5000 
    104 N         -6.2487  -25.3926  -53.1477 N.am      19 UNK        -0.5000 
    105 CA        -6.7102  -25.2669  -54.5321 C.3       19 UNK         0.1400 
    106 CB        -5.5456  -25.6222  -55.4706 C.3       19 UNK        -0.1800 
    107 C         -7.2578  -23.8666  -54.8800 C.2       19 UNK         0.5000 
    108 O         -7.8862  -23.7183  -55.9289 O.2       19 UNK        -0.5000 
    109 N         -6.9912  -22.8708  -54.0205 N.am      20 UNK        -0.5000 
    110 CA        -7.2780  -21.4411  -54.1870 C.3       20 UNK         0.1400 
    111 CB        -8.7979  -21.1774  -54.1911 C.3       20 UNK        -0.1800 
    112 C         -6.5455  -20.8277  -55.4015 C.2       20 UNK         0.5000 
    113 O         -7.1060  -19.9962  -56.1176 O.2       20 UNK        -0.5000 
    114 N         -5.2969  -21.2628  -55.6095 N.am      21 UNK        -0.5000 
    115 CA        -4.4163  -20.8437  -56.6993 C.3       21 UNK         0.1400 
    116 CB        -3.4862  -22.0180  -57.0467 C.3       21 UNK        -0.1800 
    117 C         -3.5939  -19.5854  -56.3567 C.2       21 UNK         0.5000 
    118 O         -2.9693  -19.0181  -57.2544 O.2       21 UNK        -0.5000 
    119 N         -3.5870  -19.1851  -55.0778 N.am      22 UNK        -0.5000 
    120 CA        -2.9004  -17.9976  -54.5432 C.3       22 UNK         0.1400 
    121 C         -3.3510  -16.6708  -55.2188 C.2       22 UNK         0.5000 
    122 N         -2.4234  -15.7708  -55.5162 N.am      22 UNK        -0.7600 
    123 O         -4.5378  -16.4321  -55.4314 O.2       22 UNK        -0.5000 
    124 C124       -3.0792  -17.8856  -53.0082 C.3       23 UNK        -0.0398 
    125 S125       -2.4656  -19.3499  -52.1066 S.3       23 UNK        -0.2404 
    126 C126       -1.2575  -18.6263  -50.9500 C.3       23 UNK        -0.0205 
    127 H127        3.5337   -7.7393  -46.6030 H         1 UNK         0.0600 
    128 H128        2.3312   -7.7762  -47.8967 H         1 UNK         0.0600 
    129 H129        4.0392   -8.0276  -48.2709 H         1 UNK         0.0600 
    130 H130        1.1754   -9.6880  -47.9373 H         1 UNK         0.3000 
    131 H131        2.3755  -12.2353  -48.0292 H         1 UNK         0.0600 
    132 H132       -0.5888  -11.7622  -47.4298 H         1 UNK         0.0800 
    133 H133        0.0898  -11.4565  -49.0083 H         1 UNK         0.0800 
    134 H134       -2.2663  -13.3358  -48.4330 H         1 UNK         0.0800 
    135 H135       -1.7403  -13.5144  -50.0923 H         1 UNK         0.0800 
    136 H136       -0.7796  -15.9485  -50.7045 H         1 UNK         0.1150 
    137 H137       -3.1297  -19.1159  -49.0249 H         1 UNK         0.1150 
    138 H138       -3.4625  -15.1397  -47.4615 H         1 UNK         0.1150 
    139 H139       -5.2240  -16.8735  -47.0100 H         1 UNK         0.0800 
    140 H140       -5.0012  -18.5080  -47.5761 H         1 UNK         0.0800 
    141 H141       -5.5019  -19.6932  -45.6020 H         1 UNK         0.0800 
    142 H142       -4.5692  -19.8162  -44.1366 H         1 UNK         0.0800 
    143 H143       -3.5346  -20.6551  -46.8849 H         1 UNK         0.0600 
    144 H144       -2.1286  -20.3940  -44.4318 H         1 UNK         0.3000 
    145 H145        0.3036  -22.9103  -45.0114 H         1 UNK         0.0600 
    146 H146        2.0482  -21.2211  -45.1346 H         1 UNK         0.0600 
    147 H147        1.1464  -21.1687  -46.6421 H         1 UNK         0.0600 
    148 H148        0.8739  -19.9413  -45.4106 H         1 UNK         0.0600 
    149 H149        0.3846  -20.7506  -43.1959 H         1 UNK         0.3000 
    150 H150       -2.1098  -21.6204  -40.9190 H         1 UNK         0.0600 
    151 H151        0.8879  -22.1257  -40.5127 H         1 UNK         0.0600 
    152 H152       -0.3026  -21.8569  -39.2385 H         1 UNK         0.0600 
    153 H153       -0.3890  -23.3031  -40.2307 H         1 UNK         0.0600 
    154 H154        0.0021  -19.7856  -40.6237 H         1 UNK         0.3000 
    155 H155       -1.5678  -17.1639  -41.1050 H         1 UNK         0.0600 
    156 H156        1.2493  -18.1119  -41.9003 H         1 UNK         0.0600 
    157 H157        0.6365  -17.9205  -40.2576 H         1 UNK         0.0600 
    158 H158        0.8857  -16.5129  -41.2652 H         1 UNK         0.0600 
    159 H159       -1.0773  -17.6570  -43.9024 H         1 UNK         0.3000 
    160 H160       -1.9470  -15.8799  -45.3059 H         1 UNK         0.0600 
    161 H161       -0.7920  -13.1520  -44.5588 H         1 UNK         0.0600 
    162 H162       -2.4919  -13.5917  -44.5493 H         1 UNK         0.0600 
    163 H163       -1.6107  -13.5603  -46.0642 H         1 UNK         0.0600 
    164 H164        0.8092  -14.8356  -45.4530 H         1 UNK         0.3000 
    165 H165        2.1779  -18.0197  -46.2775 H         1 UNK         0.0600 
    166 H166        1.4296  -16.9104  -48.4825 H         1 UNK         0.0600 
    167 H167        2.2703  -15.4635  -47.9248 H         1 UNK         0.0600 
    168 H168        3.1592  -16.9565  -48.1679 H         1 UNK         0.0600 
    169 H169        2.9792  -15.2237  -45.7100 H         1 UNK         0.3000 
    170 H170        3.2918  -15.1297  -42.8074 H         1 UNK         0.0600 
    171 H171        4.5418  -16.9671  -41.7721 H         1 UNK         0.0600 
    172 H172        5.7946  -16.8825  -43.0014 H         1 UNK         0.0600 
    173 H173        5.5768  -15.5521  -41.8639 H         1 UNK         0.0600 
    174 H174        4.3018  -13.6353  -44.0535 H         1 UNK         0.3000 
    175 H175        7.1910  -13.3459  -45.8371 H         1 UNK         0.0600 
    176 H176        5.9380  -12.5268  -47.8391 H         1 UNK         0.0600 
    177 H177        6.0034  -14.2826  -47.8207 H         1 UNK         0.0600 
    178 H178        4.5229  -13.4570  -47.3504 H         1 UNK         0.0600 
    179 H179        4.8634  -11.6619  -45.7031 H         1 UNK         0.3000 
    180 H180        5.3670  -10.4615  -42.3888 H         1 UNK         0.0600 
    181 H181        5.5978   -9.0803  -45.1174 H         1 UNK         0.0600 
    182 H182        6.7692   -8.9857  -43.8107 H         1 UNK         0.0600 
    183 H183        5.1676   -8.2965  -43.5978 H         1 UNK         0.0600 
    184 H184        3.3943  -10.0394  -44.4611 H         1 UNK         0.3000 
    185 H185        1.1579  -12.5944  -43.3883 H         1 UNK         0.0600 
    186 H186        0.7295  -10.7672  -41.7497 H         1 UNK         0.0600 
    187 H187        0.9630   -9.5585  -43.0074 H         1 UNK         0.0600 
    188 H188       -0.3933  -10.6834  -43.0973 H         1 UNK         0.0600 
    189 H189        1.0618  -10.4156  -45.3103 H         1 UNK         0.3000 
    190 H190       -3.3321  -22.7854  -44.1260 H         1 UNK         0.3000 
    191 H191       -5.5817  -24.4793  -45.1431 H         1 UNK         0.0600 
    192 H192       -5.7221  -23.8886  -42.7367 H         1 UNK         0.0600 
    193 H193       -5.3978  -25.6037  -42.9371 H         1 UNK         0.0600 
    194 H194       -4.0985  -24.5163  -42.4612 H         1 UNK         0.0600 
    195 H195       -2.1071  -24.4670  -44.2122 H         1 UNK         0.3000 
    196 H196       -1.7642  -27.2492  -44.7077 H         1 UNK         0.0600 
    197 H197        0.5988  -26.7883  -44.1574 H         1 UNK         0.0600 
    198 H198       -0.4684  -25.9751  -43.0235 H         1 UNK         0.0600 
    199 H199        0.3287  -25.0586  -44.2987 H         1 UNK         0.0600 
    200 H200       -1.2331  -24.4412  -46.8853 H         1 UNK         0.3000 
    201 H201        0.5166  -25.9599  -48.6581 H         1 UNK         0.0600 
    202 H202        0.5332  -23.9216  -50.0072 H         1 UNK         0.0600 
    203 H203       -0.8060  -23.2376  -49.1018 H         1 UNK         0.0600 
    204 H204        0.7554  -23.4804  -48.3211 H         1 UNK         0.0600 
    205 H205       -0.0073  -26.9731  -50.5328 H         1 UNK         0.3000 
    206 H206       -2.6686  -27.7524  -51.1501 H         1 UNK         0.0600 
    207 H207       -0.6869  -29.1247  -51.7297 H         1 UNK         0.0600 
    208 H208       -1.6073  -28.7535  -53.1785 H         1 UNK         0.0600 
    209 H209       -0.1152  -27.8828  -52.8446 H         1 UNK         0.0600 
    210 H210       -0.6214  -25.1226  -52.3797 H         1 UNK         0.3000 
    211 H211       -2.2746  -24.2890  -54.5514 H         1 UNK         0.0600 
    212 H212       -0.2739  -22.7070  -52.8457 H         1 UNK         0.0600 
    213 H213       -0.9497  -22.1710  -54.3781 H         1 UNK         0.0600 
    214 H214        0.0923  -23.5848  -54.3320 H         1 UNK         0.0600 
    215 H215       -2.3229  -23.5274  -51.0649 H         1 UNK         0.3000 
    216 H216       -4.3286  -21.4399  -51.2968 H         1 UNK         0.0600 
    217 H217       -4.3192  -21.4875  -48.8617 H         1 UNK         0.0600 
    218 H218       -2.6572  -21.4860  -49.4338 H         1 UNK         0.0600 
    219 H219       -3.3805  -22.9755  -48.8238 H         1 UNK         0.0600 
    220 H220       -4.3197  -24.9231  -50.4665 H         1 UNK         0.3000 
    221 H221       -7.0965  -25.1996  -49.9565 H         1 UNK         0.0600 
    222 H222       -5.1030  -27.2640  -51.0337 H         1 UNK         0.0600 
    223 H223       -5.3813  -26.8981  -49.3322 H         1 UNK         0.0600 
    224 H224       -6.6602  -27.6199  -50.2990 H         1 UNK         0.0600 
    225 H225       -5.2425  -25.4153  -53.0104 H         1 UNK         0.3000 
    226 H226       -7.5152  -25.9856  -54.6977 H         1 UNK         0.0600 
    227 H227       -5.8538  -25.5772  -56.5159 H         1 UNK         0.0600 
    228 H228       -4.7073  -24.9355  -55.3458 H         1 UNK         0.0600 
    229 H229       -5.1818  -26.6326  -55.2832 H         1 UNK         0.0600 
    230 H230       -6.4657  -23.1071  -53.1895 H         1 UNK         0.3000 
    231 H231       -6.8636  -20.9483  -53.3062 H         1 UNK         0.0600 
    232 H232       -9.2803  -21.5877  -55.0786 H         1 UNK         0.0600 
    233 H233       -9.0080  -20.1075  -54.1711 H         1 UNK         0.0600 
    234 H234       -9.2752  -21.6174  -53.3154 H         1 UNK         0.0600 
    235 H235       -4.8919  -21.9103  -54.9339 H         1 UNK         0.3000 
    236 H236       -5.0189  -20.6143  -57.5805 H         1 UNK         0.0600 
    237 H237       -2.8498  -21.7752  -57.8984 H         1 UNK         0.0600 
    238 H238       -2.8334  -22.2739  -56.2118 H         1 UNK         0.0600 
    239 H239       -4.0570  -22.9086  -57.3108 H         1 UNK         0.0600 
    240 H240       -4.1120  -19.7295  -54.4105 H         1 UNK         0.3000 
    241 H241       -1.8371  -18.1349  -54.7491 H         1 UNK         0.0600 
    242 H242       -1.4441  -15.9420  -55.3467 H         1 UNK         0.3800 
    243 H243       -2.7050  -14.9004  -55.9404 H         1 UNK         0.3800 
    244 H244       -4.1319  -17.7504  -52.7537 H         1 UNK         0.0800 
    245 H245       -2.5646  -16.9975  -52.6384 H         1 UNK         0.0800 
    246 H246       -0.7911  -19.4321  -50.3816 H         1 UNK         0.0800 
    247 H247       -0.4581  -18.1519  -51.5213 H         1 UNK         0.0800 
@<TRIPOS>BOND
     1    1    2 1    
     2    1  127 1    
     3    1  128 1    
     4    1  129 1    
     5    2    3 2    
     6    2    4 am   BACKBONE|DICT|INTERRES
     7    4    5 1    
     8    4  130 1    
     9    5    6 1    
    10    5   65 1    
    11    5  131 1    
    12    6    7 1    
    13    6  132 1    
    14    6  133 1    
    15    7    8 1    
    16    8    9 1    
    17    8  134 1    
    18    8  135 1    
    19    9   10 ar   
    20    9   14 ar   
    21   10   11 ar   
    22   10  136 1    
    23   11   12 ar   
    24   11  126 1    
    25   12   13 ar   
    26   12  137 1    
    27   13   14 ar   
    28   13   15 1    
    29   14  138 1    
    30   15   16 1    
    31   15  139 1    
    32   15  140 1    
    33   16   17 1    
    34   17   18 1    
    35   17  141 1    
    36   17  142 1    
    37   18   19 1    
    38   18   67 1    
    39   18  143 1    
    40   19   20 am   BACKBONE|DICT|INTERRES
    41   19  144 1    
    42   20   21 2    
    43   20   22 1    
    44   22   23 1    
    45   22   24 1    
    46   22  145 1    
    47   23  146 1    
    48   23  147 1    
    49   23  148 1    
    50   24   25 am   BACKBONE|DICT|INTERRES
    51   24  149 1    
    52   25   26 2    
    53   25   27 1    
    54   27   28 1    
    55   27   29 1    
    56   27  150 1    
    57   28  151 1    
    58   28  152 1    
    59   28  153 1    
    60   29   30 am   BACKBONE|DICT|INTERRES
    61   29  154 1    
    62   30   31 2    
    63   30   32 1    
    64   32   33 1    
    65   32   34 1    
    66   32  155 1    
    67   33  156 1    
    68   33  157 1    
    69   33  158 1    
    70   34   35 am   BACKBONE|DICT|INTERRES
    71   34  159 1    
    72   35   36 2    
    73   35   37 1    
    74   37   38 1    
    75   37   39 1    
    76   37  160 1    
    77   38  161 1    
    78   38  162 1    
    79   38  163 1    
    80   39   40 am   BACKBONE|DICT|INTERRES
    81   39  164 1    
    82   40   41 2    
    83   40   42 1    
    84   42   43 1    
    85   42   44 1    
    86   42  165 1    
    87   43  166 1    
    88   43  167 1    
    89   43  168 1    
    90   44   45 am   BACKBONE|DICT|INTERRES
    91   44  169 1    
    92   45   46 2    
    93   45   47 1    
    94   47   48 1    
    95   47   49 1    
    96   47  170 1    
    97   48  171 1    
    98   48  172 1    
    99   48  173 1    
   100   49   50 am   BACKBONE|DICT|INTERRES
   101   49  174 1    
   102   50   51 2    
   103   50   52 1    
   104   52   53 1    
   105   52   54 1    
   106   52  175 1    
   107   53  176 1    
   108   53  177 1    
   109   53  178 1    
   110   54   55 am   BACKBONE|DICT|INTERRES
   111   54  179 1    
   112   55   56 2    
   113   55   57 1    
   114   57   58 1    
   115   57   59 1    
   116   57  180 1    
   117   58  181 1    
   118   58  182 1    
   119   58  183 1    
   120   59   60 am   BACKBONE|DICT|INTERRES
   121   59  184 1    
   122   60   61 2    
   123   60   62 1    
   124   62   63 1    
   125   62   64 1    
   126   62  185 1    
   127   63  186 1    
   128   63  187 1    
   129   63  188 1    
   130   64   65 am   BACKBONE|DICT|INTERRES
   131   64  189 1    
   132   65   66 2    
   133   67   68 2    
   134   67   69 am   BACKBONE|DICT|INTERRES
   135   69   70 1    
   136   69  190 1    
   137   70   71 1    
   138   70   72 1    
   139   70  191 1    
   140   71  192 1    
   141   71  193 1    
   142   71  194 1    
   143   72   73 2    
   144   72   74 am   BACKBONE|DICT|INTERRES
   145   74   75 1    
   146   74  195 1    
   147   75   76 1    
   148   75   77 1    
   149   75  196 1    
   150   76  197 1    
   151   76  198 1    
   152   76  199 1    
   153   77   78 2    
   154   77   79 am   BACKBONE|DICT|INTERRES
   155   79   80 1    
   156   79  200 1    
   157   80   81 1    
   158   80   82 1    
   159   80  201 1    
   160   81  202 1    
   161   81  203 1    
   162   81  204 1    
   163   82   83 2    
   164   82   84 am   BACKBONE|DICT|INTERRES
   165   84   85 1    
   166   84  205 1    
   167   85   86 1    
   168   85   87 1    
   169   85  206 1    
   170   86  207 1    
   171   86  208 1    
   172   86  209 1    
   173   87   88 2    
   174   87   89 am   BACKBONE|DICT|INTERRES
   175   89   90 1    
   176   89  210 1    
   177   90   91 1    
   178   90   92 1    
   179   90  211 1    
   180   91  212 1    
   181   91  213 1    
   182   91  214 1    
   183   92   93 2    
   184   92   94 am   BACKBONE|DICT|INTERRES
   185   94   95 1    
   186   94  215 1    
   187   95   96 1    
   188   95   97 1    
   189   95  216 1    
   190   96  217 1    
   191   96  218 1    
   192   96  219 1    
   193   97   98 2    
   194   97   99 am   BACKBONE|DICT|INTERRES
   195   99  100 1    
   196   99  220 1    
   197  100  101 1    
   198  100  102 1    
   199  100  221 1    
   200  101  222 1    
   201  101  223 1    
   202  101  224 1    
   203  102  103 2    
   204  102  104 am   BACKBONE|DICT|INTERRES
   205  104  105 1    
   206  104  225 1    
   207  105  106 1    
   208  105  107 1    
   209  105  226 1    
   210  106  227 1    
   211  106  228 1    
   212  106  229 1    
   213  107  108 2    
   214  107  109 am   BACKBONE|DICT|INTERRES
   215  109  110 1    
   216  109  230 1    
   217  110  111 1    
   218  110  112 1    
   219  110  231 1    
   220  111  232 1    
   221  111  233 1    
   222  111  234 1    
   223  112  113 2    
   224  112  114 am   BACKBONE|DICT|INTERRES
   225  114  115 1    
   226  114  235 1    
   227  115  116 1    
   228  115  117 1    
   229  115  236 1    
   230  116  237 1    
   231  116  238 1    
   232  116  239 1    
   233  117  118 2    
   234  117  119 am   BACKBONE|DICT|INTERRES
   235  119  120 1    
   236  119  240 1    
   237  120  121 1    
   238  120  124 1    
   239  120  241 1    
   240  121  122 am   BACKBONE|DICT|INTERRES
   241  121  123 2    
   242  122  242 1    
   243  122  243 1    
   244  124  125 1    
   245  124  244 1    
   246  124  245 1    
   247  125  126 1    
   248  126  246 1    
   249  126  247 1    
@<TRIPOS>SUBSTRUCTURE
     1 UNK         1 GROUP             0       ****    0 ROOT    
