@<TRIPOS>MOLECULE
3R540
247   249    1
SMALL
USER_CHARGES


@<TRIPOS>ATOM
      1 CA         -2.1437  -13.4590  -51.4455 C.3       0 UNK        -0.1800 
      2 C          -1.1812  -13.4347  -50.2658 C.2       0 UNK         0.5000 
      3 O          -1.2986  -12.5701  -49.3981 O.2       0 UNK        -0.5000 
      4 N          -0.2337  -14.3824  -50.2245 N.am      1 UNK        -0.5000 
      5 CA          0.8494  -14.4737  -49.2307 C.3       1 UNK         0.1400 
      6 C6          1.9113  -15.5638  -49.5572 C.3       23 UNK        -0.0398 
      7 S7          2.1741  -15.8475  -51.3511 S.3       23 UNK        -0.2404 
      8 C8          2.2104  -17.6697  -51.5230 C.3       23 UNK        -0.0205 
      9 C9          1.1821  -18.4049  -50.6701 C.ar      23 UNK        -0.0193 
     10 C10        -0.1817  -18.1276  -50.7884 C.ar      23 UNK        -0.1150 
     11 C11        -1.1234  -18.7659  -49.9693 C.ar      23 UNK        -0.0193 
     12 C12        -0.6786  -19.7115  -49.0392 C.ar      23 UNK        -0.1150 
     13 C13         0.6829  -20.0075  -48.9211 C.ar      23 UNK        -0.0193 
     14 C14         1.6063  -19.3507  -49.7356 C.ar      23 UNK        -0.1150 
     15 C15         1.1680  -21.0269  -47.9078 C.3       23 UNK        -0.0205 
     16 S16         1.3398  -22.6649  -48.6601 S.3       23 UNK        -0.2404 
     17 C17         1.9272  -23.6429  -47.2286 C.3       23 UNK        -0.0398 
     18 CA          0.8713  -24.0498  -46.1604 C.3       11 UNK         0.1400 
     19 N           0.7666  -23.0668  -45.0741 N.am      11 UNK        -0.5000 
     20 C           0.1675  -23.3014  -43.8972 C.2       10 UNK         0.5000 
     21 O          -0.3405  -24.3840  -43.6009 O.2       10 UNK        -0.5000 
     22 CA          0.0978  -22.1418  -42.8829 C.3       10 UNK         0.1400 
     23 CB          1.2621  -22.2418  -41.8858 C.3       10 UNK        -0.1800 
     24 N           0.0673  -20.7825  -43.4349 N.am      10 UNK        -0.5000 
     25 C          -0.7589  -20.3102  -44.3793 C.2       9 UNK         0.5000 
     26 O          -1.4981  -21.0179  -45.0621 O.2       9 UNK        -0.5000 
     27 CA         -0.7886  -18.7833  -44.5830 C.3       9 UNK         0.1400 
     28 CB         -1.9839  -18.1933  -43.8178 C.3       9 UNK        -0.1800 
     29 N           0.4305  -18.0994  -44.1462 N.am      9 UNK        -0.5000 
     30 C           1.6205  -18.1800  -44.7578 C.2       8 UNK         0.5000 
     31 O           1.8197  -18.8329  -45.7785 O.2       8 UNK        -0.5000 
     32 CA          2.7937  -17.4326  -44.1014 C.3       8 UNK         0.1400 
     33 CB          2.8761  -15.9841  -44.6089 C.3       8 UNK        -0.1800 
     34 N           2.6862  -17.4446  -42.6420 N.am      8 UNK        -0.5000 
     35 C           3.0140  -18.4942  -41.8733 C.2       7 UNK         0.5000 
     36 O           3.5172  -19.5285  -42.3108 O.2       7 UNK        -0.5000 
     37 CA          2.7091  -18.3840  -40.3663 C.3       7 UNK         0.1400 
     38 CB          3.9179  -17.8064  -39.6148 C.3       7 UNK        -0.1800 
     39 N           1.5324  -17.5625  -40.0806 N.am      7 UNK        -0.5000 
     40 C           0.2717  -17.8906  -40.3987 C.2       6 UNK         0.5000 
     41 O          -0.0452  -18.9648  -40.9071 O.2       6 UNK        -0.5000 
     42 CA         -0.8034  -16.8099  -40.1610 C.3       6 UNK         0.1400 
     43 CB         -1.4275  -16.9670  -38.7668 C.3       6 UNK        -0.1800 
     44 N          -0.2826  -15.4462  -40.3106 N.am      6 UNK        -0.5000 
     45 C           0.2087  -14.9483  -41.4527 C.2       5 UNK         0.5000 
     46 O           0.2235  -15.5709  -42.5175 O.2       5 UNK        -0.5000 
     47 CA          0.8912  -13.5787  -41.3611 C.3       5 UNK         0.1400 
     48 CB          2.3186  -13.7591  -40.8000 C.3       5 UNK        -0.1800 
     49 N           0.9329  -12.9768  -42.6908 N.am      5 UNK        -0.5000 
     50 C           1.3461  -11.7363  -42.9788 C.2       4 UNK         0.5000 
     51 O           1.7192  -10.9216  -42.1335 O.2       4 UNK        -0.5000 
     52 CA          1.3315  -11.3277  -44.4622 C.3       4 UNK         0.1400 
     53 CB          2.5705  -11.8760  -45.1869 C.3       4 UNK        -0.1800 
     54 N           0.1185  -11.7610  -45.1571 N.am      4 UNK        -0.5000 
     55 C          -1.0950  -11.2225  -44.9535 C.2       3 UNK         0.5000 
     56 O          -1.3039  -10.3054  -44.1580 O.2       3 UNK        -0.5000 
     57 CA         -2.2782  -11.7728  -45.7763 C.3       3 UNK         0.1400 
     58 CB         -2.6540  -10.7925  -46.8979 C.3       3 UNK        -0.1800 
     59 N          -2.0172  -13.0881  -46.3594 N.am      3 UNK        -0.5000 
     60 C          -1.9699  -14.2277  -45.6542 C.2       2 UNK         0.5000 
     61 O          -2.2161  -14.2867  -44.4499 O.2       2 UNK        -0.5000 
     62 CA         -1.5685  -15.5142  -46.4037 C.3       2 UNK         0.1400 
     63 CB         -2.8115  -16.3676  -46.6977 C.3       2 UNK        -0.1800 
     64 N          -0.8530  -15.2873  -47.6593 N.am      2 UNK        -0.5000 
     65 C           0.3250  -14.6603  -47.7906 C.2       1 UNK         0.5000 
     66 O           0.9645  -14.2060  -46.8428 O.2       1 UNK        -0.5000 
     67 C          -0.4968  -24.4386  -46.7682 C.2       11 UNK         0.5000 
     68 O          -0.6122  -25.5329  -47.3224 O.2       11 UNK        -0.5000 
     69 N          -1.5090  -23.5625  -46.6442 N.am      12 UNK        -0.5000 
     70 CA         -2.8493  -23.7129  -47.2222 C.3       12 UNK         0.1400 
     71 CB         -3.6729  -22.4514  -46.9259 C.3       12 UNK        -0.1800 
     72 C          -3.6110  -24.9711  -46.7618 C.2       12 UNK         0.5000 
     73 O          -4.5177  -25.4169  -47.4636 O.2       12 UNK        -0.5000 
     74 N          -3.2032  -25.5549  -45.6263 N.am      13 UNK        -0.5000 
     75 CA         -3.6794  -26.8459  -45.1279 C.3       13 UNK         0.1400 
     76 CB         -3.0799  -27.0873  -43.7343 C.3       13 UNK        -0.1800 
     77 C          -3.3588  -28.0308  -46.0658 C.2       13 UNK         0.5000 
     78 O          -4.0820  -29.0275  -46.0352 O.2       13 UNK        -0.5000 
     79 N          -2.2996  -27.9025  -46.8778 N.am      14 UNK        -0.5000 
     80 CA         -1.8793  -28.8891  -47.8729 C.3       14 UNK         0.1400 
     81 CB         -0.4497  -29.3498  -47.5467 C.3       14 UNK        -0.1800 
     82 C          -1.9444  -28.3173  -49.2996 C.2       14 UNK         0.5000 
     83 O          -2.3525  -29.0288  -50.2179 O.2       14 UNK        -0.5000 
     84 N          -1.5379  -27.0518  -49.4690 N.am      15 UNK        -0.5000 
     85 CA         -1.4190  -26.3774  -50.7637 C.3       15 UNK         0.1400 
     86 CB         -0.3957  -25.2399  -50.6279 C.3       15 UNK        -0.1800 
     87 C          -2.7478  -25.8236  -51.3102 C.2       15 UNK         0.5000 
     88 O          -2.7853  -25.4134  -52.4722 O.2       15 UNK        -0.5000 
     89 N          -3.7976  -25.7867  -50.4748 N.am      16 UNK        -0.5000 
     90 CA         -5.1106  -25.1940  -50.7431 C.3       16 UNK         0.1400 
     91 CB         -5.8770  -26.0152  -51.8055 C.3       16 UNK        -0.1800 
     92 C          -4.9720  -23.6928  -51.0699 C.2       16 UNK         0.5000 
     93 O          -4.5682  -22.9241  -50.1975 O.2       16 UNK        -0.5000 
     94 N          -5.2749  -23.3048  -52.3146 N.am      17 UNK        -0.5000 
     95 CA         -5.1210  -21.9406  -52.8193 C.3       17 UNK         0.1400 
     96 CB         -5.9559  -21.7959  -54.1024 C.3       17 UNK        -0.1800 
     97 C          -3.6582  -21.5358  -53.0898 C.2       17 UNK         0.5000 
     98 O          -3.3944  -20.3460  -53.2595 O.2       17 UNK        -0.5000 
     99 N          -2.7464  -22.5186  -53.1858 N.am      18 UNK        -0.5000 
    100 CA        -1.3061  -22.3704  -53.4468 C.3       18 UNK         0.1400 
    101 CB        -0.6157  -21.7052  -52.2383 C.3       18 UNK        -0.1800 
    102 C         -0.9711  -21.6544  -54.7777 C.2       18 UNK         0.5000 
    103 O          0.1296  -21.1212  -54.9256 O.2       18 UNK        -0.5000 
    104 N         -1.9355  -21.6465  -55.7130 N.am      19 UNK        -0.5000 
    105 CA        -1.9531  -20.9065  -56.9810 C.3       19 UNK         0.1400 
    106 CB        -0.8868  -21.4564  -57.9518 C.3       19 UNK        -0.1800 
    107 C         -1.8720  -19.3711  -56.8025 C.2       19 UNK         0.5000 
    108 O         -1.3841  -18.6769  -57.6969 O.2       19 UNK        -0.5000 
    109 N         -2.3506  -18.8677  -55.6579 N.am      20 UNK        -0.5000 
    110 CA        -2.3320  -17.4603  -55.2706 C.3       20 UNK         0.1400 
    111 CB        -1.5328  -17.3468  -53.9649 C.3       20 UNK        -0.1800 
    112 C         -3.7618  -16.9327  -55.0680 C.2       20 UNK         0.5000 
    113 O         -4.7237  -17.7057  -55.0784 O.2       20 UNK        -0.5000 
    114 N         -3.8736  -15.6141  -54.8511 N.am      21 UNK        -0.5000 
    115 CA        -5.1304  -14.8930  -54.6114 C.3       21 UNK         0.1400 
    116 CB        -4.8345  -13.3872  -54.5345 C.3       21 UNK        -0.1800 
    117 C         -5.8970  -15.3553  -53.3545 C.2       21 UNK         0.5000 
    118 O         -7.1229  -15.2433  -53.3174 O.2       21 UNK        -0.5000 
    119 N         -5.1664  -15.8876  -52.3676 N.am      22 UNK        -0.5000 
    120 CA        -5.7013  -16.5860  -51.1884 C.3       22 UNK         0.1400 
    121 C         -6.2381  -18.0226  -51.4652 C.2       22 UNK         0.5000 
    122 N         -6.1492  -18.5586  -52.6755 N.am      22 UNK        -0.7600 
    123 O         -6.7855  -18.6558  -50.5671 O.2       22 UNK        -0.5000 
    124 C124       -4.7319  -16.5293  -49.9731 C.3       23 UNK        -0.0398 
    125 S125       -2.9559  -16.6943  -50.3691 S.3       23 UNK        -0.2404 
    126 C126       -2.6173  -18.4612  -50.0814 C.3       23 UNK        -0.0205 
    127 H127       -3.1657  -13.5989  -51.0932 H         1 UNK         0.0600 
    128 H128       -1.9100  -14.2640  -52.1423 H         1 UNK         0.0600 
    129 H129       -2.0955  -12.5152  -51.9882 H         1 UNK         0.0600 
    130 H130       -0.1807  -15.0642  -50.9675 H         1 UNK         0.3000 
    131 H131        1.3588  -13.5080  -49.2547 H         1 UNK         0.0600 
    132 H132        2.8693  -15.2757  -49.1216 H         1 UNK         0.0800 
    133 H133        1.6578  -16.5037  -49.0684 H         1 UNK         0.0800 
    134 H134        3.2181  -18.0117  -51.2824 H         1 UNK         0.0800 
    135 H135        2.0454  -17.9268  -52.5702 H         1 UNK         0.0800 
    136 H136       -0.4996  -17.3896  -51.5062 H         1 UNK         0.1150 
    137 H137       -1.3905  -20.2214  -48.4058 H         1 UNK         0.1150 
    138 H138        2.6586  -19.5756  -49.6338 H         1 UNK         0.1150 
    139 H139        2.1332  -20.7204  -47.5032 H         1 UNK         0.0800 
    140 H140        0.4726  -21.0738  -47.0706 H         1 UNK         0.0800 
    141 H141        2.7694  -23.1289  -46.7632 H         1 UNK         0.0800 
    142 H142        2.3539  -24.5547  -47.6495 H         1 UNK         0.0800 
    143 H143        1.2497  -24.9618  -45.6927 H         1 UNK         0.0600 
    144 H144        1.1477  -22.1478  -45.2432 H         1 UNK         0.3000 
    145 H145       -0.8325  -22.2693  -42.3263 H         1 UNK         0.0600 
    146 H146        1.1590  -21.5123  -41.0823 H         1 UNK         0.0600 
    147 H147        2.2222  -22.0692  -42.3738 H         1 UNK         0.0600 
    148 H148        1.3008  -23.2287  -41.4226 H         1 UNK         0.0600 
    149 H149        0.5940  -20.0941  -42.9147 H         1 UNK         0.3000 
    150 H150       -0.9217  -18.5915  -45.6495 H         1 UNK         0.0600 
    151 H151       -2.9257  -18.5401  -44.2444 H         1 UNK         0.0600 
    152 H152       -1.9890  -17.1042  -43.8476 H         1 UNK         0.0600 
    153 H153       -1.9755  -18.4913  -42.7694 H         1 UNK         0.0600 
    154 H154        0.3438  -17.4812  -43.3478 H         1 UNK         0.3000 
    155 H155        3.7174  -17.9394  -44.3896 H         1 UNK         0.0600 
    156 H156        3.0463  -15.9614  -45.6860 H         1 UNK         0.0600 
    157 H157        3.6975  -15.4439  -44.1383 H         1 UNK         0.0600 
    158 H158        1.9576  -15.4296  -44.4198 H         1 UNK         0.0600 
    159 H159        2.2290  -16.6502  -42.2187 H         1 UNK         0.3000 
    160 H160        2.5203  -19.3921  -39.9911 H         1 UNK         0.0600 
    161 H161        4.1426  -16.7879  -39.9343 H         1 UNK         0.0600 
    162 H162        4.8100  -18.4095  -39.7887 H         1 UNK         0.0600 
    163 H163        3.7428  -17.7906  -38.5389 H         1 UNK         0.0600 
    164 H164        1.6990  -16.6661  -39.6489 H         1 UNK         0.3000 
    165 H165       -1.5886  -16.9530  -40.9057 H         1 UNK         0.0600 
    166 H166       -2.2402  -16.2562  -38.6161 H         1 UNK         0.0600 
    167 H167       -1.8438  -17.9669  -38.6366 H         1 UNK         0.0600 
    168 H168       -0.6929  -16.8115  -37.9757 H         1 UNK         0.0600 
    169 H169       -0.2536  -14.8813  -39.4738 H         1 UNK         0.3000 
    170 H170        0.3063  -12.9362  -40.7002 H         1 UNK         0.0600 
    171 H171        2.9419  -14.3496  -41.4730 H         1 UNK         0.0600 
    172 H172        2.8159  -12.8026  -40.6420 H         1 UNK         0.0600 
    173 H173        2.3051  -14.2662  -39.8347 H         1 UNK         0.0600 
    174 H174        0.6045  -13.5841  -43.4318 H         1 UNK         0.3000 
    175 H175        1.3749  -10.2373  -44.5086 H         1 UNK         0.0600 
    176 H176        2.6151  -12.9645  -45.1453 H         1 UNK         0.0600 
    177 H177        2.5794  -11.5801  -46.2360 H         1 UNK         0.0600 
    178 H178        3.4861  -11.4954  -44.7327 H         1 UNK         0.0600 
    179 H179        0.2200  -12.5265  -45.8143 H         1 UNK         0.3000 
    180 H180       -3.1338  -11.8597  -45.1033 H         1 UNK         0.0600 
    181 H181       -3.4980  -11.1613  -47.4810 H         1 UNK         0.0600 
    182 H182       -1.8206  -10.6259  -47.5813 H         1 UNK         0.0600 
    183 H183       -2.9399   -9.8226  -46.4891 H         1 UNK         0.0600 
    184 H184       -1.7923  -13.1076  -47.3479 H         1 UNK         0.3000 
    185 H185       -0.9008  -16.0719  -45.7460 H         1 UNK         0.0600 
    186 H186       -3.4838  -15.8613  -47.3899 H         1 UNK         0.0600 
    187 H187       -2.5392  -17.3292  -47.1324 H         1 UNK         0.0600 
    188 H188       -3.3800  -16.5684  -45.7895 H         1 UNK         0.0600 
    189 H189       -1.3097  -15.6101  -48.5014 H         1 UNK         0.3000 
    190 H190       -1.3467  -22.7008  -46.1312 H         1 UNK         0.3000 
    191 H191       -2.7252  -23.7915  -48.3039 H         1 UNK         0.0600 
    192 H192       -3.1911  -21.5613  -47.3302 H         1 UNK         0.0600 
    193 H193       -3.8100  -22.3038  -45.8541 H         1 UNK         0.0600 
    194 H194       -4.6631  -22.5151  -47.3789 H         1 UNK         0.0600 
    195 H195       -2.4462  -25.1233  -45.1141 H         1 UNK         0.3000 
    196 H196       -4.7654  -26.7877  -45.0310 H         1 UNK         0.0600 
    197 H197       -3.3679  -26.2990  -43.0386 H         1 UNK         0.0600 
    198 H198       -1.9900  -27.1230  -43.7672 H         1 UNK         0.0600 
    199 H199       -3.4281  -28.0326  -43.3160 H         1 UNK         0.0600 
    200 H200       -1.7638  -27.0414  -46.8443 H         1 UNK         0.3000 
    201 H201       -2.5299  -29.7656  -47.8464 H         1 UNK         0.0600 
    202 H202       -0.4044  -29.8210  -46.5648 H         1 UNK         0.0600 
    203 H203        0.2537  -28.5159  -47.5501 H         1 UNK         0.0600 
    204 H204       -0.0980  -30.0814  -48.2753 H         1 UNK         0.0600 
    205 H205       -1.1909  -26.5300  -48.6666 H         1 UNK         0.3000 
    206 H206       -1.0362  -27.0914  -51.4958 H         1 UNK         0.0600 
    207 H207       -0.7608  -24.4525  -49.9676 H         1 UNK         0.0600 
    208 H208        0.5517  -25.6008  -50.2270 H         1 UNK         0.0600 
    209 H209       -0.1843  -24.7836  -51.5951 H         1 UNK         0.0600 
    210 H210       -3.6610  -26.1099  -49.5267 H         1 UNK         0.3000 
    211 H211       -5.6812  -25.2521  -49.8160 H         1 UNK         0.0600 
    212 H212       -5.3668  -26.0371  -52.7687 H         1 UNK         0.0600 
    213 H213       -6.8773  -25.6112  -51.9668 H         1 UNK         0.0600 
    214 H214       -5.9998  -27.0478  -51.4786 H         1 UNK         0.0600 
    215 H215       -5.5789  -24.0040  -52.9764 H         1 UNK         0.3000 
    216 H216       -5.5126  -21.2511  -52.0690 H         1 UNK         0.0600 
    217 H217       -5.8584  -20.7967  -54.5295 H         1 UNK         0.0600 
    218 H218       -7.0149  -21.9626  -53.9046 H         1 UNK         0.0600 
    219 H219       -5.6420  -22.5065  -54.8679 H         1 UNK         0.0600 
    220 H220       -3.0532  -23.4743  -53.0324 H         1 UNK         0.3000 
    221 H221       -0.9108  -23.3824  -53.5404 H         1 UNK         0.0600 
    222 H222       -0.8914  -20.6543  -52.1523 H         1 UNK         0.0600 
    223 H223       -0.8837  -22.1972  -51.3032 H         1 UNK         0.0600 
    224 H224        0.4701  -21.7500  -52.3270 H         1 UNK         0.0600 
    225 H225       -2.7950  -22.1214  -55.4785 H         1 UNK         0.3000 
    226 H226       -2.9297  -21.1001  -57.4267 H         1 UNK         0.0600 
    227 H227       -0.9726  -22.5375  -58.0608 H         1 UNK         0.0600 
    228 H228       -1.0008  -21.0223  -58.9457 H         1 UNK         0.0600 
    229 H229        0.1247  -21.2322  -57.6126 H         1 UNK         0.0600 
    230 H230       -2.7736  -19.4906  -54.9757 H         1 UNK         0.3000 
    231 H231       -1.8511  -16.8494  -56.0369 H         1 UNK         0.0600 
    232 H232       -1.4332  -16.3109  -53.6402 H         1 UNK         0.0600 
    233 H233       -0.5255  -17.7473  -54.0831 H         1 UNK         0.0600 
    234 H234       -2.0187  -17.9030  -53.1621 H         1 UNK         0.0600 
    235 H235       -3.0366  -15.0497  -54.8617 H         1 UNK         0.3000 
    236 H236       -5.7803  -15.0708  -55.4705 H         1 UNK         0.0600 
    237 H237       -4.1640  -13.1506  -53.7077 H         1 UNK         0.0600 
    238 H238       -4.3748  -13.0268  -55.4549 H         1 UNK         0.0600 
    239 H239       -5.7518  -12.8157  -54.3864 H         1 UNK         0.0600 
    240 H240       -4.1658  -15.9458  -52.4835 H         1 UNK         0.3000 
    241 H241       -6.5929  -16.0357  -50.8817 H         1 UNK         0.0600 
    242 H242       -6.5473  -19.4674  -52.8311 H         1 UNK         0.3800 
    243 H243       -5.6718  -18.0886  -53.4385 H         1 UNK         0.3800 
    244 H244       -5.0071  -17.2438  -49.1955 H         1 UNK         0.0800 
    245 H245       -4.8407  -15.5515  -49.5025 H         1 UNK         0.0800 
    246 H246       -3.0400  -19.0448  -50.8999 H         1 UNK         0.0800 
    247 H247       -3.1310  -18.7767  -49.1723 H         1 UNK         0.0800 
@<TRIPOS>BOND
     1    1    2 1    
     2    1  127 1    
     3    1  128 1    
     4    1  129 1    
     5    2    3 2    
     6    2    4 am   BACKBONE|DICT|INTERRES
     7    4    5 1    
     8    4  130 1    
     9    5    6 1    
    10    5   65 1    
    11    5  131 1    
    12    6    7 1    
    13    6  132 1    
    14    6  133 1    
    15    7    8 1    
    16    8    9 1    
    17    8  134 1    
    18    8  135 1    
    19    9   10 ar   
    20    9   14 ar   
    21   10   11 ar   
    22   10  136 1    
    23   11   12 ar   
    24   11  126 1    
    25   12   13 ar   
    26   12  137 1    
    27   13   14 ar   
    28   13   15 1    
    29   14  138 1    
    30   15   16 1    
    31   15  139 1    
    32   15  140 1    
    33   16   17 1    
    34   17   18 1    
    35   17  141 1    
    36   17  142 1    
    37   18   19 1    
    38   18   67 1    
    39   18  143 1    
    40   19   20 am   BACKBONE|DICT|INTERRES
    41   19  144 1    
    42   20   21 2    
    43   20   22 1    
    44   22   23 1    
    45   22   24 1    
    46   22  145 1    
    47   23  146 1    
    48   23  147 1    
    49   23  148 1    
    50   24   25 am   BACKBONE|DICT|INTERRES
    51   24  149 1    
    52   25   26 2    
    53   25   27 1    
    54   27   28 1    
    55   27   29 1    
    56   27  150 1    
    57   28  151 1    
    58   28  152 1    
    59   28  153 1    
    60   29   30 am   BACKBONE|DICT|INTERRES
    61   29  154 1    
    62   30   31 2    
    63   30   32 1    
    64   32   33 1    
    65   32   34 1    
    66   32  155 1    
    67   33  156 1    
    68   33  157 1    
    69   33  158 1    
    70   34   35 am   BACKBONE|DICT|INTERRES
    71   34  159 1    
    72   35   36 2    
    73   35   37 1    
    74   37   38 1    
    75   37   39 1    
    76   37  160 1    
    77   38  161 1    
    78   38  162 1    
    79   38  163 1    
    80   39   40 am   BACKBONE|DICT|INTERRES
    81   39  164 1    
    82   40   41 2    
    83   40   42 1    
    84   42   43 1    
    85   42   44 1    
    86   42  165 1    
    87   43  166 1    
    88   43  167 1    
    89   43  168 1    
    90   44   45 am   BACKBONE|DICT|INTERRES
    91   44  169 1    
    92   45   46 2    
    93   45   47 1    
    94   47   48 1    
    95   47   49 1    
    96   47  170 1    
    97   48  171 1    
    98   48  172 1    
    99   48  173 1    
   100   49   50 am   BACKBONE|DICT|INTERRES
   101   49  174 1    
   102   50   51 2    
   103   50   52 1    
   104   52   53 1    
   105   52   54 1    
   106   52  175 1    
   107   53  176 1    
   108   53  177 1    
   109   53  178 1    
   110   54   55 am   BACKBONE|DICT|INTERRES
   111   54  179 1    
   112   55   56 2    
   113   55   57 1    
   114   57   58 1    
   115   57   59 1    
   116   57  180 1    
   117   58  181 1    
   118   58  182 1    
   119   58  183 1    
   120   59   60 am   BACKBONE|DICT|INTERRES
   121   59  184 1    
   122   60   61 2    
   123   60   62 1    
   124   62   63 1    
   125   62   64 1    
   126   62  185 1    
   127   63  186 1    
   128   63  187 1    
   129   63  188 1    
   130   64   65 am   BACKBONE|DICT|INTERRES
   131   64  189 1    
   132   65   66 2    
   133   67   68 2    
   134   67   69 am   BACKBONE|DICT|INTERRES
   135   69   70 1    
   136   69  190 1    
   137   70   71 1    
   138   70   72 1    
   139   70  191 1    
   140   71  192 1    
   141   71  193 1    
   142   71  194 1    
   143   72   73 2    
   144   72   74 am   BACKBONE|DICT|INTERRES
   145   74   75 1    
   146   74  195 1    
   147   75   76 1    
   148   75   77 1    
   149   75  196 1    
   150   76  197 1    
   151   76  198 1    
   152   76  199 1    
   153   77   78 2    
   154   77   79 am   BACKBONE|DICT|INTERRES
   155   79   80 1    
   156   79  200 1    
   157   80   81 1    
   158   80   82 1    
   159   80  201 1    
   160   81  202 1    
   161   81  203 1    
   162   81  204 1    
   163   82   83 2    
   164   82   84 am   BACKBONE|DICT|INTERRES
   165   84   85 1    
   166   84  205 1    
   167   85   86 1    
   168   85   87 1    
   169   85  206 1    
   170   86  207 1    
   171   86  208 1    
   172   86  209 1    
   173   87   88 2    
   174   87   89 am   BACKBONE|DICT|INTERRES
   175   89   90 1    
   176   89  210 1    
   177   90   91 1    
   178   90   92 1    
   179   90  211 1    
   180   91  212 1    
   181   91  213 1    
   182   91  214 1    
   183   92   93 2    
   184   92   94 am   BACKBONE|DICT|INTERRES
   185   94   95 1    
   186   94  215 1    
   187   95   96 1    
   188   95   97 1    
   189   95  216 1    
   190   96  217 1    
   191   96  218 1    
   192   96  219 1    
   193   97   98 2    
   194   97   99 am   BACKBONE|DICT|INTERRES
   195   99  100 1    
   196   99  220 1    
   197  100  101 1    
   198  100  102 1    
   199  100  221 1    
   200  101  222 1    
   201  101  223 1    
   202  101  224 1    
   203  102  103 2    
   204  102  104 am   BACKBONE|DICT|INTERRES
   205  104  105 1    
   206  104  225 1    
   207  105  106 1    
   208  105  107 1    
   209  105  226 1    
   210  106  227 1    
   211  106  228 1    
   212  106  229 1    
   213  107  108 2    
   214  107  109 am   BACKBONE|DICT|INTERRES
   215  109  110 1    
   216  109  230 1    
   217  110  111 1    
   218  110  112 1    
   219  110  231 1    
   220  111  232 1    
   221  111  233 1    
   222  111  234 1    
   223  112  113 2    
   224  112  114 am   BACKBONE|DICT|INTERRES
   225  114  115 1    
   226  114  235 1    
   227  115  116 1    
   228  115  117 1    
   229  115  236 1    
   230  116  237 1    
   231  116  238 1    
   232  116  239 1    
   233  117  118 2    
   234  117  119 am   BACKBONE|DICT|INTERRES
   235  119  120 1    
   236  119  240 1    
   237  120  121 1    
   238  120  124 1    
   239  120  241 1    
   240  121  122 am   BACKBONE|DICT|INTERRES
   241  121  123 2    
   242  122  242 1    
   243  122  243 1    
   244  124  125 1    
   245  124  244 1    
   246  124  245 1    
   247  125  126 1    
   248  126  246 1    
   249  126  247 1    
@<TRIPOS>SUBSTRUCTURE
     1 UNK         1 GROUP             0       ****    0 ROOT    
