@<TRIPOS>MOLECULE
3R540
247   249    1
SMALL
USER_CHARGES


@<TRIPOS>ATOM
      1 CA         -5.2381  -13.9825  -50.1427 C.3       0 UNK        -0.1800 
      2 C          -4.1655  -14.5988  -49.2579 C.2       0 UNK         0.5000 
      3 O          -2.9800  -14.5159  -49.5813 O.2       0 UNK        -0.5000 
      4 N          -4.5694  -15.2386  -48.1523 N.am      1 UNK        -0.5000 
      5 CA         -3.6745  -15.8716  -47.1706 C.3       1 UNK         0.1400 
      6 C6         -4.4535  -16.7350  -46.1441 C.3       23 UNK        -0.0398 
      7 S7         -5.4177  -18.0795  -46.9296 S.3       23 UNK        -0.2404 
      8 C8         -4.6417  -19.5693  -46.2062 C.3       23 UNK        -0.0205 
      9 C9         -5.1493  -20.9213  -46.7173 C.ar      23 UNK        -0.0193 
     10 C10        -5.8856  -21.0649  -47.9012 C.ar      23 UNK        -0.1150 
     11 C11        -6.2597  -22.3314  -48.3648 C.ar      23 UNK        -0.0193 
     12 C12        -5.8950  -23.4660  -47.6352 C.ar      23 UNK        -0.1150 
     13 C13        -5.1708  -23.3425  -46.4470 C.ar      23 UNK        -0.0193 
     14 C14        -4.8117  -22.0708  -45.9935 C.ar      23 UNK        -0.1150 
     15 C15        -4.7900  -24.5808  -45.6480 C.3       23 UNK        -0.0205 
     16 S16        -3.2576  -25.3470  -46.2770 S.3       23 UNK        -0.2404 
     17 C17        -2.1394  -25.2797  -44.8310 C.3       23 UNK        -0.0398 
     18 CA         -1.0806  -24.1447  -44.9385 C.3       11 UNK         0.1400 
     19 N          -0.8320  -23.4687  -43.6640 N.am      11 UNK        -0.5000 
     20 C          -0.3655  -24.0135  -42.5318 C.2       10 UNK         0.5000 
     21 O          -0.0829  -25.2065  -42.4194 O.2       10 UNK        -0.5000 
     22 CA         -0.1657  -23.0728  -41.3225 C.3       10 UNK         0.1400 
     23 CB          1.3331  -22.9041  -41.0260 C.3       10 UNK        -0.1800 
     24 N          -0.7589  -21.7450  -41.5049 N.am      10 UNK        -0.5000 
     25 C          -2.0722  -21.4751  -41.5146 C.2       9 UNK         0.5000 
     26 O          -2.9428  -22.3052  -41.2532 O.2       9 UNK        -0.5000 
     27 CA         -2.4803  -20.0542  -41.9537 C.3       9 UNK         0.1400 
     28 CB         -2.5210  -19.1023  -40.7497 C.3       9 UNK        -0.1800 
     29 N          -1.6002  -19.4956  -42.9852 N.am      9 UNK        -0.5000 
     30 C          -1.4220  -20.0135  -44.2084 C.2       8 UNK         0.5000 
     31 O          -2.0067  -21.0121  -44.6120 O.2       8 UNK        -0.5000 
     32 CA         -0.3690  -19.3557  -45.1098 C.3       8 UNK         0.1400 
     33 CB         -0.9267  -18.1029  -45.7864 C.3       8 UNK        -0.1800 
     34 N           0.8240  -19.0156  -44.3420 N.am      8 UNK        -0.5000 
     35 C           1.7600  -19.9078  -43.9959 C.2       7 UNK         0.5000 
     36 O           1.7491  -21.0802  -44.3761 O.2       7 UNK        -0.5000 
     37 CA          2.8856  -19.4145  -43.0694 C.3       7 UNK         0.1400 
     38 CB          4.0988  -18.9602  -43.8910 C.3       7 UNK        -0.1800 
     39 N           2.4569  -18.3240  -42.1901 N.am      7 UNK        -0.5000 
     40 C           1.6314  -18.4928  -41.1475 C.2       6 UNK         0.5000 
     41 O           1.1629  -19.5830  -40.8220 O.2       6 UNK        -0.5000 
     42 CA          1.2189  -17.2305  -40.3671 C.3       6 UNK         0.1400 
     43 CB          2.2613  -16.8993  -39.2892 C.3       6 UNK        -0.1800 
     44 N           1.0027  -16.0511  -41.2092 N.am      6 UNK        -0.5000 
     45 C           0.1311  -15.9714  -42.2238 C.2       5 UNK         0.5000 
     46 O          -0.5648  -16.9151  -42.5951 O.2       5 UNK        -0.5000 
     47 CA          0.0147  -14.6285  -42.9672 C.3       5 UNK         0.1400 
     48 CB          0.5929  -13.4245  -42.1915 C.3       5 UNK        -0.1800 
     49 N           0.5865  -14.6898  -44.3137 N.am      5 UNK        -0.5000 
     50 C           1.8521  -14.9835  -44.6512 C.2       4 UNK         0.5000 
     51 O           2.6996  -15.3721  -43.8455 O.2       4 UNK        -0.5000 
     52 CA          2.2655  -14.7786  -46.1213 C.3       4 UNK         0.1400 
     53 CB          2.6748  -16.0981  -46.7911 C.3       4 UNK        -0.1800 
     54 N           1.2301  -14.1096  -46.9201 N.am      4 UNK        -0.5000 
     55 C           1.4506  -13.0275  -47.6830 C.2       3 UNK         0.5000 
     56 O           2.5632  -12.5278  -47.8563 O.2       3 UNK        -0.5000 
     57 CA          0.2304  -12.3680  -48.3604 C.3       3 UNK         0.1400 
     58 CB          0.0442  -12.9158  -49.7820 C.3       3 UNK        -0.1800 
     59 N          -1.0200  -12.5363  -47.6196 N.am      3 UNK        -0.5000 
     60 C          -1.2689  -12.0383  -46.3990 C.2       2 UNK         0.5000 
     61 O          -0.4883  -11.3032  -45.7942 O.2       2 UNK        -0.5000 
     62 CA         -2.5963  -12.4412  -45.7180 C.3       2 UNK         0.1400 
     63 CB         -3.5694  -11.2524  -45.6960 C.3       2 UNK        -0.1800 
     64 N          -3.2812  -13.5941  -46.3138 N.am      2 UNK        -0.5000 
     65 C          -2.7787  -14.8294  -46.4577 C.2       1 UNK         0.5000 
     66 O          -1.6341  -15.1281  -46.1166 O.2       1 UNK        -0.5000 
     67 C           0.2279  -24.5559  -45.6572 C.2       11 UNK         0.5000 
     68 O           0.2164  -25.4744  -46.4773 O.2       11 UNK        -0.5000 
     69 N           1.3368  -23.8666  -45.3465 N.am      12 UNK        -0.5000 
     70 CA          2.6504  -24.0977  -45.9460 C.3       12 UNK         0.1400 
     71 CB          3.7472  -23.8380  -44.8999 C.3       12 UNK        -0.1800 
     72 C           2.8455  -23.2117  -47.1860 C.2       12 UNK         0.5000 
     73 O           3.2378  -23.7149  -48.2387 O.2       12 UNK        -0.5000 
     74 N           2.5452  -21.9131  -47.0442 N.am      13 UNK        -0.5000 
     75 CA          2.6212  -20.9247  -48.1254 C.3       13 UNK         0.1400 
     76 CB          2.9422  -19.5475  -47.5269 C.3       13 UNK        -0.1800 
     77 C           1.3298  -20.8522  -48.9613 C.2       13 UNK         0.5000 
     78 O           1.3400  -20.2353  -50.0274 O.2       13 UNK        -0.5000 
     79 N           0.2445  -21.4577  -48.4574 N.am      14 UNK        -0.5000 
     80 CA         -1.0591  -21.5292  -49.1105 C.3       14 UNK         0.1400 
     81 CB         -2.0956  -22.0839  -48.1278 C.3       14 UNK        -0.1800 
     82 C          -0.9902  -22.3895  -50.3822 C.2       14 UNK         0.5000 
     83 O          -0.8647  -23.6124  -50.2964 O.2       14 UNK        -0.5000 
     84 N          -1.0564  -21.7205  -51.5302 N.am      15 UNK        -0.5000 
     85 CA         -1.0076  -22.2842  -52.8679 C.3       15 UNK         0.1400 
     86 CB          0.4199  -22.7764  -53.2015 C.3       15 UNK        -0.1800 
     87 C          -1.5380  -21.1774  -53.7846 C.2       15 UNK         0.5000 
     88 O          -2.7041  -20.8067  -53.6463 O.2       15 UNK        -0.5000 
     89 N          -0.6704  -20.6395  -54.6477 N.am      16 UNK        -0.5000 
     90 CA         -0.8824  -19.3915  -55.3817 C.3       16 UNK         0.1400 
     91 CB         -0.8124  -19.6869  -56.8890 C.3       16 UNK        -0.1800 
     92 C           0.1480  -18.3144  -54.9756 C.2       16 UNK         0.5000 
     93 O           0.0446  -17.1810  -55.4459 O.2       16 UNK        -0.5000 
     94 N           1.1299  -18.6713  -54.1286 N.am      17 UNK        -0.5000 
     95 CA          2.1268  -17.7541  -53.5663 C.3       17 UNK         0.1400 
     96 CB          3.2914  -18.5613  -52.9688 C.3       17 UNK        -0.1800 
     97 C           1.4815  -16.8351  -52.5155 C.2       17 UNK         0.5000 
     98 O           1.5426  -15.6116  -52.6403 O.2       17 UNK        -0.5000 
     99 N           0.8082  -17.4627  -51.5486 N.am      18 UNK        -0.5000 
    100 CA        -0.2716  -16.8827  -50.7660 C.3       18 UNK         0.1400 
    101 CB         0.1018  -16.8913  -49.2771 C.3       18 UNK        -0.1800 
    102 C         -1.5099  -17.7451  -51.0373 C.2       18 UNK         0.5000 
    103 O         -1.3685  -18.9099  -51.4197 O.2       18 UNK        -0.5000 
    104 N         -2.6915  -17.1544  -50.8402 N.am      19 UNK        -0.5000 
    105 CA        -4.0057  -17.6828  -51.2191 C.3       19 UNK         0.1400 
    106 CB        -4.2758  -19.0461  -50.5548 C.3       19 UNK        -0.1800 
    107 C         -4.2216  -17.6889  -52.7510 C.2       19 UNK         0.5000 
    108 O         -3.3952  -17.1585  -53.4979 O.2       19 UNK        -0.5000 
    109 N         -5.3811  -18.2002  -53.1856 N.am      20 UNK        -0.5000 
    110 CA        -5.8364  -18.1457  -54.5757 C.3       20 UNK         0.1400 
    111 CB        -7.3696  -18.2768  -54.6144 C.3       20 UNK        -0.1800 
    112 C         -5.1496  -19.1976  -55.4652 C.2       20 UNK         0.5000 
    113 O         -4.3757  -18.8376  -56.3531 O.2       20 UNK        -0.5000 
    114 N         -5.4684  -20.4728  -55.2205 N.am      21 UNK        -0.5000 
    115 CA        -4.9647  -21.6386  -55.9466 C.3       21 UNK         0.1400 
    116 CB        -5.5974  -21.7210  -57.3521 C.3       21 UNK        -0.1800 
    117 C         -5.2274  -22.8912  -55.0934 C.2       21 UNK         0.5000 
    118 O         -5.8275  -23.8592  -55.5650 O.2       21 UNK        -0.5000 
    119 N         -4.8329  -22.8104  -53.8195 N.am      22 UNK        -0.5000 
    120 CA        -5.0606  -23.8365  -52.7906 C.3       22 UNK         0.1400 
    121 C         -4.1644  -25.0968  -52.9610 C.2       22 UNK         0.5000 
    122 N         -4.5076  -26.1966  -52.3039 N.am      22 UNK        -0.7600 
    123 O         -3.1600  -25.0951  -53.6691 O.2       22 UNK        -0.5000 
    124 C124       -4.9426  -23.2292  -51.3693 C.3       23 UNK        -0.0398 
    125 S125       -6.1775  -21.9074  -51.1166 S.3       23 UNK        -0.2404 
    126 C126       -7.0803  -22.4714  -49.6402 C.3       23 UNK        -0.0205 
    127 H127       -5.1100  -12.9011  -50.1861 H         1 UNK         0.0600 
    128 H128       -5.1606  -14.3766  -51.1560 H         1 UNK         0.0600 
    129 H129       -6.2409  -14.1937  -49.7707 H         1 UNK         0.0600 
    130 H130       -5.5572  -15.3130  -47.9530 H         1 UNK         0.3000 
    131 H131       -3.0053  -16.5353  -47.7219 H         1 UNK         0.0600 
    132 H132       -3.7710  -17.1680  -45.4113 H         1 UNK         0.0800 
    133 H133       -5.1463  -16.1139  -45.5738 H         1 UNK         0.0800 
    134 H134       -4.7567  -19.5280  -45.1219 H         1 UNK         0.0800 
    135 H135       -3.5740  -19.5328  -46.4097 H         1 UNK         0.0800 
    136 H136       -6.1624  -20.1984  -48.4821 H         1 UNK         0.1150 
    137 H137       -6.1784  -24.4482  -47.9866 H         1 UNK         0.1150 
    138 H138       -4.2484  -21.9801  -45.0766 H         1 UNK         0.1150 
    139 H139       -4.6975  -24.3227  -44.5926 H         1 UNK         0.0800 
    140 H140       -5.5956  -25.3142  -45.7050 H         1 UNK         0.0800 
    141 H141       -1.6619  -26.2532  -44.7075 H         1 UNK         0.0800 
    142 H142       -2.7435  -25.1524  -43.9326 H         1 UNK         0.0800 
    143 H143       -1.5064  -23.3614  -45.5628 H         1 UNK         0.0600 
    144 H144       -1.0760  -22.4847  -43.6620 H         1 UNK         0.3000 
    145 H145       -0.6375  -23.5449  -40.4586 H         1 UNK         0.0600 
    146 H146        1.4933  -22.2942  -40.1368 H         1 UNK         0.0600 
    147 H147        1.8102  -23.8684  -40.8466 H         1 UNK         0.0600 
    148 H148        1.8556  -22.4292  -41.8571 H         1 UNK         0.0600 
    149 H149       -0.1097  -20.9771  -41.6384 H         1 UNK         0.3000 
    150 H150       -3.4852  -20.1146  -42.3766 H         1 UNK         0.0600 
    151 H151       -3.2191  -19.4609  -39.9923 H         1 UNK         0.0600 
    152 H152       -2.8442  -18.1041  -41.0456 H         1 UNK         0.0600 
    153 H153       -1.5429  -19.0118  -40.2775 H         1 UNK         0.0600 
    154 H154       -1.1163  -18.6309  -42.7512 H         1 UNK         0.3000 
    155 H155       -0.0967  -20.0649  -45.8940 H         1 UNK         0.0600 
    156 H156       -0.1516  -17.5512  -46.3111 H         1 UNK         0.0600 
    157 H157       -1.6833  -18.3586  -46.5257 H         1 UNK         0.0600 
    158 H158       -1.3794  -17.4304  -45.0592 H         1 UNK         0.0600 
    159 H159        0.8578  -18.0893  -43.9391 H         1 UNK         0.3000 
    160 H160        3.1938  -20.2592  -42.4496 H         1 UNK         0.0600 
    161 H161        3.8577  -18.1068  -44.5239 H         1 UNK         0.0600 
    162 H162        4.4558  -19.7630  -44.5375 H         1 UNK         0.0600 
    163 H163        4.9275  -18.6731  -43.2437 H         1 UNK         0.0600 
    164 H164        2.7707  -17.3899  -42.4217 H         1 UNK         0.3000 
    165 H165        0.2739  -17.4499  -39.8670 H         1 UNK         0.0600 
    166 H166        1.9319  -16.0702  -38.6627 H         1 UNK         0.0600 
    167 H167        2.4294  -17.7540  -38.6325 H         1 UNK         0.0600 
    168 H168        3.2223  -16.6282  -39.7282 H         1 UNK         0.0600 
    169 H169        1.5608  -15.2371  -40.9969 H         1 UNK         0.3000 
    170 H170       -1.0538  -14.4507  -43.0977 H         1 UNK         0.0600 
    171 H171        0.1443  -13.3418  -41.2007 H         1 UNK         0.0600 
    172 H172        1.6739  -13.4911  -42.0649 H         1 UNK         0.0600 
    173 H173        0.3827  -12.4921  -42.7162 H         1 UNK         0.0600 
    174 H174       -0.0810  -14.5223  -45.0563 H         1 UNK         0.3000 
    175 H175        3.1570  -14.1503  -46.0740 H         1 UNK         0.0600 
    176 H176        1.8460  -16.7990  -46.8423 H         1 UNK         0.0600 
    177 H177        3.0355  -15.9278  -47.8054 H         1 UNK         0.0600 
    178 H178        3.4833  -16.5815  -46.2436 H         1 UNK         0.0600 
    179 H179        0.2852  -14.4657  -46.8415 H         1 UNK         0.3000 
    180 H180        0.4338  -11.2975  -48.4315 H         1 UNK         0.0600 
    181 H181       -0.1998  -13.9768  -49.7663 H         1 UNK         0.0600 
    182 H182        0.9523  -12.7953  -50.3743 H         1 UNK         0.0600 
    183 H183       -0.7588  -12.3963  -50.3051 H         1 UNK         0.0600 
    184 H184       -1.7180  -13.1291  -48.0490 H         1 UNK         0.3000 
    185 H185       -2.3549  -12.7041  -44.6862 H         1 UNK         0.0600 
    186 H186       -3.1136  -10.3798  -45.2260 H         1 UNK         0.0600 
    187 H187       -3.8709  -10.9627  -46.7034 H         1 UNK         0.0600 
    188 H188       -4.4703  -11.4891  -45.1295 H         1 UNK         0.0600 
    189 H189       -4.2157  -13.4254  -46.6566 H         1 UNK         0.3000 
    190 H190        1.2711  -23.0939  -44.6937 H         1 UNK         0.3000 
    191 H191        2.7349  -25.1407  -46.2589 H         1 UNK         0.0600 
    192 H192        3.7453  -22.8068  -44.5467 H         1 UNK         0.0600 
    193 H193        4.7352  -24.0382  -45.3161 H         1 UNK         0.0600 
    194 H194        3.6225  -24.4865  -44.0326 H         1 UNK         0.0600 
    195 H195        2.2482  -21.5801  -46.1312 H         1 UNK         0.3000 
    196 H196        3.4340  -21.1919  -48.8041 H         1 UNK         0.0600 
    197 H197        3.0612  -18.7995  -48.3120 H         1 UNK         0.0600 
    198 H198        3.8712  -19.5691  -46.9578 H         1 UNK         0.0600 
    199 H199        2.1474  -19.2021  -46.8678 H         1 UNK         0.0600 
    200 H200        0.3541  -21.9843  -47.6056 H         1 UNK         0.3000 
    201 H201       -1.3633  -20.5141  -49.3702 H         1 UNK         0.0600 
    202 H202       -2.1532  -21.4750  -47.2272 H         1 UNK         0.0600 
    203 H203       -1.8657  -23.1079  -47.8353 H         1 UNK         0.0600 
    204 H204       -3.0878  -22.0921  -48.5803 H         1 UNK         0.0600 
    205 H205       -1.1827  -20.7069  -51.5006 H         1 UNK         0.3000 
    206 H206       -1.7003  -23.1224  -52.9264 H         1 UNK         0.0600 
    207 H207        0.7048  -23.6101  -52.5599 H         1 UNK         0.0600 
    208 H208        0.4846  -23.1366  -54.2290 H         1 UNK         0.0600 
    209 H209        1.1663  -21.9930  -53.0642 H         1 UNK         0.0600 
    210 H210        0.2455  -21.0557  -54.7300 H         1 UNK         0.3000 
    211 H211       -1.8678  -18.9779  -55.1571 H         1 UNK         0.0600 
    212 H212        0.1614  -20.0837  -57.1781 H         1 UNK         0.0600 
    213 H213       -0.9890  -18.7832  -57.4735 H         1 UNK         0.0600 
    214 H214       -1.5729  -20.4118  -57.1802 H         1 UNK         0.0600 
    215 H215        1.1245  -19.6065  -53.7550 H         1 UNK         0.3000 
    216 H216        2.5216  -17.1289  -54.3700 H         1 UNK         0.0600 
    217 H217        4.0408  -17.8987  -52.5341 H         1 UNK         0.0600 
    218 H218        3.7895  -19.1567  -53.7340 H         1 UNK         0.0600 
    219 H219        2.9581  -19.2397  -52.1822 H         1 UNK         0.0600 
    220 H220        0.8062  -18.4761  -51.5353 H         1 UNK         0.3000 
    221 H221       -0.4825  -15.8621  -51.0906 H         1 UNK         0.0600 
    222 H222        0.2689  -17.9024  -48.9051 H         1 UNK         0.0600 
    223 H223        1.0101  -16.3148  -49.1099 H         1 UNK         0.0600 
    224 H224       -0.6855  -16.4402  -48.6725 H         1 UNK         0.0600 
    225 H225       -2.6922  -16.1901  -50.5206 H         1 UNK         0.3000 
    226 H226       -4.7333  -16.9802  -50.8141 H         1 UNK         0.0600 
    227 H227       -5.3457  -19.2448  -50.5283 H         1 UNK         0.0600 
    228 H228       -3.7968  -19.8666  -51.0904 H         1 UNK         0.0600 
    229 H229       -3.9232  -19.0676  -49.5235 H         1 UNK         0.0600 
    230 H230       -6.0070  -18.6297  -52.5205 H         1 UNK         0.3000 
    231 H231       -5.5867  -17.1637  -54.9840 H         1 UNK         0.0600 
    232 H232       -7.8460  -17.4378  -54.1069 H         1 UNK         0.0600 
    233 H233       -7.7173  -19.1934  -54.1366 H         1 UNK         0.0600 
    234 H234       -7.7354  -18.2818  -55.6422 H         1 UNK         0.0600 
    235 H235       -6.0896  -20.6813  -54.4513 H         1 UNK         0.3000 
    236 H236       -3.8825  -21.5456  -56.0573 H         1 UNK         0.0600 
    237 H237       -5.2389  -22.5983  -57.8916 H         1 UNK         0.0600 
    238 H238       -6.6846  -21.7872  -57.2977 H         1 UNK         0.0600 
    239 H239       -5.3453  -20.8502  -57.9569 H         1 UNK         0.0600 
    240 H240       -4.2896  -21.9992  -53.5396 H         1 UNK         0.3000 
    241 H241       -6.0887  -24.1836  -52.9138 H         1 UNK         0.0600 
    242 H242       -5.3327  -26.2385  -51.7261 H         1 UNK         0.3800 
    243 H243       -3.9340  -27.0200  -52.4025 H         1 UNK         0.3800 
    244 H244       -3.9480  -22.8098  -51.2115 H         1 UNK         0.0800 
    245 H245       -5.0754  -23.9951  -50.6038 H         1 UNK         0.0800 
    246 H246       -7.4103  -23.5008  -49.7880 H         1 UNK         0.0800 
    247 H247       -7.9868  -21.8734  -49.5380 H         1 UNK         0.0800 
@<TRIPOS>BOND
     1    1    2 1    
     2    1  127 1    
     3    1  128 1    
     4    1  129 1    
     5    2    3 2    
     6    2    4 am   BACKBONE|DICT|INTERRES
     7    4    5 1    
     8    4  130 1    
     9    5    6 1    
    10    5   65 1    
    11    5  131 1    
    12    6    7 1    
    13    6  132 1    
    14    6  133 1    
    15    7    8 1    
    16    8    9 1    
    17    8  134 1    
    18    8  135 1    
    19    9   10 ar   
    20    9   14 ar   
    21   10   11 ar   
    22   10  136 1    
    23   11   12 ar   
    24   11  126 1    
    25   12   13 ar   
    26   12  137 1    
    27   13   14 ar   
    28   13   15 1    
    29   14  138 1    
    30   15   16 1    
    31   15  139 1    
    32   15  140 1    
    33   16   17 1    
    34   17   18 1    
    35   17  141 1    
    36   17  142 1    
    37   18   19 1    
    38   18   67 1    
    39   18  143 1    
    40   19   20 am   BACKBONE|DICT|INTERRES
    41   19  144 1    
    42   20   21 2    
    43   20   22 1    
    44   22   23 1    
    45   22   24 1    
    46   22  145 1    
    47   23  146 1    
    48   23  147 1    
    49   23  148 1    
    50   24   25 am   BACKBONE|DICT|INTERRES
    51   24  149 1    
    52   25   26 2    
    53   25   27 1    
    54   27   28 1    
    55   27   29 1    
    56   27  150 1    
    57   28  151 1    
    58   28  152 1    
    59   28  153 1    
    60   29   30 am   BACKBONE|DICT|INTERRES
    61   29  154 1    
    62   30   31 2    
    63   30   32 1    
    64   32   33 1    
    65   32   34 1    
    66   32  155 1    
    67   33  156 1    
    68   33  157 1    
    69   33  158 1    
    70   34   35 am   BACKBONE|DICT|INTERRES
    71   34  159 1    
    72   35   36 2    
    73   35   37 1    
    74   37   38 1    
    75   37   39 1    
    76   37  160 1    
    77   38  161 1    
    78   38  162 1    
    79   38  163 1    
    80   39   40 am   BACKBONE|DICT|INTERRES
    81   39  164 1    
    82   40   41 2    
    83   40   42 1    
    84   42   43 1    
    85   42   44 1    
    86   42  165 1    
    87   43  166 1    
    88   43  167 1    
    89   43  168 1    
    90   44   45 am   BACKBONE|DICT|INTERRES
    91   44  169 1    
    92   45   46 2    
    93   45   47 1    
    94   47   48 1    
    95   47   49 1    
    96   47  170 1    
    97   48  171 1    
    98   48  172 1    
    99   48  173 1    
   100   49   50 am   BACKBONE|DICT|INTERRES
   101   49  174 1    
   102   50   51 2    
   103   50   52 1    
   104   52   53 1    
   105   52   54 1    
   106   52  175 1    
   107   53  176 1    
   108   53  177 1    
   109   53  178 1    
   110   54   55 am   BACKBONE|DICT|INTERRES
   111   54  179 1    
   112   55   56 2    
   113   55   57 1    
   114   57   58 1    
   115   57   59 1    
   116   57  180 1    
   117   58  181 1    
   118   58  182 1    
   119   58  183 1    
   120   59   60 am   BACKBONE|DICT|INTERRES
   121   59  184 1    
   122   60   61 2    
   123   60   62 1    
   124   62   63 1    
   125   62   64 1    
   126   62  185 1    
   127   63  186 1    
   128   63  187 1    
   129   63  188 1    
   130   64   65 am   BACKBONE|DICT|INTERRES
   131   64  189 1    
   132   65   66 2    
   133   67   68 2    
   134   67   69 am   BACKBONE|DICT|INTERRES
   135   69   70 1    
   136   69  190 1    
   137   70   71 1    
   138   70   72 1    
   139   70  191 1    
   140   71  192 1    
   141   71  193 1    
   142   71  194 1    
   143   72   73 2    
   144   72   74 am   BACKBONE|DICT|INTERRES
   145   74   75 1    
   146   74  195 1    
   147   75   76 1    
   148   75   77 1    
   149   75  196 1    
   150   76  197 1    
   151   76  198 1    
   152   76  199 1    
   153   77   78 2    
   154   77   79 am   BACKBONE|DICT|INTERRES
   155   79   80 1    
   156   79  200 1    
   157   80   81 1    
   158   80   82 1    
   159   80  201 1    
   160   81  202 1    
   161   81  203 1    
   162   81  204 1    
   163   82   83 2    
   164   82   84 am   BACKBONE|DICT|INTERRES
   165   84   85 1    
   166   84  205 1    
   167   85   86 1    
   168   85   87 1    
   169   85  206 1    
   170   86  207 1    
   171   86  208 1    
   172   86  209 1    
   173   87   88 2    
   174   87   89 am   BACKBONE|DICT|INTERRES
   175   89   90 1    
   176   89  210 1    
   177   90   91 1    
   178   90   92 1    
   179   90  211 1    
   180   91  212 1    
   181   91  213 1    
   182   91  214 1    
   183   92   93 2    
   184   92   94 am   BACKBONE|DICT|INTERRES
   185   94   95 1    
   186   94  215 1    
   187   95   96 1    
   188   95   97 1    
   189   95  216 1    
   190   96  217 1    
   191   96  218 1    
   192   96  219 1    
   193   97   98 2    
   194   97   99 am   BACKBONE|DICT|INTERRES
   195   99  100 1    
   196   99  220 1    
   197  100  101 1    
   198  100  102 1    
   199  100  221 1    
   200  101  222 1    
   201  101  223 1    
   202  101  224 1    
   203  102  103 2    
   204  102  104 am   BACKBONE|DICT|INTERRES
   205  104  105 1    
   206  104  225 1    
   207  105  106 1    
   208  105  107 1    
   209  105  226 1    
   210  106  227 1    
   211  106  228 1    
   212  106  229 1    
   213  107  108 2    
   214  107  109 am   BACKBONE|DICT|INTERRES
   215  109  110 1    
   216  109  230 1    
   217  110  111 1    
   218  110  112 1    
   219  110  231 1    
   220  111  232 1    
   221  111  233 1    
   222  111  234 1    
   223  112  113 2    
   224  112  114 am   BACKBONE|DICT|INTERRES
   225  114  115 1    
   226  114  235 1    
   227  115  116 1    
   228  115  117 1    
   229  115  236 1    
   230  116  237 1    
   231  116  238 1    
   232  116  239 1    
   233  117  118 2    
   234  117  119 am   BACKBONE|DICT|INTERRES
   235  119  120 1    
   236  119  240 1    
   237  120  121 1    
   238  120  124 1    
   239  120  241 1    
   240  121  122 am   BACKBONE|DICT|INTERRES
   241  121  123 2    
   242  122  242 1    
   243  122  243 1    
   244  124  125 1    
   245  124  244 1    
   246  124  245 1    
   247  125  126 1    
   248  126  246 1    
   249  126  247 1    
@<TRIPOS>SUBSTRUCTURE
     1 UNK         1 GROUP             0       ****    0 ROOT    
