@<TRIPOS>MOLECULE
3R540
247   249    1
SMALL
USER_CHARGES


@<TRIPOS>ATOM
      1 CA          1.3241  -18.4949  -42.4710 C.3       0 UNK        -0.1800 
      2 C          -0.1488  -18.1270  -42.5681 C.2       0 UNK         0.5000 
      3 O          -0.9092  -18.4040  -41.6403 O.2       0 UNK        -0.5000 
      4 N          -0.5556  -17.5159  -43.6888 N.am      1 UNK        -0.5000 
      5 CA         -1.9044  -16.9833  -43.9193 C.3       1 UNK         0.1400 
      6 C6         -2.0835  -16.4608  -45.3665 C.3       23 UNK        -0.0398 
      7 S7         -1.8141  -17.7318  -46.6456 S.3       23 UNK        -0.2404 
      8 C8         -0.5245  -16.9302  -47.6522 C.3       23 UNK        -0.0205 
      9 C9         -0.3503  -17.6481  -48.9789 C.ar      23 UNK        -0.0193 
     10 C10        -1.1262  -17.2862  -50.0828 C.ar      23 UNK        -0.1150 
     11 C11        -1.0050  -17.9748  -51.2931 C.ar      23 UNK        -0.0193 
     12 C12        -0.1102  -19.0457  -51.3898 C.ar      23 UNK        -0.1150 
     13 C13         0.6684  -19.4187  -50.2878 C.ar      23 UNK        -0.0193 
     14 C14         0.5631  -18.6960  -49.0973 C.ar      23 UNK        -0.1150 
     15 C15         1.5629  -20.6511  -50.3526 C.3       23 UNK        -0.0205 
     16 S16         1.1422  -21.9048  -49.0845 S.3       23 UNK        -0.2404 
     17 C17        -0.6660  -22.0709  -49.2856 C.3       23 UNK        -0.0398 
     18 CA         -1.4259  -22.5446  -48.0212 C.3       11 UNK         0.1400 
     19 N          -0.9972  -21.8924  -46.7750 N.am      11 UNK        -0.5000 
     20 C          -1.4596  -22.1776  -45.5475 C.2       10 UNK         0.5000 
     21 O          -2.3767  -22.9777  -45.3443 O.2       10 UNK        -0.5000 
     22 CA         -0.8004  -21.4464  -44.3582 C.3       10 UNK         0.1400 
     23 CB         -1.2320  -22.0235  -42.9982 C.3       10 UNK        -0.1800 
     24 N           0.6644  -21.4504  -44.4281 N.am      10 UNK        -0.5000 
     25 C           1.3871  -20.6149  -45.1800 C.2       9 UNK         0.5000 
     26 O           0.8789  -19.7838  -45.9350 O.2       9 UNK        -0.5000 
     27 CA          2.9153  -20.7087  -45.0718 C.3       9 UNK         0.1400 
     28 CB          3.4573  -21.9662  -45.7712 C.3       9 UNK        -0.1800 
     29 N           3.4624  -19.5193  -45.7089 N.am      9 UNK        -0.5000 
     30 C           4.5708  -18.8588  -45.3696 C.2       8 UNK         0.5000 
     31 O           5.3567  -19.2433  -44.5006 O.2       8 UNK        -0.5000 
     32 CA          4.8680  -17.5627  -46.1587 C.3       8 UNK         0.1400 
     33 CB          3.6492  -17.0002  -46.9304 C.3       8 UNK        -0.1800 
     34 N           5.4688  -16.5143  -45.3280 N.am      8 UNK        -0.5000 
     35 C           4.9253  -15.9217  -44.2557 C.2       7 UNK         0.5000 
     36 O           3.8174  -16.2030  -43.7926 O.2       7 UNK        -0.5000 
     37 CA          5.7530  -14.7760  -43.6463 C.3       7 UNK         0.1400 
     38 CB          5.6411  -13.5099  -44.5122 C.3       7 UNK        -0.1800 
     39 N           5.3088  -14.4552  -42.2920 N.am      7 UNK        -0.5000 
     40 C           5.7435  -15.0706  -41.1847 C.2       6 UNK         0.5000 
     41 O           6.6091  -15.9475  -41.1873 O.2       6 UNK        -0.5000 
     42 CA          5.1314  -14.6250  -39.8418 C.3       6 UNK         0.1400 
     43 CB          6.0528  -13.6146  -39.1407 C.3       6 UNK        -0.1800 
     44 N           3.8033  -14.0296  -39.9871 N.am      6 UNK        -0.5000 
     45 C           2.6796  -14.7247  -40.2020 C.2       5 UNK         0.5000 
     46 O           2.6349  -15.9538  -40.2335 O.2       5 UNK        -0.5000 
     47 CA          1.3829  -13.9175  -40.4052 C.3       5 UNK         0.1400 
     48 CB          1.3661  -12.5704  -39.6498 C.3       5 UNK        -0.1800 
     49 N           1.0654  -13.7162  -41.8198 N.am      5 UNK        -0.5000 
     50 C           1.8083  -13.1026  -42.7544 C.2       4 UNK         0.5000 
     51 O           2.9335  -12.6440  -42.5519 O.2       4 UNK        -0.5000 
     52 CA          1.1623  -12.9358  -44.1444 C.3       4 UNK         0.1400 
     53 CB          1.4007  -14.1791  -45.0154 C.3       4 UNK        -0.1800 
     54 N          -0.2776  -12.6839  -44.0599 N.am      4 UNK        -0.5000 
     55 C          -0.8386  -11.5373  -43.6445 C.2       3 UNK         0.5000 
     56 O          -0.2014  -10.5254  -43.3525 O.2       3 UNK        -0.5000 
     57 CA         -2.3687  -11.5431  -43.5005 C.3       3 UNK         0.1400 
     58 CB         -3.0451  -11.3436  -44.8707 C.3       3 UNK        -0.1800 
     59 N          -2.7774  -12.8016  -42.8828 N.am      3 UNK        -0.5000 
     60 C          -3.9810  -13.1535  -42.4276 C.2       2 UNK         0.5000 
     61 O          -4.9754  -12.4288  -42.4913 O.2       2 UNK        -0.5000 
     62 CA         -4.0701  -14.5667  -41.7986 C.3       2 UNK         0.1400 
     63 CB         -5.5076  -14.9471  -41.4002 C.3       2 UNK        -0.1800 
     64 N          -3.5270  -15.6269  -42.6604 N.am      2 UNK        -0.5000 
     65 C          -2.2321  -15.8429  -42.9303 C.2       1 UNK         0.5000 
     66 O          -1.3219  -15.1319  -42.4920 O.2       1 UNK        -0.5000 
     67 C          -2.9365  -22.3908  -48.2747 C.2       11 UNK         0.5000 
     68 O          -3.5419  -23.2855  -48.8628 O.2       11 UNK        -0.5000 
     69 N          -3.5147  -21.2657  -47.8273 N.am      12 UNK        -0.5000 
     70 CA         -4.9414  -20.9422  -47.8958 C.3       12 UNK         0.1400 
     71 CB         -5.1721  -19.5660  -47.2548 C.3       12 UNK        -0.1800 
     72 C          -5.8442  -22.0055  -47.2427 C.2       12 UNK         0.5000 
     73 O          -6.9204  -22.2893  -47.7685 O.2       12 UNK        -0.5000 
     74 N          -5.3688  -22.5918  -46.1370 N.am      13 UNK        -0.5000 
     75 CA         -6.0313  -23.6848  -45.4328 C.3       13 UNK         0.1400 
     76 CB         -5.8356  -23.4953  -43.9200 C.3       13 UNK        -0.1800 
     77 C          -5.4823  -25.0499  -45.8776 C.2       13 UNK         0.5000 
     78 O          -6.2630  -25.9803  -46.0800 O.2       13 UNK        -0.5000 
     79 N          -4.1517  -25.1546  -45.9968 N.am      14 UNK        -0.5000 
     80 CA         -3.4438  -26.4194  -46.1902 C.3       14 UNK         0.1400 
     81 CB         -1.9714  -26.2297  -45.7930 C.3       14 UNK        -0.1800 
     82 C          -3.5380  -27.0032  -47.6111 C.2       14 UNK         0.5000 
     83 O          -3.4627  -28.2248  -47.7527 O.2       14 UNK        -0.5000 
     84 N          -3.6580  -26.1465  -48.6340 N.am      15 UNK        -0.5000 
     85 CA         -3.5177  -26.5385  -50.0391 C.3       15 UNK         0.1400 
     86 CB         -2.0300  -26.4488  -50.4348 C.3       15 UNK        -0.1800 
     87 C          -4.4162  -25.7224  -50.9851 C.2       15 UNK         0.5000 
     88 O          -4.1206  -25.6544  -52.1787 O.2       15 UNK        -0.5000 
     89 N          -5.4764  -25.0944  -50.4534 N.am      16 UNK        -0.5000 
     90 CA         -6.4366  -24.2423  -51.1715 C.3       16 UNK         0.1400 
     91 CB         -7.3282  -25.0970  -52.0960 C.3       16 UNK        -0.1800 
     92 C          -5.7523  -23.0737  -51.9154 C.2       16 UNK         0.5000 
     93 O          -5.9663  -22.8777  -53.1137 O.2       16 UNK        -0.5000 
     94 N          -4.8845  -22.3586  -51.1863 N.am      17 UNK        -0.5000 
     95 CA         -4.0251  -21.2626  -51.6505 C.3       17 UNK         0.1400 
     96 CB         -4.8652  -20.0634  -52.1366 C.3       17 UNK        -0.1800 
     97 C          -2.9734  -21.7457  -52.6681 C.2       17 UNK         0.5000 
     98 O          -2.6717  -21.0387  -53.6294 O.2       17 UNK        -0.5000 
     99 N          -2.4632  -22.9661  -52.4367 N.am      18 UNK        -0.5000 
    100 CA        -1.5524  -23.7291  -53.2978 C.3       18 UNK         0.1400 
    101 CB        -0.1549  -23.0777  -53.3321 C.3       18 UNK        -0.1800 
    102 C         -2.1631  -23.9782  -54.6925 C.2       18 UNK         0.5000 
    103 O         -1.5216  -23.7210  -55.7112 O.2       18 UNK        -0.5000 
    104 N         -3.4211  -24.4439  -54.6902 N.am      19 UNK        -0.5000 
    105 CA        -4.3138  -24.6080  -55.8411 C.3       19 UNK         0.1400 
    106 CB        -3.8138  -25.7351  -56.7685 C.3       19 UNK        -0.1800 
    107 C         -4.5628  -23.2724  -56.5754 C.2       19 UNK         0.5000 
    108 O         -4.4488  -23.2049  -57.8009 O.2       19 UNK        -0.5000 
    109 N         -4.8905  -22.2343  -55.7909 N.am      20 UNK        -0.5000 
    110 CA        -5.1445  -20.8497  -56.2022 C.3       20 UNK         0.1400 
    111 CB        -6.4697  -20.7558  -56.9860 C.3       20 UNK        -0.1800 
    112 C         -3.9559  -20.1957  -56.9413 C.2       20 UNK         0.5000 
    113 O         -4.1522  -19.5188  -57.9534 O.2       20 UNK        -0.5000 
    114 N         -2.7394  -20.3825  -56.4084 N.am      21 UNK        -0.5000 
    115 CA        -1.4843  -19.8562  -56.9597 C.3       21 UNK         0.1400 
    116 CB        -0.3007  -20.3981  -56.1454 C.3       21 UNK        -0.1800 
    117 C         -1.4239  -18.3183  -57.0009 C.2       21 UNK         0.5000 
    118 O         -0.7742  -17.7557  -57.8832 O.2       21 UNK        -0.5000 
    119 N         -2.1181  -17.6757  -56.0557 N.am      22 UNK        -0.5000 
    120 CA        -2.2898  -16.2184  -55.9760 C.3       22 UNK         0.1400 
    121 C         -3.3792  -15.6556  -56.9398 C.2       22 UNK         0.5000 
    122 N         -4.1006  -16.4722  -57.7010 N.am      22 UNK        -0.7600 
    123 O         -3.5694  -14.4444  -57.0077 O.2       22 UNK        -0.5000 
    124 C124       -2.5357  -15.7555  -54.5170 C.3       23 UNK        -0.0398 
    125 S125       -1.1595  -16.1782  -53.3904 S.3       23 UNK        -0.2404 
    126 C126       -1.8727  -17.5789  -52.4765 C.3       23 UNK        -0.0205 
    127 H127        1.8749  -18.2053  -43.3662 H         1 UNK         0.0600 
    128 H128        1.7791  -17.9905  -41.6205 H         1 UNK         0.0600 
    129 H129        1.4366  -19.5683  -42.3237 H         1 UNK         0.0600 
    130 H130        0.1079  -17.3593  -44.4328 H         1 UNK         0.3000 
    131 H131       -2.6135  -17.7961  -43.7493 H         1 UNK         0.0600 
    132 H132       -3.0957  -16.0788  -45.5122 H         1 UNK         0.0800 
    133 H133       -1.4174  -15.6157  -45.5477 H         1 UNK         0.0800 
    134 H134       -0.7893  -15.8876  -47.8352 H         1 UNK         0.0800 
    135 H135        0.4150  -16.9227  -47.0978 H         1 UNK         0.0800 
    136 H136       -1.8347  -16.4741  -49.9968 H         1 UNK         0.1150 
    137 H137       -0.0399  -19.6015  -52.3147 H         1 UNK         0.1150 
    138 H138        1.1592  -18.9866  -48.2468 H         1 UNK         0.1150 
    139 H139        1.5051  -21.1159  -51.3376 H         1 UNK         0.0800 
    140 H140        2.6008  -20.3448  -50.2170 H         1 UNK         0.0800 
    141 H141       -0.8393  -22.7705  -50.1041 H         1 UNK         0.0800 
    142 H142       -1.0786  -21.1196  -49.6183 H         1 UNK         0.0800 
    143 H143       -1.2278  -23.6107  -47.8978 H         1 UNK         0.0600 
    144 H144       -0.2623  -21.1969  -46.8551 H         1 UNK         0.3000 
    145 H145       -1.1526  -20.4135  -44.3990 H         1 UNK         0.0600 
    146 H146       -0.7913  -21.4614  -42.1745 H         1 UNK         0.0600 
    147 H147       -2.3148  -21.9744  -42.8759 H         1 UNK         0.0600 
    148 H148       -0.9352  -23.0676  -42.8917 H         1 UNK         0.0600 
    149 H149        1.1370  -22.1383  -43.8597 H         1 UNK         0.3000 
    150 H150        3.1860  -20.7225  -44.0141 H         1 UNK         0.0600 
    151 H151        3.0508  -22.8740  -45.3244 H         1 UNK         0.0600 
    152 H152        4.5429  -22.0232  -45.6901 H         1 UNK         0.0600 
    153 H153        3.2019  -21.9774  -46.8311 H         1 UNK         0.0600 
    154 H154        2.8288  -19.1051  -46.3810 H         1 UNK         0.3000 
    155 H155        5.6252  -17.8314  -46.8964 H         1 UNK         0.0600 
    156 H156        3.9002  -16.0644  -47.4297 H         1 UNK         0.0600 
    157 H157        2.8043  -16.8035  -46.2693 H         1 UNK         0.0600 
    158 H158        3.3140  -17.6898  -47.7059 H         1 UNK         0.0600 
    159 H159        6.3953  -16.2269  -45.6099 H         1 UNK         0.3000 
    160 H160        6.8012  -15.0816  -43.6198 H         1 UNK         0.0600 
    161 H161        4.6076  -13.1780  -44.6124 H         1 UNK         0.0600 
    162 H162        6.0260  -13.6843  -45.5176 H         1 UNK         0.0600 
    163 H163        6.2154  -12.6880  -44.0846 H         1 UNK         0.0600 
    164 H164        4.5409  -13.7953  -42.2187 H         1 UNK         0.3000 
    165 H165        5.0510  -15.5092  -39.2058 H         1 UNK         0.0600 
    166 H166        6.1671  -12.7011  -39.7255 H         1 UNK         0.0600 
    167 H167        5.6638  -13.3401  -38.1600 H         1 UNK         0.0600 
    168 H168        7.0483  -14.0339  -38.9886 H         1 UNK         0.0600 
    169 H169        3.7555  -13.0212  -40.0124 H         1 UNK         0.3000 
    170 H170        0.5757  -14.5282  -39.9974 H         1 UNK         0.0600 
    171 H171        1.5957  -12.7112  -38.5928 H         1 UNK         0.0600 
    172 H172        2.0839  -11.8557  -40.0529 H         1 UNK         0.0600 
    173 H173        0.3801  -12.1089  -39.7060 H         1 UNK         0.0600 
    174 H174        0.1886  -14.1371  -42.1164 H         1 UNK         0.3000 
    175 H175        1.6321  -12.0802  -44.6341 H         1 UNK         0.0600 
    176 H176        0.9157  -14.0847  -45.9871 H         1 UNK         0.0600 
    177 H177        2.4648  -14.3207  -45.2021 H         1 UNK         0.0600 
    178 H178        1.0284  -15.0860  -44.5377 H         1 UNK         0.0600 
    179 H179       -0.8785  -13.4574  -44.2968 H         1 UNK         0.3000 
    180 H180       -2.6516  -10.7234  -42.8372 H         1 UNK         0.0600 
    181 H181       -2.6798  -10.4383  -45.3571 H         1 UNK         0.0600 
    182 H182       -4.1254  -11.2399  -44.7728 H         1 UNK         0.0600 
    183 H183       -2.8493  -12.1802  -45.5423 H         1 UNK         0.0600 
    184 H184       -2.0326  -13.4757  -42.7260 H         1 UNK         0.3000 
    185 H185       -3.4742  -14.5382  -40.8838 H         1 UNK         0.0600 
    186 H186       -5.9293  -14.2185  -40.7066 H         1 UNK         0.0600 
    187 H187       -6.1661  -14.9954  -42.2683 H         1 UNK         0.0600 
    188 H188       -5.5357  -15.9167  -40.9026 H         1 UNK         0.0600 
    189 H189       -4.2161  -16.2269  -43.0904 H         1 UNK         0.3000 
    190 H190       -2.9258  -20.5848  -47.3683 H         1 UNK         0.3000 
    191 H191       -5.2241  -20.8701  -48.9457 H         1 UNK         0.0600 
    192 H192       -4.6186  -18.7888  -47.7823 H         1 UNK         0.0600 
    193 H193       -6.2270  -19.2902  -47.2876 H         1 UNK         0.0600 
    194 H194       -4.8594  -19.5496  -46.2099 H         1 UNK         0.0600 
    195 H195       -4.4468  -22.3356  -45.8082 H         1 UNK         0.3000 
    196 H196       -7.1043  -23.6693  -45.6363 H         1 UNK         0.0600 
    197 H197       -6.3159  -24.2988  -43.3601 H         1 UNK         0.0600 
    198 H198       -6.2748  -22.5566  -43.5822 H         1 UNK         0.0600 
    199 H199       -4.7798  -23.4879  -43.6451 H         1 UNK         0.0600 
    200 H200       -3.5716  -24.3448  -45.7934 H         1 UNK         0.3000 
    201 H201       -3.8779  -27.1549  -45.5092 H         1 UNK         0.0600 
    202 H202       -1.8816  -25.8833  -44.7631 H         1 UNK         0.0600 
    203 H203       -1.4717  -25.5036  -46.4341 H         1 UNK         0.0600 
    204 H204       -1.4207  -27.1682  -45.8693 H         1 UNK         0.0600 
    205 H205       -3.7064  -25.1476  -48.4531 H         1 UNK         0.3000 
    206 H206       -3.8413  -27.5735  -50.1651 H         1 UNK         0.0600 
    207 H207       -1.8691  -26.7860  -51.4594 H         1 UNK         0.0600 
    208 H208       -1.6576  -25.4269  -50.3565 H         1 UNK         0.0600 
    209 H209       -1.4122  -27.0779  -49.7939 H         1 UNK         0.0600 
    210 H210       -5.6353  -25.1990  -49.4614 H         1 UNK         0.3000 
    211 H211       -7.0797  -23.7901  -50.4150 H         1 UNK         0.0600 
    212 H212       -6.7552  -25.5593  -52.9005 H         1 UNK         0.0600 
    213 H213       -8.1069  -24.4890  -52.5580 H         1 UNK         0.0600 
    214 H214       -7.8249  -25.8915  -51.5393 H         1 UNK         0.0600 
    215 H215       -4.7007  -22.6825  -50.2410 H         1 UNK         0.3000 
    216 H216       -3.4546  -20.9188  -50.7880 H         1 UNK         0.0600 
    217 H217       -5.5147  -19.6959  -51.3423 H         1 UNK         0.0600 
    218 H218       -5.4956  -20.3187  -52.9863 H         1 UNK         0.0600 
    219 H219       -4.2316  -19.2332  -52.4428 H         1 UNK         0.0600 
    220 H220       -2.8420  -23.4789  -51.6542 H         1 UNK         0.3000 
    221 H221       -1.4394  -24.7131  -52.8422 H         1 UNK         0.0600 
    222 H222       -0.1856  -22.0649  -53.7303 H         1 UNK         0.0600 
    223 H223        0.2775  -23.0297  -52.3334 H         1 UNK         0.0600 
    224 H224        0.5319  -23.6540  -53.9527 H         1 UNK         0.0600 
    225 H225       -3.8294  -24.6781  -53.7883 H         1 UNK         0.3000 
    226 H226       -5.2781  -24.9185  -55.4357 H         1 UNK         0.0600 
    227 H227       -3.6694  -26.6636  -56.2162 H         1 UNK         0.0600 
    228 H228       -4.5367  -25.9373  -57.5596 H         1 UNK         0.0600 
    229 H229       -2.8686  -25.4792  -57.2479 H         1 UNK         0.0600 
    230 H230       -5.0043  -22.4183  -54.7982 H         1 UNK         0.3000 
    231 H231       -5.2706  -20.2775  -55.2838 H         1 UNK         0.0600 
    232 H232       -7.2932  -21.1908  -56.4194 H         1 UNK         0.0600 
    233 H233       -6.4113  -21.2730  -57.9441 H         1 UNK         0.0600 
    234 H234       -6.7314  -19.7169  -57.1900 H         1 UNK         0.0600 
    235 H235       -2.6681  -20.8909  -55.5302 H         1 UNK         0.3000 
    236 H236       -1.3932  -20.2191  -57.9853 H         1 UNK         0.0600 
    237 H237        0.6471  -20.0214  -56.5320 H         1 UNK         0.0600 
    238 H238       -0.3685  -20.1024  -55.0978 H         1 UNK         0.0600 
    239 H239       -0.2550  -21.4850  -56.1898 H         1 UNK         0.0600 
    240 H240       -2.6225  -18.2281  -55.3795 H         1 UNK         0.3000 
    241 H241       -1.3554  -15.7576  -56.3020 H         1 UNK         0.0600 
    242 H242       -3.9546  -17.4748  -57.6940 H         1 UNK         0.3800 
    243 H243       -4.7933  -16.0798  -58.3189 H         1 UNK         0.3800 
    244 H244       -2.6512  -14.6709  -54.4789 H         1 UNK         0.0800 
    245 H245       -3.4718  -16.1680  -54.1376 H         1 UNK         0.0800 
    246 H246       -2.8666  -17.3092  -52.1171 H         1 UNK         0.0800 
    247 H247       -1.9997  -18.4243  -53.1536 H         1 UNK         0.0800 
@<TRIPOS>BOND
     1    1    2 1    
     2    1  127 1    
     3    1  128 1    
     4    1  129 1    
     5    2    3 2    
     6    2    4 am   BACKBONE|DICT|INTERRES
     7    4    5 1    
     8    4  130 1    
     9    5    6 1    
    10    5   65 1    
    11    5  131 1    
    12    6    7 1    
    13    6  132 1    
    14    6  133 1    
    15    7    8 1    
    16    8    9 1    
    17    8  134 1    
    18    8  135 1    
    19    9   10 ar   
    20    9   14 ar   
    21   10   11 ar   
    22   10  136 1    
    23   11   12 ar   
    24   11  126 1    
    25   12   13 ar   
    26   12  137 1    
    27   13   14 ar   
    28   13   15 1    
    29   14  138 1    
    30   15   16 1    
    31   15  139 1    
    32   15  140 1    
    33   16   17 1    
    34   17   18 1    
    35   17  141 1    
    36   17  142 1    
    37   18   19 1    
    38   18   67 1    
    39   18  143 1    
    40   19   20 am   BACKBONE|DICT|INTERRES
    41   19  144 1    
    42   20   21 2    
    43   20   22 1    
    44   22   23 1    
    45   22   24 1    
    46   22  145 1    
    47   23  146 1    
    48   23  147 1    
    49   23  148 1    
    50   24   25 am   BACKBONE|DICT|INTERRES
    51   24  149 1    
    52   25   26 2    
    53   25   27 1    
    54   27   28 1    
    55   27   29 1    
    56   27  150 1    
    57   28  151 1    
    58   28  152 1    
    59   28  153 1    
    60   29   30 am   BACKBONE|DICT|INTERRES
    61   29  154 1    
    62   30   31 2    
    63   30   32 1    
    64   32   33 1    
    65   32   34 1    
    66   32  155 1    
    67   33  156 1    
    68   33  157 1    
    69   33  158 1    
    70   34   35 am   BACKBONE|DICT|INTERRES
    71   34  159 1    
    72   35   36 2    
    73   35   37 1    
    74   37   38 1    
    75   37   39 1    
    76   37  160 1    
    77   38  161 1    
    78   38  162 1    
    79   38  163 1    
    80   39   40 am   BACKBONE|DICT|INTERRES
    81   39  164 1    
    82   40   41 2    
    83   40   42 1    
    84   42   43 1    
    85   42   44 1    
    86   42  165 1    
    87   43  166 1    
    88   43  167 1    
    89   43  168 1    
    90   44   45 am   BACKBONE|DICT|INTERRES
    91   44  169 1    
    92   45   46 2    
    93   45   47 1    
    94   47   48 1    
    95   47   49 1    
    96   47  170 1    
    97   48  171 1    
    98   48  172 1    
    99   48  173 1    
   100   49   50 am   BACKBONE|DICT|INTERRES
   101   49  174 1    
   102   50   51 2    
   103   50   52 1    
   104   52   53 1    
   105   52   54 1    
   106   52  175 1    
   107   53  176 1    
   108   53  177 1    
   109   53  178 1    
   110   54   55 am   BACKBONE|DICT|INTERRES
   111   54  179 1    
   112   55   56 2    
   113   55   57 1    
   114   57   58 1    
   115   57   59 1    
   116   57  180 1    
   117   58  181 1    
   118   58  182 1    
   119   58  183 1    
   120   59   60 am   BACKBONE|DICT|INTERRES
   121   59  184 1    
   122   60   61 2    
   123   60   62 1    
   124   62   63 1    
   125   62   64 1    
   126   62  185 1    
   127   63  186 1    
   128   63  187 1    
   129   63  188 1    
   130   64   65 am   BACKBONE|DICT|INTERRES
   131   64  189 1    
   132   65   66 2    
   133   67   68 2    
   134   67   69 am   BACKBONE|DICT|INTERRES
   135   69   70 1    
   136   69  190 1    
   137   70   71 1    
   138   70   72 1    
   139   70  191 1    
   140   71  192 1    
   141   71  193 1    
   142   71  194 1    
   143   72   73 2    
   144   72   74 am   BACKBONE|DICT|INTERRES
   145   74   75 1    
   146   74  195 1    
   147   75   76 1    
   148   75   77 1    
   149   75  196 1    
   150   76  197 1    
   151   76  198 1    
   152   76  199 1    
   153   77   78 2    
   154   77   79 am   BACKBONE|DICT|INTERRES
   155   79   80 1    
   156   79  200 1    
   157   80   81 1    
   158   80   82 1    
   159   80  201 1    
   160   81  202 1    
   161   81  203 1    
   162   81  204 1    
   163   82   83 2    
   164   82   84 am   BACKBONE|DICT|INTERRES
   165   84   85 1    
   166   84  205 1    
   167   85   86 1    
   168   85   87 1    
   169   85  206 1    
   170   86  207 1    
   171   86  208 1    
   172   86  209 1    
   173   87   88 2    
   174   87   89 am   BACKBONE|DICT|INTERRES
   175   89   90 1    
   176   89  210 1    
   177   90   91 1    
   178   90   92 1    
   179   90  211 1    
   180   91  212 1    
   181   91  213 1    
   182   91  214 1    
   183   92   93 2    
   184   92   94 am   BACKBONE|DICT|INTERRES
   185   94   95 1    
   186   94  215 1    
   187   95   96 1    
   188   95   97 1    
   189   95  216 1    
   190   96  217 1    
   191   96  218 1    
   192   96  219 1    
   193   97   98 2    
   194   97   99 am   BACKBONE|DICT|INTERRES
   195   99  100 1    
   196   99  220 1    
   197  100  101 1    
   198  100  102 1    
   199  100  221 1    
   200  101  222 1    
   201  101  223 1    
   202  101  224 1    
   203  102  103 2    
   204  102  104 am   BACKBONE|DICT|INTERRES
   205  104  105 1    
   206  104  225 1    
   207  105  106 1    
   208  105  107 1    
   209  105  226 1    
   210  106  227 1    
   211  106  228 1    
   212  106  229 1    
   213  107  108 2    
   214  107  109 am   BACKBONE|DICT|INTERRES
   215  109  110 1    
   216  109  230 1    
   217  110  111 1    
   218  110  112 1    
   219  110  231 1    
   220  111  232 1    
   221  111  233 1    
   222  111  234 1    
   223  112  113 2    
   224  112  114 am   BACKBONE|DICT|INTERRES
   225  114  115 1    
   226  114  235 1    
   227  115  116 1    
   228  115  117 1    
   229  115  236 1    
   230  116  237 1    
   231  116  238 1    
   232  116  239 1    
   233  117  118 2    
   234  117  119 am   BACKBONE|DICT|INTERRES
   235  119  120 1    
   236  119  240 1    
   237  120  121 1    
   238  120  124 1    
   239  120  241 1    
   240  121  122 am   BACKBONE|DICT|INTERRES
   241  121  123 2    
   242  122  242 1    
   243  122  243 1    
   244  124  125 1    
   245  124  244 1    
   246  124  245 1    
   247  125  126 1    
   248  126  246 1    
   249  126  247 1    
@<TRIPOS>SUBSTRUCTURE
     1 UNK         1 GROUP             0       ****    0 ROOT    
