@<TRIPOS>MOLECULE
3R540
247   249    1
SMALL
USER_CHARGES


@<TRIPOS>ATOM
      1 CA         -0.8629  -14.3399  -50.1903 C.3       0 UNK        -0.1800 
      2 C           0.5415  -13.7794  -50.0107 C.2       0 UNK         0.5000 
      3 O           1.2374  -13.5477  -50.9985 O.2       0 UNK        -0.5000 
      4 N           0.9518  -13.5607  -48.7557 N.am      1 UNK        -0.5000 
      5 CA          2.2774  -13.0607  -48.3657 C.3       1 UNK         0.1400 
      6 C6          3.1106  -14.1313  -47.6106 C.3       23 UNK        -0.0398 
      7 S7          3.6018  -15.5187  -48.6865 S.3       23 UNK        -0.2404 
      8 C8          2.3026  -16.7321  -48.3095 C.3       23 UNK        -0.0205 
      9 C9          2.2475  -17.8247  -49.3625 C.ar      23 UNK        -0.0193 
     10 C10         1.7600  -17.5352  -50.6400 C.ar      23 UNK        -0.1150 
     11 C11         1.7232  -18.5221  -51.6276 C.ar      23 UNK        -0.0193 
     12 C12         2.1652  -19.8128  -51.3250 C.ar      23 UNK        -0.1150 
     13 C13         2.6355  -20.1195  -50.0447 C.ar      23 UNK        -0.0193 
     14 C14         2.6787  -19.1203  -49.0672 C.ar      23 UNK        -0.1150 
     15 C15         3.0953  -21.5318  -49.7194 C.3       23 UNK        -0.0205 
     16 S16         1.6870  -22.6649  -49.5169 S.3       23 UNK        -0.2404 
     17 C17         0.8254  -21.9240  -48.0917 C.3       23 UNK        -0.0398 
     18 CA          0.0981  -22.9711  -47.2190 C.3       11 UNK         0.1400 
     19 N          -0.0637  -22.4888  -45.8459 N.am      11 UNK        -0.5000 
     20 C          -0.4223  -23.2555  -44.8087 C.2       10 UNK         0.5000 
     21 O          -0.6294  -24.4656  -44.8953 O.2       10 UNK        -0.5000 
     22 CA         -0.6283  -22.5400  -43.4615 C.3       10 UNK         0.1400 
     23 CB          0.7185  -22.2900  -42.7673 C.3       10 UNK        -0.1800 
     24 N          -1.3570  -21.2768  -43.6007 N.am      10 UNK        -0.5000 
     25 C          -2.6243  -21.1818  -44.0281 C.2       9 UNK         0.5000 
     26 O          -3.3200  -22.1556  -44.3088 O.2       9 UNK        -0.5000 
     27 CA         -3.2048  -19.7700  -44.2194 C.3       9 UNK         0.1400 
     28 CB         -3.6647  -19.1831  -42.8772 C.3       9 UNK        -0.1800 
     29 N          -2.2702  -18.8511  -44.8674 N.am      9 UNK        -0.5000 
     30 C          -1.7768  -19.0022  -46.1051 C.2       8 UNK         0.5000 
     31 O          -2.0716  -19.9321  -46.8543 O.2       8 UNK        -0.5000 
     32 CA         -0.7290  -17.9695  -46.5566 C.3       8 UNK         0.1400 
     33 CB         -1.3995  -16.6449  -46.9562 C.3       8 UNK        -0.1800 
     34 N           0.2766  -17.7290  -45.5200 N.am      8 UNK        -0.5000 
     35 C           1.1207  -18.6647  -45.0586 C.2       7 UNK         0.5000 
     36 O           1.1854  -19.8108  -45.5025 O.2       7 UNK        -0.5000 
     37 CA          2.0018  -18.2670  -43.8641 C.3       7 UNK         0.1400 
     38 CB          3.2526  -17.5065  -44.3314 C.3       7 UNK        -0.1800 
     39 N           1.2580  -17.4663  -42.8903 N.am      7 UNK        -0.5000 
     40 C           0.2932  -17.9606  -42.0991 C.2       6 UNK         0.5000 
     41 O          -0.0358  -19.1459  -42.0876 O.2       6 UNK        -0.5000 
     42 CA         -0.4602  -16.9628  -41.1994 C.3       6 UNK         0.1400 
     43 CB          0.2822  -16.7695  -39.8691 C.3       6 UNK        -0.1800 
     44 N          -0.6601  -15.6607  -41.8349 N.am      6 UNK        -0.5000 
     45 C          -1.3956  -15.4514  -42.9363 C.2       5 UNK         0.5000 
     46 O          -2.0388  -16.3332  -43.5030 O.2       5 UNK        -0.5000 
     47 CA         -1.3590  -14.0335  -43.5370 C.3       5 UNK         0.1400 
     48 CB         -2.5234  -13.1870  -43.0042 C.3       5 UNK        -0.1800 
     49 N          -0.0981  -13.3350  -43.2788 N.am      5 UNK        -0.5000 
     50 C           1.1032  -13.7233  -43.7246 C.2       4 UNK         0.5000 
     51 O           1.2692  -14.7184  -44.4326 O.2       4 UNK        -0.5000 
     52 CA          2.3007  -12.8586  -43.2831 C.3       4 UNK         0.1400 
     53 CB          3.6490  -13.3797  -43.8084 C.3       4 UNK        -0.1800 
     54 N           2.1219  -11.4642  -43.6899 N.am      4 UNK        -0.5000 
     55 C           1.4104  -10.5544  -43.0079 C.2       3 UNK         0.5000 
     56 O           0.8477  -10.8020  -41.9402 O.2       3 UNK        -0.5000 
     57 CA          1.2684   -9.1484  -43.6224 C.3       3 UNK         0.1400 
     58 CB          2.3278   -8.1996  -43.0418 C.3       3 UNK        -0.1800 
     59 N           1.3653   -9.1344  -45.0820 N.am      3 UNK        -0.5000 
     60 C           0.4758   -9.6829  -45.9204 C.2       2 UNK         0.5000 
     61 O          -0.5552  -10.2474  -45.5516 O.2       2 UNK        -0.5000 
     62 CA          0.7929   -9.6090  -47.4282 C.3       2 UNK         0.1400 
     63 CB          1.8808   -8.5737  -47.7948 C.3       2 UNK        -0.1800 
     64 N           1.1379  -10.9238  -47.9768 N.am      2 UNK        -0.5000 
     65 C           2.1186  -11.7466  -47.5709 C.2       1 UNK         0.5000 
     66 O           2.8686  -11.4966  -46.6253 O.2       1 UNK        -0.5000 
     67 C          -1.2447  -23.4225  -47.8394 C.2       11 UNK         0.5000 
     68 O          -1.2741  -24.3992  -48.5909 O.2       11 UNK        -0.5000 
     69 N          -2.3398  -22.7305  -47.4946 N.am      12 UNK        -0.5000 
     70 CA         -3.7024  -23.0921  -47.8815 C.3       12 UNK         0.1400 
     71 CB         -4.6389  -21.8954  -47.6662 C.3       12 UNK        -0.1800 
     72 C          -4.2099  -24.3412  -47.1388 C.2       12 UNK         0.5000 
     73 O          -4.8374  -25.1978  -47.7580 O.2       12 UNK        -0.5000 
     74 N          -3.8865  -24.4677  -45.8437 N.am      13 UNK        -0.5000 
     75 CA         -4.1750  -25.6517  -45.0263 C.3       13 UNK         0.1400 
     76 CB         -3.8445  -25.3606  -43.5549 C.3       13 UNK        -0.1800 
     77 C          -3.4327  -26.9104  -45.5175 C.2       13 UNK         0.5000 
     78 O          -3.9894  -28.0073  -45.4645 O.2       13 UNK        -0.5000 
     79 N          -2.2126  -26.7191  -46.0372 N.am      14 UNK        -0.5000 
     80 CA         -1.4181  -27.7362  -46.7293 C.3       14 UNK         0.1400 
     81 CB          0.0483  -27.2746  -46.7569 C.3       14 UNK        -0.1800 
     82 C          -1.9149  -28.0392  -48.1613 C.2       14 UNK         0.5000 
     83 O          -1.4129  -28.9778  -48.7798 O.2       14 UNK        -0.5000 
     84 N          -2.8611  -27.2336  -48.6698 N.am      15 UNK        -0.5000 
     85 CA         -3.4698  -27.2553  -50.0060 C.3       15 UNK         0.1400 
     86 CB         -4.1846  -28.5952  -50.2740 C.3       15 UNK        -0.1800 
     87 C          -2.5117  -26.8627  -51.1495 C.2       15 UNK         0.5000 
     88 O          -2.8899  -26.9670  -52.3168 O.2       15 UNK        -0.5000 
     89 N          -1.3099  -26.3796  -50.8130 N.am      16 UNK        -0.5000 
     90 CA         -0.2835  -25.9485  -51.7601 C.3       16 UNK         0.1400 
     91 CB          1.0794  -25.9491  -51.0538 C.3       16 UNK        -0.1800 
     92 C          -0.6033  -24.5788  -52.3860 C.2       16 UNK         0.5000 
     93 O          -0.3012  -24.3664  -53.5605 O.2       16 UNK        -0.5000 
     94 N          -1.2559  -23.7003  -51.6127 N.am      17 UNK        -0.5000 
     95 CA         -1.7843  -22.4128  -52.0759 C.3       17 UNK         0.1400 
     96 CB         -1.5995  -21.3633  -50.9678 C.3       17 UNK        -0.1800 
     97 C          -3.2654  -22.5036  -52.4962 C.2       17 UNK         0.5000 
     98 O          -3.8843  -21.4663  -52.7373 O.2       17 UNK        -0.5000 
     99 N          -3.8290  -23.7216  -52.5380 N.am      18 UNK        -0.5000 
    100 CA        -5.2517  -24.0259  -52.7233 C.3       18 UNK         0.1400 
    101 CB        -5.7117  -23.6675  -54.1545 C.3       18 UNK        -0.1800 
    102 C         -6.0863  -23.3766  -51.5990 C.2       18 UNK         0.5000 
    103 O         -5.8023  -23.6321  -50.4306 O.2       18 UNK        -0.5000 
    104 N         -7.0514  -22.5173  -51.9453 N.am      19 UNK        -0.5000 
    105 CA        -7.8487  -21.7227  -51.0055 C.3       19 UNK         0.1400 
    106 CB        -9.2919  -21.6443  -51.5363 C.3       19 UNK        -0.1800 
    107 C         -7.2249  -20.3263  -50.7801 C.2       19 UNK         0.5000 
    108 O         -7.9513  -19.3325  -50.7295 O.2       19 UNK        -0.5000 
    109 N         -5.8855  -20.2739  -50.6961 N.am      20 UNK        -0.5000 
    110 CA        -5.0354  -19.0735  -50.6977 C.3       20 UNK         0.1400 
    111 CB        -5.2625  -18.2141  -49.4362 C.3       20 UNK        -0.1800 
    112 C         -5.1700  -18.2749  -52.0140 C.2       20 UNK         0.5000 
    113 O         -5.1397  -17.0426  -52.0108 O.2       20 UNK        -0.5000 
    114 N         -5.3264  -19.0087  -53.1245 N.am      21 UNK        -0.5000 
    115 CA        -5.6222  -18.4939  -54.4618 C.3       21 UNK         0.1400 
    116 CB        -5.9921  -19.6740  -55.3732 C.3       21 UNK        -0.1800 
    117 C         -4.4724  -17.6760  -55.0743 C.2       21 UNK         0.5000 
    118 O         -4.7253  -16.7907  -55.8923 O.2       21 UNK        -0.5000 
    119 N         -3.2384  -17.9769  -54.6558 N.am      22 UNK        -0.5000 
    120 CA        -2.0227  -17.2341  -55.0130 C.3       22 UNK         0.1400 
    121 C         -1.8176  -15.9046  -54.2239 C.2       22 UNK         0.5000 
    122 N         -2.6606  -15.5575  -53.2565 N.am      22 UNK        -0.7600 
    123 O         -0.8839  -15.1611  -54.5113 O.2       22 UNK        -0.5000 
    124 C124       -0.7759  -18.1536  -54.9791 C.3       23 UNK        -0.0398 
    125 S125       -0.4279  -18.8633  -53.3320 S.3       23 UNK        -0.2404 
    126 C126        1.2301  -18.1860  -53.0250 C.3       23 UNK        -0.0205 
    127 H127       -1.3871  -14.4399  -49.2380 H         1 UNK         0.0600 
    128 H128       -0.8179  -15.3246  -50.6600 H         1 UNK         0.0600 
    129 H129       -1.4489  -13.6805  -50.8324 H         1 UNK         0.0600 
    130 H130        0.3173  -13.7345  -47.9889 H         1 UNK         0.3000 
    131 H131        2.8457  -12.7758  -49.2534 H         1 UNK         0.0600 
    132 H132        4.0386  -13.6996  -47.2329 H         1 UNK         0.0800 
    133 H133        2.5697  -14.5078  -46.7419 H         1 UNK         0.0800 
    134 H134        1.3344  -16.2379  -48.2689 H         1 UNK         0.0800 
    135 H135        2.4832  -17.1513  -47.3198 H         1 UNK         0.0800 
    136 H136        1.4294  -16.5325  -50.8702 H         1 UNK         0.1150 
    137 H137        2.1315  -20.5828  -52.0833 H         1 UNK         0.1150 
    138 H138        3.0458  -19.3511  -48.0769 H         1 UNK         0.1150 
    139 H139        3.7064  -21.5447  -48.8155 H         1 UNK         0.0800 
    140 H140        3.7326  -21.9000  -50.5246 H         1 UNK         0.0800 
    141 H141        0.1494  -21.1354  -48.4271 H         1 UNK         0.0800 
    142 H142        1.5864  -21.4256  -47.4915 H         1 UNK         0.0800 
    143 H143        0.7336  -23.8574  -47.1588 H         1 UNK         0.0600 
    144 H144        0.1226  -21.5033  -45.6860 H         1 UNK         0.3000 
    145 H145       -1.2206  -23.1989  -42.8234 H         1 UNK         0.0600 
    146 H146        1.2767  -23.2196  -42.6501 H         1 UNK         0.0600 
    147 H147        0.5756  -21.8694  -41.7718 H         1 UNK         0.0600 
    148 H148        1.3431  -21.5999  -43.3352 H         1 UNK         0.0600 
    149 H149       -0.8622  -20.4328  -43.3284 H         1 UNK         0.3000 
    150 H150       -4.0796  -19.8573  -44.8668 H         1 UNK         0.0600 
    151 H151       -2.8304  -19.0509  -42.1885 H         1 UNK         0.0600 
    152 H152       -4.3901  -19.8380  -42.3929 H         1 UNK         0.0600 
    153 H153       -4.1426  -18.2129  -43.0140 H         1 UNK         0.0600 
    154 H154       -2.0100  -18.0236  -44.3368 H         1 UNK         0.3000 
    155 H155       -0.2154  -18.3716  -47.4326 H         1 UNK         0.0600 
    156 H156       -0.6652  -15.8832  -47.2122 H         1 UNK         0.0600 
    157 H157       -2.0209  -16.2444  -46.1556 H         1 UNK         0.0600 
    158 H158       -2.0422  -16.7860  -47.8261 H         1 UNK         0.0600 
    159 H159        0.2908  -16.8131  -45.0912 H         1 UNK         0.3000 
    160 H160        2.3315  -19.1842  -43.3714 H         1 UNK         0.0600 
    161 H161        3.0010  -16.5931  -44.8697 H         1 UNK         0.0600 
    162 H162        3.8508  -18.1230  -45.0035 H         1 UNK         0.0600 
    163 H163        3.8877  -17.2348  -43.4883 H         1 UNK         0.0600 
    164 H164        1.4305  -16.4709  -42.8949 H         1 UNK         0.3000 
    165 H165       -1.4434  -17.3857  -40.9835 H         1 UNK         0.0600 
    166 H166       -0.2811  -16.1263  -39.1927 H         1 UNK         0.0600 
    167 H167        0.4276  -17.7242  -39.3617 H         1 UNK         0.0600 
    168 H168        1.2663  -16.3229  -40.0168 H         1 UNK         0.0600 
    169 H169       -0.1706  -14.8761  -41.4312 H         1 UNK         0.3000 
    170 H170       -1.4717  -14.1313  -44.6186 H         1 UNK         0.0600 
    171 H171       -2.5482  -12.2076  -43.4829 H         1 UNK         0.0600 
    172 H172       -2.4498  -13.0329  -41.9269 H         1 UNK         0.0600 
    173 H173       -3.4809  -13.6702  -43.2034 H         1 UNK         0.0600 
    174 H174       -0.1426  -12.4957  -42.7121 H         1 UNK         0.3000 
    175 H175        2.3430  -12.9112  -42.1932 H         1 UNK         0.0600 
    176 H176        3.8198  -14.4111  -43.4976 H         1 UNK         0.0600 
    177 H177        3.6984  -13.3518  -44.8946 H         1 UNK         0.0600 
    178 H178        4.4765  -12.7842  -43.4230 H         1 UNK         0.0600 
    179 H179        2.4889  -11.2159  -44.6030 H         1 UNK         0.3000 
    180 H180        0.2822   -8.7688  -43.3471 H         1 UNK         0.0600 
    181 H181        3.3383   -8.5168  -43.3030 H         1 UNK         0.0600 
    182 H182        2.2659   -8.1639  -41.9533 H         1 UNK         0.0600 
    183 H183        2.1893   -7.1818  -43.4071 H         1 UNK         0.0600 
    184 H184        2.1963   -8.7169  -45.4752 H         1 UNK         0.3000 
    185 H185       -0.1317   -9.2994  -47.9177 H         1 UNK         0.0600 
    186 H186        1.6214   -7.5814  -47.4235 H         1 UNK         0.0600 
    187 H187        2.8594   -8.8368  -47.3919 H         1 UNK         0.0600 
    188 H188        1.9858   -8.4909  -48.8767 H         1 UNK         0.0600 
    189 H189        0.5577  -11.2403  -48.7407 H         1 UNK         0.3000 
    190 H190       -2.2335  -21.8848  -46.9423 H         1 UNK         0.3000 
    191 H191       -3.6926  -23.3235  -48.9479 H         1 UNK         0.0600 
    192 H192       -4.3011  -21.0315  -48.2373 H         1 UNK         0.0600 
    193 H193       -5.6522  -22.1286  -47.9954 H         1 UNK         0.0600 
    194 H194       -4.6907  -21.6044  -46.6173 H         1 UNK         0.0600 
    195 H195       -3.4358  -23.6875  -45.3717 H         1 UNK         0.3000 
    196 H196       -5.2460  -25.8516  -45.0989 H         1 UNK         0.0600 
    197 H197       -4.0836  -26.2178  -42.9244 H         1 UNK         0.0600 
    198 H198       -4.4191  -24.5126  -43.1822 H         1 UNK         0.0600 
    199 H199       -2.7874  -25.1357  -43.4153 H         1 UNK         0.0600 
    200 H200       -1.7980  -25.7963  -45.9596 H         1 UNK         0.3000 
    201 H201       -1.4733  -28.6664  -46.1604 H         1 UNK         0.0600 
    202 H202        0.6900  -28.0302  -47.2117 H         1 UNK         0.0600 
    203 H203        0.4241  -27.0939  -45.7496 H         1 UNK         0.0600 
    204 H204        0.1702  -26.3545  -47.3287 H         1 UNK         0.0600 
    205 H205       -3.2130  -26.4957  -48.0717 H         1 UNK         0.3000 
    206 H206       -4.2361  -26.4794  -49.9948 H         1 UNK         0.0600 
    207 H207       -4.8667  -28.8466  -49.4618 H         1 UNK         0.0600 
    208 H208       -4.7762  -28.5464  -51.1888 H         1 UNK         0.0600 
    209 H209       -3.4787  -29.4180  -50.3885 H         1 UNK         0.0600 
    210 H210       -1.1148  -26.2288  -49.8313 H         1 UNK         0.3000 
    211 H211       -0.2364  -26.6738  -52.5753 H         1 UNK         0.0600 
    212 H212        1.0471  -25.3868  -50.1215 H         1 UNK         0.0600 
    213 H213        1.8543  -25.5094  -51.6831 H         1 UNK         0.0600 
    214 H214        1.3919  -26.9651  -50.8125 H         1 UNK         0.0600 
    215 H215       -1.4322  -23.9508  -50.6459 H         1 UNK         0.3000 
    216 H216       -1.2258  -22.0716  -52.9498 H         1 UNK         0.0600 
    217 H217       -1.9559  -20.3849  -51.2874 H         1 UNK         0.0600 
    218 H218       -0.5473  -21.2405  -50.7191 H         1 UNK         0.0600 
    219 H219       -2.1419  -21.6254  -50.0611 H         1 UNK         0.0600 
    220 H220       -3.2393  -24.5151  -52.3322 H         1 UNK         0.3000 
    221 H221       -5.3575  -25.1048  -52.6001 H         1 UNK         0.0600 
    222 H222       -5.6487  -22.5988  -54.3584 H         1 UNK         0.0600 
    223 H223       -5.0970  -24.1777  -54.8961 H         1 UNK         0.0600 
    224 H224       -6.7423  -23.9803  -54.3265 H         1 UNK         0.0600 
    225 H225       -7.2020  -22.3325  -52.9264 H         1 UNK         0.3000 
    226 H226       -7.8816  -22.2171  -50.0324 H         1 UNK         0.0600 
    227 H227       -9.7129  -22.6397  -51.6796 H         1 UNK         0.0600 
    228 H228       -9.3417  -21.1184  -52.4906 H         1 UNK         0.0600 
    229 H229       -9.9414  -21.1188  -50.8351 H         1 UNK         0.0600 
    230 H230       -5.3889  -21.1500  -50.7836 H         1 UNK         0.3000 
    231 H231       -4.0064  -19.4303  -50.6636 H         1 UNK         0.0600 
    232 H232       -6.2484  -17.7489  -49.4323 H         1 UNK         0.0600 
    233 H233       -4.5250  -17.4130  -49.3749 H         1 UNK         0.0600 
    234 H234       -5.1686  -18.8080  -48.5276 H         1 UNK         0.0600 
    235 H235       -5.2000  -20.0123  -53.0413 H         1 UNK         0.3000 
    236 H236       -6.4891  -17.8349  -54.3821 H         1 UNK         0.0600 
    237 H237       -5.1646  -20.3780  -55.4719 H         1 UNK         0.0600 
    238 H238       -6.8528  -20.2184  -54.9845 H         1 UNK         0.0600 
    239 H239       -6.2515  -19.3287  -56.3747 H         1 UNK         0.0600 
    240 H240       -3.1246  -18.7144  -53.9752 H         1 UNK         0.3000 
    241 H241       -2.1352  -16.9208  -56.0527 H         1 UNK         0.0600 
    242 H242       -2.5185  -14.6855  -52.7747 H         1 UNK         0.3800 
    243 H243       -3.4474  -16.1432  -53.0070 H         1 UNK         0.3800 
    244 H244        0.0989  -17.6176  -55.3508 H         1 UNK         0.0800 
    245 H245       -0.9199  -18.9834  -55.6722 H         1 UNK         0.0800 
    246 H246        1.9275  -18.5851  -53.7630 H         1 UNK         0.0800 
    247 H247        1.2091  -17.1042  -53.1695 H         1 UNK         0.0800 
@<TRIPOS>BOND
     1    1    2 1    
     2    1  127 1    
     3    1  128 1    
     4    1  129 1    
     5    2    3 2    
     6    2    4 am   BACKBONE|DICT|INTERRES
     7    4    5 1    
     8    4  130 1    
     9    5    6 1    
    10    5   65 1    
    11    5  131 1    
    12    6    7 1    
    13    6  132 1    
    14    6  133 1    
    15    7    8 1    
    16    8    9 1    
    17    8  134 1    
    18    8  135 1    
    19    9   10 ar   
    20    9   14 ar   
    21   10   11 ar   
    22   10  136 1    
    23   11   12 ar   
    24   11  126 1    
    25   12   13 ar   
    26   12  137 1    
    27   13   14 ar   
    28   13   15 1    
    29   14  138 1    
    30   15   16 1    
    31   15  139 1    
    32   15  140 1    
    33   16   17 1    
    34   17   18 1    
    35   17  141 1    
    36   17  142 1    
    37   18   19 1    
    38   18   67 1    
    39   18  143 1    
    40   19   20 am   BACKBONE|DICT|INTERRES
    41   19  144 1    
    42   20   21 2    
    43   20   22 1    
    44   22   23 1    
    45   22   24 1    
    46   22  145 1    
    47   23  146 1    
    48   23  147 1    
    49   23  148 1    
    50   24   25 am   BACKBONE|DICT|INTERRES
    51   24  149 1    
    52   25   26 2    
    53   25   27 1    
    54   27   28 1    
    55   27   29 1    
    56   27  150 1    
    57   28  151 1    
    58   28  152 1    
    59   28  153 1    
    60   29   30 am   BACKBONE|DICT|INTERRES
    61   29  154 1    
    62   30   31 2    
    63   30   32 1    
    64   32   33 1    
    65   32   34 1    
    66   32  155 1    
    67   33  156 1    
    68   33  157 1    
    69   33  158 1    
    70   34   35 am   BACKBONE|DICT|INTERRES
    71   34  159 1    
    72   35   36 2    
    73   35   37 1    
    74   37   38 1    
    75   37   39 1    
    76   37  160 1    
    77   38  161 1    
    78   38  162 1    
    79   38  163 1    
    80   39   40 am   BACKBONE|DICT|INTERRES
    81   39  164 1    
    82   40   41 2    
    83   40   42 1    
    84   42   43 1    
    85   42   44 1    
    86   42  165 1    
    87   43  166 1    
    88   43  167 1    
    89   43  168 1    
    90   44   45 am   BACKBONE|DICT|INTERRES
    91   44  169 1    
    92   45   46 2    
    93   45   47 1    
    94   47   48 1    
    95   47   49 1    
    96   47  170 1    
    97   48  171 1    
    98   48  172 1    
    99   48  173 1    
   100   49   50 am   BACKBONE|DICT|INTERRES
   101   49  174 1    
   102   50   51 2    
   103   50   52 1    
   104   52   53 1    
   105   52   54 1    
   106   52  175 1    
   107   53  176 1    
   108   53  177 1    
   109   53  178 1    
   110   54   55 am   BACKBONE|DICT|INTERRES
   111   54  179 1    
   112   55   56 2    
   113   55   57 1    
   114   57   58 1    
   115   57   59 1    
   116   57  180 1    
   117   58  181 1    
   118   58  182 1    
   119   58  183 1    
   120   59   60 am   BACKBONE|DICT|INTERRES
   121   59  184 1    
   122   60   61 2    
   123   60   62 1    
   124   62   63 1    
   125   62   64 1    
   126   62  185 1    
   127   63  186 1    
   128   63  187 1    
   129   63  188 1    
   130   64   65 am   BACKBONE|DICT|INTERRES
   131   64  189 1    
   132   65   66 2    
   133   67   68 2    
   134   67   69 am   BACKBONE|DICT|INTERRES
   135   69   70 1    
   136   69  190 1    
   137   70   71 1    
   138   70   72 1    
   139   70  191 1    
   140   71  192 1    
   141   71  193 1    
   142   71  194 1    
   143   72   73 2    
   144   72   74 am   BACKBONE|DICT|INTERRES
   145   74   75 1    
   146   74  195 1    
   147   75   76 1    
   148   75   77 1    
   149   75  196 1    
   150   76  197 1    
   151   76  198 1    
   152   76  199 1    
   153   77   78 2    
   154   77   79 am   BACKBONE|DICT|INTERRES
   155   79   80 1    
   156   79  200 1    
   157   80   81 1    
   158   80   82 1    
   159   80  201 1    
   160   81  202 1    
   161   81  203 1    
   162   81  204 1    
   163   82   83 2    
   164   82   84 am   BACKBONE|DICT|INTERRES
   165   84   85 1    
   166   84  205 1    
   167   85   86 1    
   168   85   87 1    
   169   85  206 1    
   170   86  207 1    
   171   86  208 1    
   172   86  209 1    
   173   87   88 2    
   174   87   89 am   BACKBONE|DICT|INTERRES
   175   89   90 1    
   176   89  210 1    
   177   90   91 1    
   178   90   92 1    
   179   90  211 1    
   180   91  212 1    
   181   91  213 1    
   182   91  214 1    
   183   92   93 2    
   184   92   94 am   BACKBONE|DICT|INTERRES
   185   94   95 1    
   186   94  215 1    
   187   95   96 1    
   188   95   97 1    
   189   95  216 1    
   190   96  217 1    
   191   96  218 1    
   192   96  219 1    
   193   97   98 2    
   194   97   99 am   BACKBONE|DICT|INTERRES
   195   99  100 1    
   196   99  220 1    
   197  100  101 1    
   198  100  102 1    
   199  100  221 1    
   200  101  222 1    
   201  101  223 1    
   202  101  224 1    
   203  102  103 2    
   204  102  104 am   BACKBONE|DICT|INTERRES
   205  104  105 1    
   206  104  225 1    
   207  105  106 1    
   208  105  107 1    
   209  105  226 1    
   210  106  227 1    
   211  106  228 1    
   212  106  229 1    
   213  107  108 2    
   214  107  109 am   BACKBONE|DICT|INTERRES
   215  109  110 1    
   216  109  230 1    
   217  110  111 1    
   218  110  112 1    
   219  110  231 1    
   220  111  232 1    
   221  111  233 1    
   222  111  234 1    
   223  112  113 2    
   224  112  114 am   BACKBONE|DICT|INTERRES
   225  114  115 1    
   226  114  235 1    
   227  115  116 1    
   228  115  117 1    
   229  115  236 1    
   230  116  237 1    
   231  116  238 1    
   232  116  239 1    
   233  117  118 2    
   234  117  119 am   BACKBONE|DICT|INTERRES
   235  119  120 1    
   236  119  240 1    
   237  120  121 1    
   238  120  124 1    
   239  120  241 1    
   240  121  122 am   BACKBONE|DICT|INTERRES
   241  121  123 2    
   242  122  242 1    
   243  122  243 1    
   244  124  125 1    
   245  124  244 1    
   246  124  245 1    
   247  125  126 1    
   248  126  246 1    
   249  126  247 1    
@<TRIPOS>SUBSTRUCTURE
     1 UNK         1 GROUP             0       ****    0 ROOT    
