@<TRIPOS>MOLECULE
3R540
247   249    1
SMALL
USER_CHARGES


@<TRIPOS>ATOM
      1 CA          2.9458  -16.3733  -47.5195 C.3       0 UNK        -0.1800 
      2 C           2.5767  -14.9093  -47.6907 C.2       0 UNK         0.5000 
      3 O           2.9760  -14.2860  -48.6740 O.2       0 UNK        -0.5000 
      4 N           1.8312  -14.3557  -46.7253 N.am      1 UNK        -0.5000 
      5 CA          1.2951  -12.9843  -46.6682 C.3       1 UNK         0.1400 
      6 C6          0.4114  -12.5801  -47.8797 C.3       23 UNK        -0.0398 
      7 S7         -1.0015  -13.7139  -48.1350 S.3       23 UNK        -0.2404 
      8 C8         -0.8707  -14.1525  -49.8996 C.3       23 UNK        -0.0205 
      9 C9         -0.8810  -15.6599  -50.1047 C.ar      23 UNK        -0.0193 
     10 C10        -2.0890  -16.3537  -50.2217 C.ar      23 UNK        -0.1150 
     11 C11        -2.0964  -17.7351  -50.4393 C.ar      23 UNK        -0.0193 
     12 C12        -0.8832  -18.4227  -50.5277 C.ar      23 UNK        -0.1150 
     13 C13         0.3347  -17.7420  -50.4120 C.ar      23 UNK        -0.0193 
     14 C14         0.3231  -16.3600  -50.2061 C.ar      23 UNK        -0.1150 
     15 C15         1.6781  -18.4562  -50.5483 C.3       23 UNK        -0.0205 
     16 S16         1.7158  -20.1730  -49.9329 S.3       23 UNK        -0.2404 
     17 C17         1.2461  -19.9699  -48.1807 C.3       23 UNK        -0.0398 
     18 CA          0.7307  -21.2925  -47.5674 C.3       11 UNK         0.1400 
     19 N           0.7580  -21.2668  -46.1052 N.am      11 UNK        -0.5000 
     20 C           0.6054  -22.3456  -45.3250 C.2       10 UNK         0.5000 
     21 O           0.4567  -23.4886  -45.7592 O.2       10 UNK        -0.5000 
     22 CA          0.5677  -22.0977  -43.8057 C.3       10 UNK         0.1400 
     23 CB          1.9819  -21.8761  -43.2495 C.3       10 UNK        -0.1800 
     24 N          -0.2878  -20.9659  -43.4451 N.am      10 UNK        -0.5000 
     25 C          -1.6114  -20.9268  -43.6562 C.2       9 UNK         0.5000 
     26 O          -2.2552  -21.8598  -44.1359 O.2       9 UNK        -0.5000 
     27 CA         -2.3324  -19.6112  -43.3159 C.3       9 UNK         0.1400 
     28 CB         -2.6094  -19.5151  -41.8083 C.3       9 UNK        -0.1800 
     29 N          -1.5931  -18.4286  -43.7559 N.am      9 UNK        -0.5000 
     30 C          -1.3002  -18.1368  -45.0315 C.2       8 UNK         0.5000 
     31 O          -1.6367  -18.8279  -45.9895 O.2       8 UNK        -0.5000 
     32 CA         -0.4359  -16.8887  -45.2732 C.3       8 UNK         0.1400 
     33 CB         -1.2803  -15.6186  -45.0995 C.3       8 UNK        -0.1800 
     34 N           0.7336  -16.8507  -44.3902 N.am      8 UNK        -0.5000 
     35 C           1.6882  -17.7952  -44.3638 C.2       7 UNK         0.5000 
     36 O           1.7304  -18.7453  -45.1438 O.2       7 UNK        -0.5000 
     37 CA          2.7528  -17.6872  -43.2614 C.3       7 UNK         0.1400 
     38 CB          3.9151  -16.7970  -43.7088 C.3       7 UNK        -0.1800 
     39 N           2.1948  -17.1717  -42.0150 N.am      7 UNK        -0.5000 
     40 C           1.3960  -17.8816  -41.2068 C.2       6 UNK         0.5000 
     41 O           1.0759  -19.0528  -41.4150 O.2       6 UNK        -0.5000 
     42 CA          0.8180  -17.1316  -39.9936 C.3       6 UNK         0.1400 
     43 CB          1.8573  -17.0295  -38.8672 C.3       6 UNK        -0.1800 
     44 N           0.3481  -15.7906  -40.3474 N.am      6 UNK        -0.5000 
     45 C          -0.6702  -15.5485  -41.1841 C.2       5 UNK         0.5000 
     46 O          -1.3444  -16.4340  -41.7074 O.2       5 UNK        -0.5000 
     47 CA         -0.9736  -14.0785  -41.5207 C.3       5 UNK         0.1400 
     48 CB         -2.0468  -13.5250  -40.5719 C.3       5 UNK        -0.1800 
     49 N           0.1956  -13.1989  -41.4866 N.am      5 UNK        -0.5000 
     50 C           1.2733  -13.2857  -42.2788 C.2       4 UNK         0.5000 
     51 O           1.4407  -14.1806  -43.1140 O.2       4 UNK        -0.5000 
     52 CA          2.2940  -12.1401  -42.1170 C.3       4 UNK         0.1400 
     53 CB          2.6359  -11.8488  -40.6379 C.3       4 UNK        -0.1800 
     54 N           3.5114  -12.3065  -42.9143 N.am      4 UNK        -0.5000 
     55 C           4.5153  -13.1773  -42.7333 C.2       3 UNK         0.5000 
     56 O           4.5336  -14.0298  -41.8442 O.2       3 UNK        -0.5000 
     57 CA          5.7051  -13.0473  -43.7104 C.3       3 UNK         0.1400 
     58 CB          6.5272  -14.3403  -43.8569 C.3       3 UNK        -0.1800 
     59 N           5.2500  -12.6225  -45.0345 N.am      3 UNK        -0.5000 
     60 C           5.4023  -11.4029  -45.5663 C.2       2 UNK         0.5000 
     61 O           6.0305  -10.4906  -45.0291 O.2       2 UNK        -0.5000 
     62 CA          4.6941  -11.1513  -46.9128 C.3       2 UNK         0.1400 
     63 CB          5.6622  -11.3823  -48.0826 C.3       2 UNK        -0.1800 
     64 N           3.5094  -11.9937  -47.1019 N.am      2 UNK        -0.5000 
     65 C           2.3800  -11.9238  -46.3852 C.2       1 UNK         0.5000 
     66 O           2.1964  -11.0927  -45.4950 O.2       1 UNK        -0.5000 
     67 C          -0.6577  -21.6971  -48.1077 C.2       11 UNK         0.5000 
     68 O          -0.7296  -22.5206  -49.0174 O.2       11 UNK        -0.5000 
     69 N          -1.7361  -21.1706  -47.5096 N.am      12 UNK        -0.5000 
     70 CA         -3.1168  -21.5423  -47.8167 C.3       12 UNK         0.1400 
     71 CB         -4.0943  -20.6459  -47.0444 C.3       12 UNK        -0.1800 
     72 C          -3.4093  -23.0260  -47.5502 C.2       12 UNK         0.5000 
     73 O          -4.0219  -23.6715  -48.3994 O.2       12 UNK        -0.5000 
     74 N          -2.9388  -23.5508  -46.4104 N.am      13 UNK        -0.5000 
     75 CA         -3.0392  -24.9660  -46.0506 C.3       13 UNK         0.1400 
     76 CB         -2.5426  -25.1746  -44.6123 C.3       13 UNK        -0.1800 
     77 C          -2.2878  -25.8816  -47.0346 C.2       13 UNK         0.5000 
     78 O          -2.8413  -26.8982  -47.4566 O.2       13 UNK        -0.5000 
     79 N          -1.0684  -25.4792  -47.4232 N.am      14 UNK        -0.5000 
     80 CA         -0.2579  -26.1498  -48.4439 C.3       14 UNK         0.1400 
     81 CB          1.1459  -25.5271  -48.4754 C.3       14 UNK        -0.1800 
     82 C          -0.9071  -26.1150  -49.8424 C.2       14 UNK         0.5000 
     83 O          -0.8316  -27.1018  -50.5743 O.2       14 UNK        -0.5000 
     84 N          -1.5793  -25.0027  -50.1634 N.am      15 UNK        -0.5000 
     85 CA         -2.3522  -24.7771  -51.3851 C.3       15 UNK         0.1400 
     86 CB         -2.3458  -23.2715  -51.7068 C.3       15 UNK        -0.1800 
     87 C          -3.7899  -25.3395  -51.3168 C.2       15 UNK         0.5000 
     88 O          -4.6614  -24.8358  -52.0245 O.2       15 UNK        -0.5000 
     89 N          -4.0240  -26.3624  -50.4805 N.am      16 UNK        -0.5000 
     90 CA         -5.2709  -27.1236  -50.3381 C.3       16 UNK         0.1400 
     91 CB         -5.5330  -27.9620  -51.6072 C.3       16 UNK        -0.1800 
     92 C          -6.4775  -26.2504  -49.9338 C.2       16 UNK         0.5000 
     93 O          -7.5419  -26.3368  -50.5487 O.2       16 UNK        -0.5000 
     94 N          -6.2688  -25.4209  -48.9026 N.am      17 UNK        -0.5000 
     95 CA         -7.1915  -24.4161  -48.3650 C.3       17 UNK         0.1400 
     96 CB         -8.4967  -25.0543  -47.8429 C.3       17 UNK        -0.1800 
     97 C          -7.4164  -23.2597  -49.3597 C.2       17 UNK         0.5000 
     98 O          -8.5565  -22.8649  -49.6106 O.2       17 UNK        -0.5000 
     99 N          -6.2992  -22.7397  -49.8901 N.am      18 UNK        -0.5000 
    100 CA        -6.1897  -21.6181  -50.8280 C.3       18 UNK         0.1400 
    101 CB        -6.5868  -20.2964  -50.1363 C.3       18 UNK        -0.1800 
    102 C         -6.9496  -21.8583  -52.1491 C.2       18 UNK         0.5000 
    103 O         -7.7241  -21.0043  -52.5861 O.2       18 UNK        -0.5000 
    104 N         -6.7266  -23.0289  -52.7587 N.am      19 UNK        -0.5000 
    105 CA        -7.2809  -23.3922  -54.0593 C.3       19 UNK         0.1400 
    106 CB        -7.1645  -24.9121  -54.2535 C.3       19 UNK        -0.1800 
    107 C         -6.5569  -22.6390  -55.1900 C.2       19 UNK         0.5000 
    108 O         -5.3253  -22.5597  -55.1788 O.2       19 UNK        -0.5000 
    109 N         -7.3404  -22.1292  -56.1512 N.am      20 UNK        -0.5000 
    110 CA        -6.9110  -21.3669  -57.3297 C.3       20 UNK         0.1400 
    111 CB        -6.1750  -22.2943  -58.3239 C.3       20 UNK        -0.1800 
    112 C         -6.1191  -20.0900  -56.9603 C.2       20 UNK         0.5000 
    113 O         -6.4110  -19.4617  -55.9398 O.2       20 UNK        -0.5000 
    114 N         -5.1458  -19.7125  -57.7978 N.am      21 UNK        -0.5000 
    115 CA        -4.2121  -18.6150  -57.5596 C.3       21 UNK         0.1400 
    116 CB        -3.7159  -18.0817  -58.9156 C.3       21 UNK        -0.1800 
    117 C         -3.0617  -19.1099  -56.6638 C.2       21 UNK         0.5000 
    118 O         -2.0022  -19.4848  -57.1703 O.2       21 UNK        -0.5000 
    119 N         -3.3166  -19.1551  -55.3516 N.am      22 UNK        -0.5000 
    120 CA        -2.3775  -19.6389  -54.3266 C.3       22 UNK         0.1400 
    121 C         -1.1055  -18.7657  -54.1175 C.2       22 UNK         0.5000 
    122 N         -1.1155  -17.4860  -54.4714 N.am      22 UNK        -0.7600 
    123 O         -0.0855  -19.2698  -53.6579 O.2       22 UNK        -0.5000 
    124 C124       -3.1010  -19.9507  -52.9913 C.3       23 UNK        -0.0398 
    125 S125       -4.0206  -18.5348  -52.2844 S.3       23 UNK        -0.2404 
    126 C126       -3.4148  -18.4828  -50.5666 C.3       23 UNK        -0.0205 
    127 H127        3.3986  -16.5430  -46.5455 H         1 UNK         0.0600 
    128 H128        3.6631  -16.6823  -48.2797 H         1 UNK         0.0600 
    129 H129        2.0602  -17.0020  -47.6079 H         1 UNK         0.0600 
    130 H130        1.5779  -14.9258  -45.9309 H         1 UNK         0.3000 
    131 H131        0.6499  -12.9712  -45.7891 H         1 UNK         0.0600 
    132 H132       -0.0025  -11.5824  -47.7235 H         1 UNK         0.0800 
    133 H133        1.0141  -12.5103  -48.7853 H         1 UNK         0.0800 
    134 H134        0.0308  -13.7308  -50.3447 H         1 UNK         0.0800 
    135 H135       -1.7066  -13.7013  -50.4360 H         1 UNK         0.0800 
    136 H136       -3.0242  -15.8162  -50.1509 H         1 UNK         0.1150 
    137 H137       -0.8877  -19.4886  -50.7020 H         1 UNK         0.1150 
    138 H138        1.2572  -15.8215  -50.1372 H         1 UNK         0.1150 
    139 H139        1.9483  -18.4665  -51.6049 H         1 UNK         0.0800 
    140 H140        2.4599  -17.8941  -50.0372 H         1 UNK         0.0800 
    141 H141        0.5080  -19.1750  -48.0624 H         1 UNK         0.0800 
    142 H142        2.1386  -19.6360  -47.6502 H         1 UNK         0.0800 
    143 H143        1.4260  -22.0807  -47.8653 H         1 UNK         0.0600 
    144 H144        0.9110  -20.3598  -45.6713 H         1 UNK         0.3000 
    145 H145        0.1542  -22.9914  -43.3338 H         1 UNK         0.0600 
    146 H146        1.9649  -21.7537  -42.1663 H         1 UNK         0.0600 
    147 H147        2.6257  -22.7280  -43.4715 H         1 UNK         0.0600 
    148 H148        2.4506  -20.9904  -43.6784 H         1 UNK         0.0600 
    149 H149        0.1627  -20.1694  -43.0092 H         1 UNK         0.3000 
    150 H150       -3.2918  -19.6140  -43.8365 H         1 UNK         0.0600 
    151 H151       -3.1674  -20.3838  -41.4565 H         1 UNK         0.0600 
    152 H152       -3.2019  -18.6307  -41.5733 H         1 UNK         0.0600 
    153 H153       -1.6858  -19.4601  -41.2311 H         1 UNK         0.0600 
    154 H154       -1.3143  -17.7754  -43.0279 H         1 UNK         0.3000 
    155 H155       -0.0737  -16.9191  -46.3030 H         1 UNK         0.0600 
    156 H156       -1.8324  -15.6194  -44.1614 H         1 UNK         0.0600 
    157 H157       -0.6698  -14.7188  -45.1263 H         1 UNK         0.0600 
    158 H158       -2.0171  -15.5396  -45.8994 H         1 UNK         0.0600 
    159 H159        0.7895  -16.0878  -43.7249 H         1 UNK         0.3000 
    160 H160        3.1483  -18.6874  -43.0731 H         1 UNK         0.0600 
    161 H161        3.5728  -15.8026  -43.9968 H         1 UNK         0.0600 
    162 H162        4.4327  -17.2343  -44.5628 H         1 UNK         0.0600 
    163 H163        4.6502  -16.6829  -42.9119 H         1 UNK         0.0600 
    164 H164        2.3801  -16.2015  -41.8002 H         1 UNK         0.3000 
    165 H165       -0.0349  -17.7042  -39.6227 H         1 UNK         0.0600 
    166 H166        1.4293  -16.5681  -37.9771 H         1 UNK         0.0600 
    167 H167        2.2174  -18.0179  -38.5786 H         1 UNK         0.0600 
    168 H168        2.7237  -16.4388  -39.1680 H         1 UNK         0.0600 
    169 H169        0.8531  -15.0070  -39.9609 H         1 UNK         0.3000 
    170 H170       -1.3732  -14.0468  -42.5349 H         1 UNK         0.0600 
    171 H171       -1.6953  -13.4942  -39.5399 H         1 UNK         0.0600 
    172 H172       -2.3440  -12.5156  -40.8569 H         1 UNK         0.0600 
    173 H173       -2.9449  -14.1440  -40.5944 H         1 UNK         0.0600 
    174 H174        0.1445  -12.4286  -40.8359 H         1 UNK         0.3000 
    175 H175        1.8090  -11.2509  -42.5224 H         1 UNK         0.0600 
    176 H176        3.4132  -11.0889  -40.5563 H         1 UNK         0.0600 
    177 H177        2.9862  -12.7406  -40.1172 H         1 UNK         0.0600 
    178 H178        1.7700  -11.4722  -40.0929 H         1 UNK         0.0600 
    179 H179        3.5695  -11.6937  -43.7168 H         1 UNK         0.3000 
    180 H180        6.3640  -12.2921  -43.2775 H         1 UNK         0.0600 
    181 H181        5.9687  -15.1185  -44.3739 H         1 UNK         0.0600 
    182 H182        6.8345  -14.7342  -42.8873 H         1 UNK         0.0600 
    183 H183        7.4360  -14.1562  -44.4298 H         1 UNK         0.0600 
    184 H184        4.6954  -13.2912  -45.5487 H         1 UNK         0.3000 
    185 H185        4.3745  -10.1073  -46.9295 H         1 UNK         0.0600 
    186 H186        6.5489  -10.7542  -47.9868 H         1 UNK         0.0600 
    187 H187        5.9966  -12.4196  -48.1289 H         1 UNK         0.0600 
    188 H188        5.1933  -11.1384  -49.0361 H         1 UNK         0.0600 
    189 H189        3.5631  -12.7186  -47.8137 H         1 UNK         0.3000 
    190 H190       -1.6099  -20.4484  -46.8027 H         1 UNK         0.3000 
    191 H191       -3.2747  -21.3744  -48.8823 H         1 UNK         0.0600 
    192 H192       -3.9956  -19.6037  -47.3485 H         1 UNK         0.0600 
    193 H193       -5.1278  -20.9441  -47.2236 H         1 UNK         0.0600 
    194 H194       -3.9241  -20.6983  -45.9696 H         1 UNK         0.0600 
    195 H195       -2.4871  -22.9392  -45.7358 H         1 UNK         0.3000 
    196 H196       -4.0955  -25.2409  -46.0851 H         1 UNK         0.0600 
    197 H197       -2.6242  -26.2217  -44.3185 H         1 UNK         0.0600 
    198 H198       -3.1320  -24.5911  -43.9048 H         1 UNK         0.0600 
    199 H199       -1.4991  -24.8809  -44.4978 H         1 UNK         0.0600 
    200 H200       -0.6715  -24.6460  -46.9999 H         1 UNK         0.3000 
    201 H201       -0.1573  -27.1971  -48.1522 H         1 UNK         0.0600 
    202 H202        1.6313  -25.5995  -47.5020 H         1 UNK         0.0600 
    203 H203        1.1146  -24.4741  -48.7550 H         1 UNK         0.0600 
    204 H204        1.7836  -26.0391  -49.1970 H         1 UNK         0.0600 
    205 H205       -1.5332  -24.2163  -49.5217 H         1 UNK         0.3000 
    206 H206       -1.8557  -25.2914  -52.2100 H         1 UNK         0.0600 
    207 H207       -1.3281  -22.8862  -51.7740 H         1 UNK         0.0600 
    208 H208       -2.8298  -23.0693  -52.6631 H         1 UNK         0.0600 
    209 H209       -2.8698  -22.6986  -50.9419 H         1 UNK         0.0600 
    210 H210       -3.2577  -26.6719  -49.8979 H         1 UNK         0.3000 
    211 H211       -5.1100  -27.8192  -49.5132 H         1 UNK         0.0600 
    212 H212       -5.7376  -27.3324  -52.4739 H         1 UNK         0.0600 
    213 H213       -6.3923  -28.6196  -51.4709 H         1 UNK         0.0600 
    214 H214       -4.6772  -28.5932  -51.8462 H         1 UNK         0.0600 
    215 H215       -5.3233  -25.3590  -48.5434 H         1 UNK         0.3000 
    216 H216       -6.6862  -23.9766  -47.5036 H         1 UNK         0.0600 
    217 H217       -9.1005  -24.3183  -47.3111 H         1 UNK         0.0600 
    218 H218       -8.2875  -25.8662  -47.1465 H         1 UNK         0.0600 
    219 H219       -9.1114  -25.4530  -48.6500 H         1 UNK         0.0600 
    220 H220       -5.4213  -23.1625  -49.6017 H         1 UNK         0.3000 
    221 H221       -5.1353  -21.5429  -51.0959 H         1 UNK         0.0600 
    222 H222       -7.6250  -20.3066  -49.8040 H         1 UNK         0.0600 
    223 H223       -5.9584  -20.0985  -49.2699 H         1 UNK         0.0600 
    224 H224       -6.4740  -19.4489  -50.8126 H         1 UNK         0.0600 
    225 H225       -6.0375  -23.6727  -52.3736 H         1 UNK         0.3000 
    226 H226       -8.3407  -23.1285  -54.0684 H         1 UNK         0.0600 
    227 H227       -7.6548  -25.4528  -53.4434 H         1 UNK         0.0600 
    228 H228       -7.6343  -25.2229  -55.1872 H         1 UNK         0.0600 
    229 H229       -6.1232  -25.2350  -54.2873 H         1 UNK         0.0600 
    230 H230       -8.3407  -22.2225  -56.0456 H         1 UNK         0.3000 
    231 H231       -7.8247  -21.0220  -57.8155 H         1 UNK         0.0600 
    232 H232       -5.1996  -22.6037  -57.9459 H         1 UNK         0.0600 
    233 H233       -6.0218  -21.8069  -59.2873 H         1 UNK         0.0600 
    234 H234       -6.7545  -23.1971  -58.5175 H         1 UNK         0.0600 
    235 H235       -4.9500  -20.2955  -58.5986 H         1 UNK         0.3000 
    236 H236       -4.7223  -17.7970  -57.0462 H         1 UNK         0.0600 
    237 H237       -4.5414  -17.6855  -59.5071 H         1 UNK         0.0600 
    238 H238       -2.9985  -17.2720  -58.7761 H         1 UNK         0.0600 
    239 H239       -3.2257  -18.8579  -59.5046 H         1 UNK         0.0600 
    240 H240       -4.2296  -18.8735  -55.0195 H         1 UNK         0.3000 
    241 H241       -2.0025  -20.5961  -54.6951 H         1 UNK         0.0600 
    242 H242       -1.9508  -17.0637  -54.8423 H         1 UNK         0.3800 
    243 H243       -0.2861  -16.9304  -54.3386 H         1 UNK         0.3800 
    244 H244       -3.8217  -20.7522  -53.1598 H         1 UNK         0.0800 
    245 H245       -2.3949  -20.3459  -52.2607 H         1 UNK         0.0800 
    246 H246       -4.1693  -17.9967  -49.9464 H         1 UNK         0.0800 
    247 H247       -3.3171  -19.4957  -50.1788 H         1 UNK         0.0800 
@<TRIPOS>BOND
     1    1    2 1    
     2    1  127 1    
     3    1  128 1    
     4    1  129 1    
     5    2    3 2    
     6    2    4 am   BACKBONE|DICT|INTERRES
     7    4    5 1    
     8    4  130 1    
     9    5    6 1    
    10    5   65 1    
    11    5  131 1    
    12    6    7 1    
    13    6  132 1    
    14    6  133 1    
    15    7    8 1    
    16    8    9 1    
    17    8  134 1    
    18    8  135 1    
    19    9   10 ar   
    20    9   14 ar   
    21   10   11 ar   
    22   10  136 1    
    23   11   12 ar   
    24   11  126 1    
    25   12   13 ar   
    26   12  137 1    
    27   13   14 ar   
    28   13   15 1    
    29   14  138 1    
    30   15   16 1    
    31   15  139 1    
    32   15  140 1    
    33   16   17 1    
    34   17   18 1    
    35   17  141 1    
    36   17  142 1    
    37   18   19 1    
    38   18   67 1    
    39   18  143 1    
    40   19   20 am   BACKBONE|DICT|INTERRES
    41   19  144 1    
    42   20   21 2    
    43   20   22 1    
    44   22   23 1    
    45   22   24 1    
    46   22  145 1    
    47   23  146 1    
    48   23  147 1    
    49   23  148 1    
    50   24   25 am   BACKBONE|DICT|INTERRES
    51   24  149 1    
    52   25   26 2    
    53   25   27 1    
    54   27   28 1    
    55   27   29 1    
    56   27  150 1    
    57   28  151 1    
    58   28  152 1    
    59   28  153 1    
    60   29   30 am   BACKBONE|DICT|INTERRES
    61   29  154 1    
    62   30   31 2    
    63   30   32 1    
    64   32   33 1    
    65   32   34 1    
    66   32  155 1    
    67   33  156 1    
    68   33  157 1    
    69   33  158 1    
    70   34   35 am   BACKBONE|DICT|INTERRES
    71   34  159 1    
    72   35   36 2    
    73   35   37 1    
    74   37   38 1    
    75   37   39 1    
    76   37  160 1    
    77   38  161 1    
    78   38  162 1    
    79   38  163 1    
    80   39   40 am   BACKBONE|DICT|INTERRES
    81   39  164 1    
    82   40   41 2    
    83   40   42 1    
    84   42   43 1    
    85   42   44 1    
    86   42  165 1    
    87   43  166 1    
    88   43  167 1    
    89   43  168 1    
    90   44   45 am   BACKBONE|DICT|INTERRES
    91   44  169 1    
    92   45   46 2    
    93   45   47 1    
    94   47   48 1    
    95   47   49 1    
    96   47  170 1    
    97   48  171 1    
    98   48  172 1    
    99   48  173 1    
   100   49   50 am   BACKBONE|DICT|INTERRES
   101   49  174 1    
   102   50   51 2    
   103   50   52 1    
   104   52   53 1    
   105   52   54 1    
   106   52  175 1    
   107   53  176 1    
   108   53  177 1    
   109   53  178 1    
   110   54   55 am   BACKBONE|DICT|INTERRES
   111   54  179 1    
   112   55   56 2    
   113   55   57 1    
   114   57   58 1    
   115   57   59 1    
   116   57  180 1    
   117   58  181 1    
   118   58  182 1    
   119   58  183 1    
   120   59   60 am   BACKBONE|DICT|INTERRES
   121   59  184 1    
   122   60   61 2    
   123   60   62 1    
   124   62   63 1    
   125   62   64 1    
   126   62  185 1    
   127   63  186 1    
   128   63  187 1    
   129   63  188 1    
   130   64   65 am   BACKBONE|DICT|INTERRES
   131   64  189 1    
   132   65   66 2    
   133   67   68 2    
   134   67   69 am   BACKBONE|DICT|INTERRES
   135   69   70 1    
   136   69  190 1    
   137   70   71 1    
   138   70   72 1    
   139   70  191 1    
   140   71  192 1    
   141   71  193 1    
   142   71  194 1    
   143   72   73 2    
   144   72   74 am   BACKBONE|DICT|INTERRES
   145   74   75 1    
   146   74  195 1    
   147   75   76 1    
   148   75   77 1    
   149   75  196 1    
   150   76  197 1    
   151   76  198 1    
   152   76  199 1    
   153   77   78 2    
   154   77   79 am   BACKBONE|DICT|INTERRES
   155   79   80 1    
   156   79  200 1    
   157   80   81 1    
   158   80   82 1    
   159   80  201 1    
   160   81  202 1    
   161   81  203 1    
   162   81  204 1    
   163   82   83 2    
   164   82   84 am   BACKBONE|DICT|INTERRES
   165   84   85 1    
   166   84  205 1    
   167   85   86 1    
   168   85   87 1    
   169   85  206 1    
   170   86  207 1    
   171   86  208 1    
   172   86  209 1    
   173   87   88 2    
   174   87   89 am   BACKBONE|DICT|INTERRES
   175   89   90 1    
   176   89  210 1    
   177   90   91 1    
   178   90   92 1    
   179   90  211 1    
   180   91  212 1    
   181   91  213 1    
   182   91  214 1    
   183   92   93 2    
   184   92   94 am   BACKBONE|DICT|INTERRES
   185   94   95 1    
   186   94  215 1    
   187   95   96 1    
   188   95   97 1    
   189   95  216 1    
   190   96  217 1    
   191   96  218 1    
   192   96  219 1    
   193   97   98 2    
   194   97   99 am   BACKBONE|DICT|INTERRES
   195   99  100 1    
   196   99  220 1    
   197  100  101 1    
   198  100  102 1    
   199  100  221 1    
   200  101  222 1    
   201  101  223 1    
   202  101  224 1    
   203  102  103 2    
   204  102  104 am   BACKBONE|DICT|INTERRES
   205  104  105 1    
   206  104  225 1    
   207  105  106 1    
   208  105  107 1    
   209  105  226 1    
   210  106  227 1    
   211  106  228 1    
   212  106  229 1    
   213  107  108 2    
   214  107  109 am   BACKBONE|DICT|INTERRES
   215  109  110 1    
   216  109  230 1    
   217  110  111 1    
   218  110  112 1    
   219  110  231 1    
   220  111  232 1    
   221  111  233 1    
   222  111  234 1    
   223  112  113 2    
   224  112  114 am   BACKBONE|DICT|INTERRES
   225  114  115 1    
   226  114  235 1    
   227  115  116 1    
   228  115  117 1    
   229  115  236 1    
   230  116  237 1    
   231  116  238 1    
   232  116  239 1    
   233  117  118 2    
   234  117  119 am   BACKBONE|DICT|INTERRES
   235  119  120 1    
   236  119  240 1    
   237  120  121 1    
   238  120  124 1    
   239  120  241 1    
   240  121  122 am   BACKBONE|DICT|INTERRES
   241  121  123 2    
   242  122  242 1    
   243  122  243 1    
   244  124  125 1    
   245  124  244 1    
   246  124  245 1    
   247  125  126 1    
   248  126  246 1    
   249  126  247 1    
@<TRIPOS>SUBSTRUCTURE
     1 UNK         1 GROUP             0       ****    0 ROOT    
