@<TRIPOS>MOLECULE
3R540
247   249    1
SMALL
USER_CHARGES


@<TRIPOS>ATOM
      1 CA          0.0280  -14.4294  -51.1120 C.3       0 UNK        -0.1800 
      2 C          -0.9080  -15.1040  -50.1199 C.2       0 UNK         0.5000 
      3 O          -0.7488  -16.2889  -49.8407 O.2       0 UNK        -0.5000 
      4 N          -1.8816  -14.3561  -49.5866 N.am      1 UNK        -0.5000 
      5 CA         -2.8806  -14.8435  -48.6250 C.3       1 UNK         0.1400 
      6 C6         -4.0518  -13.8417  -48.4613 C.3       23 UNK        -0.0398 
      7 S7         -4.9948  -13.5837  -50.0019 S.3       23 UNK        -0.2404 
      8 C8         -6.4995  -14.5562  -49.6705 C.3       23 UNK        -0.0205 
      9 C9         -6.2136  -16.0496  -49.6828 C.ar      23 UNK        -0.0193 
     10 C10        -6.1319  -16.7299  -50.8987 C.ar      23 UNK        -0.1150 
     11 C11        -5.8458  -18.0954  -50.9254 C.ar      23 UNK        -0.0193 
     12 C12        -5.6414  -18.7815  -49.7265 C.ar      23 UNK        -0.1150 
     13 C13        -5.7189  -18.1164  -48.4955 C.ar      23 UNK        -0.0193 
     14 C14        -6.0170  -16.7494  -48.4879 C.ar      23 UNK        -0.1150 
     15 C15        -5.4829  -18.8149  -47.1537 C.3       23 UNK        -0.0205 
     16 S16        -4.7392  -20.4830  -47.2492 S.3       23 UNK        -0.2404 
     17 C17        -3.9597  -20.6067  -45.6043 C.3       23 UNK        -0.0398 
     18 CA         -2.5555  -19.9535  -45.5736 C.3       11 UNK         0.1400 
     19 N          -2.2092  -19.4456  -44.2426 N.am      11 UNK        -0.5000 
     20 C          -1.2459  -18.5445  -43.9965 C.2       10 UNK         0.5000 
     21 O          -0.5043  -18.1123  -44.8784 O.2       10 UNK        -0.5000 
     22 CA         -1.0049  -18.0976  -42.5399 C.3       10 UNK         0.1400 
     23 CB         -1.0954  -16.5701  -42.3714 C.3       10 UNK        -0.1800 
     24 N          -1.8115  -18.7982  -41.5371 N.am      10 UNK        -0.5000 
     25 C          -3.1255  -18.7080  -41.2914 C.2       9 UNK         0.5000 
     26 O          -3.8854  -17.9229  -41.8590 O.2       9 UNK        -0.5000 
     27 CA         -3.6688  -19.7310  -40.2683 C.3       9 UNK         0.1400 
     28 CB         -5.2098  -19.8091  -40.2483 C.3       9 UNK        -0.1800 
     29 N          -3.0794  -21.0660  -40.4576 N.am      9 UNK        -0.5000 
     30 C          -3.1296  -21.8116  -41.5739 C.2       8 UNK         0.5000 
     31 O          -3.7550  -21.4865  -42.5832 O.2       8 UNK        -0.5000 
     32 CA         -2.2810  -23.1014  -41.5708 C.3       8 UNK         0.1400 
     33 CB         -2.1819  -23.7581  -42.9653 C.3       8 UNK        -0.1800 
     34 N          -0.9411  -22.8923  -41.0040 N.am      8 UNK        -0.5000 
     35 C          -0.0139  -22.0242  -41.4347 C.2       7 UNK         0.5000 
     36 O          -0.1640  -21.2771  -42.4048 O.2       7 UNK        -0.5000 
     37 CA          1.3057  -21.9971  -40.6404 C.3       7 UNK         0.1400 
     38 CB          2.2677  -23.0889  -41.1329 C.3       7 UNK        -0.1800 
     39 N           1.9825  -20.7013  -40.7142 N.am      7 UNK        -0.5000 
     40 C           1.5263  -19.5673  -40.1643 C.2       6 UNK         0.5000 
     41 O           0.4668  -19.4978  -39.5392 O.2       6 UNK        -0.5000 
     42 CA          2.3844  -18.2983  -40.3340 C.3       6 UNK         0.1400 
     43 CB          3.1388  -17.9937  -39.0302 C.3       6 UNK        -0.1800 
     44 N           3.3591  -18.4168  -41.4243 N.am      6 UNK        -0.5000 
     45 C           3.2246  -17.8466  -42.6274 C.2       5 UNK         0.5000 
     46 O           2.2732  -17.1315  -42.9529 O.2       5 UNK        -0.5000 
     47 CA          4.3409  -18.1257  -43.6439 C.3       5 UNK         0.1400 
     48 CB          4.1496  -19.4966  -44.3128 C.3       5 UNK        -0.1800 
     49 N           4.3087  -17.0712  -44.6485 N.am      5 UNK        -0.5000 
     50 C           5.3253  -16.6823  -45.4255 C.2       4 UNK         0.5000 
     51 O           6.4175  -17.2505  -45.4559 O.2       4 UNK        -0.5000 
     52 CA          5.0966  -15.4324  -46.3019 C.3       4 UNK         0.1400 
     53 CB          4.8403  -15.8250  -47.7642 C.3       4 UNK        -0.1800 
     54 N           4.0019  -14.5805  -45.8227 N.am      4 UNK        -0.5000 
     55 C           4.0669  -13.8219  -44.7210 C.2       3 UNK         0.5000 
     56 O           5.0705  -13.7486  -44.0106 O.2       3 UNK        -0.5000 
     57 CA          2.8133  -13.0252  -44.3157 C.3       3 UNK         0.1400 
     58 CB          2.8275  -11.6140  -44.9346 C.3       3 UNK        -0.1800 
     59 N           1.5294  -13.7033  -44.5453 N.am      3 UNK        -0.5000 
     60 C           0.8980  -13.9565  -45.6997 C.2       2 UNK         0.5000 
     61 O           1.3913  -13.7552  -46.8125 O.2       2 UNK        -0.5000 
     62 CA         -0.5289  -14.5210  -45.5811 C.3       2 UNK         0.1400 
     63 CB         -1.3831  -13.7310  -44.5629 C.3       2 UNK        -0.1800 
     64 N          -1.1727  -14.4888  -46.8891 N.am      2 UNK        -0.5000 
     65 C          -2.2823  -15.1529  -47.2351 C.2       1 UNK         0.5000 
     66 O          -2.8622  -15.9489  -46.4958 O.2       1 UNK        -0.5000 
     67 C          -1.4652  -20.8567  -46.1924 C.2       11 UNK         0.5000 
     68 O          -1.5125  -21.1183  -47.3956 O.2       11 UNK        -0.5000 
     69 N          -0.4482  -21.2588  -45.4128 N.am      12 UNK        -0.5000 
     70 CA          0.7818  -21.8749  -45.9199 C.3       12 UNK         0.1400 
     71 CB          1.6670  -22.3140  -44.7488 C.3       12 UNK        -0.1800 
     72 C           1.5673  -20.9696  -46.8936 C.2       12 UNK         0.5000 
     73 O           2.3205  -21.4929  -47.7135 O.2       12 UNK        -0.5000 
     74 N           1.3213  -19.6494  -46.8546 N.am      13 UNK        -0.5000 
     75 CA          1.7780  -18.6755  -47.8502 C.3       13 UNK         0.1400 
     76 CB          1.3447  -17.2718  -47.4016 C.3       13 UNK        -0.1800 
     77 C           1.2581  -18.9681  -49.2756 C.2       13 UNK         0.5000 
     78 O           1.9637  -18.6903  -50.2455 O.2       13 UNK        -0.5000 
     79 N           0.0633  -19.5688  -49.3660 N.am      14 UNK        -0.5000 
     80 CA         -0.5665  -20.0446  -50.5960 C.3       14 UNK         0.1400 
     81 CB         -2.0272  -19.5572  -50.6251 C.3       14 UNK        -0.1800 
     82 C          -0.5027  -21.5810  -50.6998 C.2       14 UNK         0.5000 
     83 O          -1.2180  -22.1524  -51.5233 O.2       14 UNK        -0.5000 
     84 N           0.3166  -22.2326  -49.8593 N.am      15 UNK        -0.5000 
     85 CA          0.4704  -23.6850  -49.7058 C.3       15 UNK         0.1400 
     86 CB          1.1467  -24.2975  -50.9467 C.3       15 UNK        -0.1800 
     87 C          -0.8471  -24.3982  -49.3342 C.2       15 UNK         0.5000 
     88 O          -1.1233  -25.4851  -49.8436 O.2       15 UNK        -0.5000 
     89 N          -1.6382  -23.7560  -48.4614 N.am      16 UNK        -0.5000 
     90 CA         -2.9871  -24.1448  -48.0418 C.3       16 UNK         0.1400 
     91 CB         -2.9823  -25.4865  -47.2796 C.3       16 UNK        -0.1800 
     92 C          -3.9794  -24.0953  -49.2209 C.2       16 UNK         0.5000 
     93 O          -4.7200  -25.0511  -49.4577 O.2       16 UNK        -0.5000 
     94 N          -3.9588  -22.9543  -49.9250 N.am      17 UNK        -0.5000 
     95 CA         -4.8076  -22.5856  -51.0592 C.3       17 UNK         0.1400 
     96 CB         -6.2914  -22.5209  -50.6336 C.3       17 UNK        -0.1800 
     97 C          -4.5729  -23.4657  -52.3028 C.2       17 UNK         0.5000 
     98 O          -5.5231  -24.0399  -52.8388 O.2       17 UNK        -0.5000 
     99 N          -3.3113  -23.5523  -52.7438 N.am      18 UNK        -0.5000 
    100 CA        -2.8999  -24.3689  -53.8869 C.3       18 UNK         0.1400 
    101 CB        -2.3987  -25.7314  -53.3798 C.3       18 UNK        -0.1800 
    102 C         -1.8366  -23.7008  -54.7762 C.2       18 UNK         0.5000 
    103 O         -1.8768  -23.8956  -55.9919 O.2       18 UNK        -0.5000 
    104 N         -0.8907  -22.9599  -54.1828 N.am      19 UNK        -0.5000 
    105 CA         0.2957  -22.4503  -54.8802 C.3       19 UNK         0.1400 
    106 CB         1.5151  -22.5589  -53.9519 C.3       19 UNK        -0.1800 
    107 C          0.1561  -21.0072  -55.3907 C.2       19 UNK         0.5000 
    108 O          0.9394  -20.6101  -56.2552 O.2       19 UNK        -0.5000 
    109 N         -0.8001  -20.2381  -54.8581 N.am      20 UNK        -0.5000 
    110 CA        -1.0056  -18.8352  -55.2086 C.3       20 UNK         0.1400 
    111 CB        -0.1477  -17.9406  -54.2960 C.3       20 UNK        -0.1800 
    112 C         -2.4865  -18.4777  -55.0682 C.2       20 UNK         0.5000 
    113 O         -3.1514  -19.0114  -54.1781 O.2       20 UNK        -0.5000 
    114 N         -2.9510  -17.5676  -55.9373 N.am      21 UNK        -0.5000 
    115 CA        -4.2546  -16.8851  -55.9986 C.3       21 UNK         0.1400 
    116 CB        -4.4128  -15.9185  -54.8084 C.3       21 UNK        -0.1800 
    117 C         -5.5062  -17.7735  -56.1806 C.2       21 UNK         0.5000 
    118 O         -6.4152  -17.3868  -56.9162 O.2       21 UNK        -0.5000 
    119 N         -5.5354  -18.9347  -55.5253 N.am      22 UNK        -0.5000 
    120 CA        -6.6318  -19.9150  -55.5361 C.3       22 UNK         0.1400 
    121 C         -6.5301  -20.9549  -56.6912 C.2       22 UNK         0.5000 
    122 N         -5.4855  -20.9464  -57.5108 N.am      22 UNK        -0.7600 
    123 O         -7.4258  -21.7780  -56.8589 O.2       22 UNK        -0.5000 
    124 C124       -6.7591  -20.6165  -54.1581 C.3       23 UNK        -0.0398 
    125 S125       -7.3051  -19.4931  -52.8235 S.3       23 UNK        -0.2404 
    126 C126       -5.7173  -18.8205  -52.2512 C.3       23 UNK        -0.0205 
    127 H127       -0.0053  -14.9488  -52.0699 H         1 UNK         0.0600 
    128 H128       -0.2410  -13.3863  -51.2797 H         1 UNK         0.0600 
    129 H129        1.0522  -14.4627  -50.7403 H         1 UNK         0.0600 
    130 H130       -1.9809  -13.3919  -49.8701 H         1 UNK         0.3000 
    131 H131       -3.2827  -15.7827  -49.0113 H         1 UNK         0.0600 
    132 H132       -4.7394  -14.1703  -47.6802 H         1 UNK         0.0800 
    133 H133       -3.6763  -12.8715  -48.1310 H         1 UNK         0.0800 
    134 H134       -7.2436  -14.3232  -50.4337 H         1 UNK         0.0800 
    135 H135       -6.9376  -14.2520  -48.7187 H         1 UNK         0.0800 
    136 H136       -6.2774  -16.1927  -51.8256 H         1 UNK         0.1150 
    137 H137       -5.4106  -19.8335  -49.7683 H         1 UNK         0.1150 
    138 H138       -6.0780  -16.2242  -47.5450 H         1 UNK         0.1150 
    139 H139       -4.8347  -18.1773  -46.5500 H         1 UNK         0.0800 
    140 H140       -6.4316  -18.8862  -46.6204 H         1 UNK         0.0800 
    141 H141       -4.6224  -20.1230  -44.8849 H         1 UNK         0.0800 
    142 H142       -3.9149  -21.6554  -45.3053 H         1 UNK         0.0800 
    143 H143       -2.5929  -19.0704  -46.2158 H         1 UNK         0.0600 
    144 H144       -2.7405  -19.8239  -43.4675 H         1 UNK         0.3000 
    145 H145        0.0225  -18.3855  -42.3253 H         1 UNK         0.0600 
    146 H146       -0.9633  -16.2769  -41.3301 H         1 UNK         0.0600 
    147 H147       -0.3098  -16.0787  -42.9438 H         1 UNK         0.0600 
    148 H148       -2.0519  -16.1781  -42.7179 H         1 UNK         0.0600 
    149 H149       -1.2950  -19.4954  -41.0154 H         1 UNK         0.3000 
    150 H150       -3.3429  -19.3834  -39.2868 H         1 UNK         0.0600 
    151 H151       -5.6455  -18.8440  -39.9875 H         1 UNK         0.0600 
    152 H152       -5.5580  -20.5316  -39.5103 H         1 UNK         0.0600 
    153 H153       -5.6156  -20.0982  -41.2182 H         1 UNK         0.0600 
    154 H154       -2.5207  -21.4090  -39.6887 H         1 UNK         0.3000 
    155 H155       -2.7945  -23.8028  -40.9117 H         1 UNK         0.0600 
    156 H156       -1.5953  -24.6758  -42.9279 H         1 UNK         0.0600 
    157 H157       -1.7179  -23.0959  -43.6956 H         1 UNK         0.0600 
    158 H158       -3.1697  -24.0204  -43.3459 H         1 UNK         0.0600 
    159 H159       -0.7221  -23.4630  -40.1990 H         1 UNK         0.3000 
    160 H160        1.0724  -22.1933  -39.5917 H         1 UNK         0.0600 
    161 H161        2.6199  -22.8940  -42.1452 H         1 UNK         0.0600 
    162 H162        1.7884  -24.0688  -41.1342 H         1 UNK         0.0600 
    163 H163        3.1426  -23.1595  -40.4863 H         1 UNK         0.0600 
    164 H164        2.8324  -20.6695  -41.2538 H         1 UNK         0.3000 
    165 H165        1.6995  -17.4692  -40.5249 H         1 UNK         0.0600 
    166 H166        3.8345  -18.7923  -38.7696 H         1 UNK         0.0600 
    167 H167        3.7070  -17.0670  -39.1123 H         1 UNK         0.0600 
    168 H168        2.4464  -17.8756  -38.1955 H         1 UNK         0.0600 
    169 H169        4.1898  -18.9568  -41.2275 H         1 UNK         0.3000 
    170 H170        5.3006  -18.0974  -43.1236 H         1 UNK         0.0600 
    171 H171        4.1731  -20.3027  -43.5789 H         1 UNK         0.0600 
    172 H172        3.1933  -19.5468  -44.8302 H         1 UNK         0.0600 
    173 H173        4.9344  -19.6988  -45.0417 H         1 UNK         0.0600 
    174 H174        3.4533  -16.5299  -44.6415 H         1 UNK         0.3000 
    175 H175        6.0168  -14.8450  -46.2732 H         1 UNK         0.0600 
    176 H176        3.9681  -16.4671  -47.8628 H         1 UNK         0.0600 
    177 H177        4.6855  -14.9461  -48.3903 H         1 UNK         0.0600 
    178 H178        5.6914  -16.3701  -48.1740 H         1 UNK         0.0600 
    179 H179        3.1511  -14.5422  -46.3751 H         1 UNK         0.3000 
    180 H180        2.8750  -12.8982  -43.2336 H         1 UNK         0.0600 
    181 H181        3.7304  -11.0738  -44.6473 H         1 UNK         0.0600 
    182 H182        2.8027  -11.6444  -46.0241 H         1 UNK         0.0600 
    183 H183        1.9754  -11.0253  -44.5949 H         1 UNK         0.0600 
    184 H184        1.0485  -13.9626  -43.6956 H         1 UNK         0.3000 
    185 H185       -0.4420  -15.5591  -45.2622 H         1 UNK         0.0600 
    186 H186       -1.4778  -12.6835  -44.8517 H         1 UNK         0.0600 
    187 H187       -2.3885  -14.1435  -44.4796 H         1 UNK         0.0600 
    188 H188       -0.9548  -13.7574  -43.5611 H         1 UNK         0.0600 
    189 H189       -0.6996  -13.9154  -47.5758 H         1 UNK         0.3000 
    190 H190       -0.4672  -21.0381  -44.4214 H         1 UNK         0.3000 
    191 H191        0.4965  -22.7704  -46.4750 H         1 UNK         0.0600 
    192 H192        2.6038  -22.7480  -45.1008 H         1 UNK         0.0600 
    193 H193        1.1650  -23.0720  -44.1476 H         1 UNK         0.0600 
    194 H194        1.9149  -21.4757  -44.0983 H         1 UNK         0.0600 
    195 H195        0.6922  -19.2901  -46.1436 H         1 UNK         0.3000 
    196 H196        2.8687  -18.7125  -47.8779 H         1 UNK         0.0600 
    197 H197        1.6503  -16.5119  -48.1216 H         1 UNK         0.0600 
    198 H198        1.7807  -17.0104  -46.4374 H         1 UNK         0.0600 
    199 H199        0.2602  -17.2018  -47.3091 H         1 UNK         0.0600 
    200 H200       -0.4344  -19.7970  -48.5131 H         1 UNK         0.3000 
    201 H201       -0.0518  -19.6422  -51.4698 H         1 UNK         0.0600 
    202 H202       -2.0830  -18.4705  -50.5715 H         1 UNK         0.0600 
    203 H203       -2.6052  -19.9594  -49.7923 H         1 UNK         0.0600 
    204 H204       -2.5247  -19.8529  -51.5491 H         1 UNK         0.0600 
    205 H205        0.8911  -21.6764  -49.2374 H         1 UNK         0.3000 
    206 H206        1.1438  -23.8325  -48.8606 H         1 UNK         0.0600 
    207 H207        2.0634  -23.7653  -51.1999 H         1 UNK         0.0600 
    208 H208        1.4162  -25.3392  -50.7701 H         1 UNK         0.0600 
    209 H209        0.4860  -24.2767  -51.8128 H         1 UNK         0.0600 
    210 H210       -1.3485  -22.8367  -48.1381 H         1 UNK         0.3000 
    211 H211       -3.3170  -23.3797  -47.3377 H         1 UNK         0.0600 
    212 H212       -2.7197  -26.3249  -47.9249 H         1 UNK         0.0600 
    213 H213       -3.9670  -25.6963  -46.8607 H         1 UNK         0.0600 
    214 H214       -2.2750  -25.4650  -46.4504 H         1 UNK         0.0600 
    215 H215       -3.2790  -22.2599  -49.6516 H         1 UNK         0.3000 
    216 H216       -4.4979  -21.5813  -51.3391 H         1 UNK         0.0600 
    217 H217       -6.6898  -23.5071  -50.3951 H         1 UNK         0.0600 
    218 H218       -6.9089  -22.1108  -51.4322 H         1 UNK         0.0600 
    219 H219       -6.4303  -21.8894  -49.7569 H         1 UNK         0.0600 
    220 H220       -2.5782  -23.0498  -52.2469 H         1 UNK         0.3000 
    221 H221       -3.7593  -24.5480  -54.5366 H         1 UNK         0.0600 
    222 H222       -1.5502  -25.6190  -52.7038 H         1 UNK         0.0600 
    223 H223       -3.1833  -26.2641  -52.8422 H         1 UNK         0.0600 
    224 H224       -2.0807  -26.3673  -54.2070 H         1 UNK         0.0600 
    225 H225       -0.9348  -22.7939  -53.1808 H         1 UNK         0.3000 
    226 H226        0.5035  -23.0722  -55.7537 H         1 UNK         0.0600 
    227 H227        1.7303  -23.5997  -53.7130 H         1 UNK         0.0600 
    228 H228        2.4097  -22.1532  -54.4263 H         1 UNK         0.0600 
    229 H229        1.3657  -22.0143  -53.0197 H         1 UNK         0.0600 
    230 H230       -1.4577  -20.6258  -54.1947 H         1 UNK         0.3000 
    231 H231       -0.7144  -18.6698  -56.2483 H         1 UNK         0.0600 
    232 H232       -0.4314  -18.0456  -53.2482 H         1 UNK         0.0600 
    233 H233        0.9115  -18.1836  -54.3824 H         1 UNK         0.0600 
    234 H234       -0.2618  -16.8886  -54.5604 H         1 UNK         0.0600 
    235 H235       -2.3000  -17.2467  -56.6406 H         1 UNK         0.3000 
    236 H236       -4.2103  -16.2689  -56.8982 H         1 UNK         0.0600 
    237 H237       -3.6998  -15.0973  -54.8813 H         1 UNK         0.0600 
    238 H238       -5.4102  -15.4774  -54.7826 H         1 UNK         0.0600 
    239 H239       -4.2431  -16.4076  -53.8509 H         1 UNK         0.0600 
    240 H240       -4.7285  -19.1575  -54.9457 H         1 UNK         0.3000 
    241 H241       -7.5662  -19.3799  -55.7154 H         1 UNK         0.0600 
    242 H242       -4.7520  -20.2663  -57.3957 H         1 UNK         0.3800 
    243 H243       -5.4355  -21.6195  -58.2594 H         1 UNK         0.3800 
    244 H244       -5.8179  -21.0931  -53.8812 H         1 UNK         0.0800 
    245 H245       -7.4962  -21.4202  -54.2034 H         1 UNK         0.0800 
    246 H246       -5.3450  -18.1251  -52.9975 H         1 UNK         0.0800 
    247 H247       -4.9709  -19.6080  -52.1768 H         1 UNK         0.0800 
@<TRIPOS>BOND
     1    1    2 1    
     2    1  127 1    
     3    1  128 1    
     4    1  129 1    
     5    2    3 2    
     6    2    4 am   BACKBONE|DICT|INTERRES
     7    4    5 1    
     8    4  130 1    
     9    5    6 1    
    10    5   65 1    
    11    5  131 1    
    12    6    7 1    
    13    6  132 1    
    14    6  133 1    
    15    7    8 1    
    16    8    9 1    
    17    8  134 1    
    18    8  135 1    
    19    9   10 ar   
    20    9   14 ar   
    21   10   11 ar   
    22   10  136 1    
    23   11   12 ar   
    24   11  126 1    
    25   12   13 ar   
    26   12  137 1    
    27   13   14 ar   
    28   13   15 1    
    29   14  138 1    
    30   15   16 1    
    31   15  139 1    
    32   15  140 1    
    33   16   17 1    
    34   17   18 1    
    35   17  141 1    
    36   17  142 1    
    37   18   19 1    
    38   18   67 1    
    39   18  143 1    
    40   19   20 am   BACKBONE|DICT|INTERRES
    41   19  144 1    
    42   20   21 2    
    43   20   22 1    
    44   22   23 1    
    45   22   24 1    
    46   22  145 1    
    47   23  146 1    
    48   23  147 1    
    49   23  148 1    
    50   24   25 am   BACKBONE|DICT|INTERRES
    51   24  149 1    
    52   25   26 2    
    53   25   27 1    
    54   27   28 1    
    55   27   29 1    
    56   27  150 1    
    57   28  151 1    
    58   28  152 1    
    59   28  153 1    
    60   29   30 am   BACKBONE|DICT|INTERRES
    61   29  154 1    
    62   30   31 2    
    63   30   32 1    
    64   32   33 1    
    65   32   34 1    
    66   32  155 1    
    67   33  156 1    
    68   33  157 1    
    69   33  158 1    
    70   34   35 am   BACKBONE|DICT|INTERRES
    71   34  159 1    
    72   35   36 2    
    73   35   37 1    
    74   37   38 1    
    75   37   39 1    
    76   37  160 1    
    77   38  161 1    
    78   38  162 1    
    79   38  163 1    
    80   39   40 am   BACKBONE|DICT|INTERRES
    81   39  164 1    
    82   40   41 2    
    83   40   42 1    
    84   42   43 1    
    85   42   44 1    
    86   42  165 1    
    87   43  166 1    
    88   43  167 1    
    89   43  168 1    
    90   44   45 am   BACKBONE|DICT|INTERRES
    91   44  169 1    
    92   45   46 2    
    93   45   47 1    
    94   47   48 1    
    95   47   49 1    
    96   47  170 1    
    97   48  171 1    
    98   48  172 1    
    99   48  173 1    
   100   49   50 am   BACKBONE|DICT|INTERRES
   101   49  174 1    
   102   50   51 2    
   103   50   52 1    
   104   52   53 1    
   105   52   54 1    
   106   52  175 1    
   107   53  176 1    
   108   53  177 1    
   109   53  178 1    
   110   54   55 am   BACKBONE|DICT|INTERRES
   111   54  179 1    
   112   55   56 2    
   113   55   57 1    
   114   57   58 1    
   115   57   59 1    
   116   57  180 1    
   117   58  181 1    
   118   58  182 1    
   119   58  183 1    
   120   59   60 am   BACKBONE|DICT|INTERRES
   121   59  184 1    
   122   60   61 2    
   123   60   62 1    
   124   62   63 1    
   125   62   64 1    
   126   62  185 1    
   127   63  186 1    
   128   63  187 1    
   129   63  188 1    
   130   64   65 am   BACKBONE|DICT|INTERRES
   131   64  189 1    
   132   65   66 2    
   133   67   68 2    
   134   67   69 am   BACKBONE|DICT|INTERRES
   135   69   70 1    
   136   69  190 1    
   137   70   71 1    
   138   70   72 1    
   139   70  191 1    
   140   71  192 1    
   141   71  193 1    
   142   71  194 1    
   143   72   73 2    
   144   72   74 am   BACKBONE|DICT|INTERRES
   145   74   75 1    
   146   74  195 1    
   147   75   76 1    
   148   75   77 1    
   149   75  196 1    
   150   76  197 1    
   151   76  198 1    
   152   76  199 1    
   153   77   78 2    
   154   77   79 am   BACKBONE|DICT|INTERRES
   155   79   80 1    
   156   79  200 1    
   157   80   81 1    
   158   80   82 1    
   159   80  201 1    
   160   81  202 1    
   161   81  203 1    
   162   81  204 1    
   163   82   83 2    
   164   82   84 am   BACKBONE|DICT|INTERRES
   165   84   85 1    
   166   84  205 1    
   167   85   86 1    
   168   85   87 1    
   169   85  206 1    
   170   86  207 1    
   171   86  208 1    
   172   86  209 1    
   173   87   88 2    
   174   87   89 am   BACKBONE|DICT|INTERRES
   175   89   90 1    
   176   89  210 1    
   177   90   91 1    
   178   90   92 1    
   179   90  211 1    
   180   91  212 1    
   181   91  213 1    
   182   91  214 1    
   183   92   93 2    
   184   92   94 am   BACKBONE|DICT|INTERRES
   185   94   95 1    
   186   94  215 1    
   187   95   96 1    
   188   95   97 1    
   189   95  216 1    
   190   96  217 1    
   191   96  218 1    
   192   96  219 1    
   193   97   98 2    
   194   97   99 am   BACKBONE|DICT|INTERRES
   195   99  100 1    
   196   99  220 1    
   197  100  101 1    
   198  100  102 1    
   199  100  221 1    
   200  101  222 1    
   201  101  223 1    
   202  101  224 1    
   203  102  103 2    
   204  102  104 am   BACKBONE|DICT|INTERRES
   205  104  105 1    
   206  104  225 1    
   207  105  106 1    
   208  105  107 1    
   209  105  226 1    
   210  106  227 1    
   211  106  228 1    
   212  106  229 1    
   213  107  108 2    
   214  107  109 am   BACKBONE|DICT|INTERRES
   215  109  110 1    
   216  109  230 1    
   217  110  111 1    
   218  110  112 1    
   219  110  231 1    
   220  111  232 1    
   221  111  233 1    
   222  111  234 1    
   223  112  113 2    
   224  112  114 am   BACKBONE|DICT|INTERRES
   225  114  115 1    
   226  114  235 1    
   227  115  116 1    
   228  115  117 1    
   229  115  236 1    
   230  116  237 1    
   231  116  238 1    
   232  116  239 1    
   233  117  118 2    
   234  117  119 am   BACKBONE|DICT|INTERRES
   235  119  120 1    
   236  119  240 1    
   237  120  121 1    
   238  120  124 1    
   239  120  241 1    
   240  121  122 am   BACKBONE|DICT|INTERRES
   241  121  123 2    
   242  122  242 1    
   243  122  243 1    
   244  124  125 1    
   245  124  244 1    
   246  124  245 1    
   247  125  126 1    
   248  126  246 1    
   249  126  247 1    
@<TRIPOS>SUBSTRUCTURE
     1 UNK         1 GROUP             0       ****    0 ROOT    
