@<TRIPOS>MOLECULE
3R540
247   249    1
SMALL
USER_CHARGES


@<TRIPOS>ATOM
      1 CA          1.4773  -11.1336  -46.3832 C.3       0 UNK        -0.1800 
      2 C           0.4057  -12.2215  -46.3577 C.2       0 UNK         0.5000 
      3 O          -0.3652  -12.2743  -45.4028 O.2       0 UNK        -0.5000 
      4 N           0.2920  -13.0964  -47.3689 N.am      1 UNK        -0.5000 
      5 CA          1.1108  -13.2088  -48.5826 C.3       1 UNK         0.1400 
      6 C6          0.5983  -14.3231  -49.5280 C.3       23 UNK        -0.0398 
      7 S7         -1.1465  -14.1656  -50.0383 S.3       23 UNK        -0.2404 
      8 C8         -1.6827  -15.9145  -50.0742 C.3       23 UNK        -0.0205 
      9 C9         -0.6937  -16.8163  -50.8043 C.ar      23 UNK        -0.0193 
     10 C10        -0.5161  -16.6962  -52.1849 C.ar      23 UNK        -0.1150 
     11 C11         0.4264  -17.4823  -52.8545 C.ar      23 UNK        -0.0193 
     12 C12         1.1863  -18.4058  -52.1289 C.ar      23 UNK        -0.1150 
     13 C13         1.0284  -18.5279  -50.7439 C.ar      23 UNK        -0.0193 
     14 C14         0.0796  -17.7372  -50.0900 C.ar      23 UNK        -0.1150 
     15 C15         1.9315  -19.4621  -49.9497 C.3       23 UNK        -0.0205 
     16 S16         1.0981  -21.0116  -49.4899 S.3       23 UNK        -0.2404 
     17 C17         0.4694  -20.6187  -47.8238 C.3       23 UNK        -0.0398 
     18 CA         -0.0626  -21.8693  -47.0798 C.3       11 UNK         0.1400 
     19 N           0.0010  -21.7048  -45.6200 N.am      11 UNK        -0.5000 
     20 C          -0.3258  -22.6383  -44.7122 C.2       10 UNK         0.5000 
     21 O          -0.7095  -23.7699  -45.0040 O.2       10 UNK        -0.5000 
     22 CA         -0.2936  -22.2169  -43.2324 C.3       10 UNK         0.1400 
     23 CB          1.1432  -22.1586  -42.6929 C.3       10 UNK        -0.1800 
     24 N          -0.9674  -20.9350  -43.0289 N.am      10 UNK        -0.5000 
     25 C          -2.2875  -20.7557  -43.1820 C.2       9 UNK         0.5000 
     26 O          -3.0784  -21.6777  -43.3798 O.2       9 UNK        -0.5000 
     27 CA         -2.8118  -19.3079  -43.1504 C.3       9 UNK         0.1400 
     28 CB         -3.1729  -18.8919  -41.7170 C.3       9 UNK        -0.1800 
     29 N          -1.8697  -18.3431  -43.7218 N.am      9 UNK        -0.5000 
     30 C          -1.4866  -18.3147  -45.0062 C.2       8 UNK         0.5000 
     31 O          -1.9244  -19.0786  -45.8647 O.2       8 UNK        -0.5000 
     32 CA         -0.3860  -17.3061  -45.3854 C.3       8 UNK         0.1400 
     33 CB         -0.9691  -15.9031  -45.5881 C.3       8 UNK        -0.1800 
     34 N           0.6862  -17.2528  -44.3905 N.am      8 UNK        -0.5000 
     35 C           1.5042  -18.2784  -44.1141 C.2       7 UNK         0.5000 
     36 O           1.4861  -19.3438  -44.7300 O.2       7 UNK        -0.5000 
     37 CA          2.4545  -18.1101  -42.9154 C.3       7 UNK         0.1400 
     38 CB          3.7505  -17.3958  -43.3190 C.3       7 UNK        -0.1800 
     39 N           1.8194  -17.3804  -41.8197 N.am      7 UNK        -0.5000 
     40 C           0.8612  -17.8896  -41.0339 C.2       6 UNK         0.5000 
     41 O           0.4469  -19.0449  -41.1248 O.2       6 UNK        -0.5000 
     42 CA          0.2343  -16.9311  -40.0046 C.3       6 UNK         0.1400 
     43 CB          1.0809  -16.8828  -38.7241 C.3       6 UNK        -0.1800 
     44 N           0.0713  -15.5737  -40.5298 N.am      6 UNK        -0.5000 
     45 C          -0.7625  -15.2427  -41.5264 C.2       5 UNK         0.5000 
     46 O          -1.5142  -16.0443  -42.0770 O.2       5 UNK        -0.5000 
     47 CA         -0.7172  -13.7862  -42.0220 C.3       5 UNK         0.1400 
     48 CB         -1.7214  -12.9209  -41.2469 C.3       5 UNK        -0.1800 
     49 N           0.6171  -13.1917  -41.9213 N.am      5 UNK        -0.5000 
     50 C           1.6763  -13.5862  -42.6380 C.2       4 UNK         0.5000 
     51 O           1.6520  -14.5082  -43.4597 O.2       4 UNK        -0.5000 
     52 CA          2.9953  -12.8666  -42.3408 C.3       4 UNK         0.1400 
     53 CB          3.7730  -13.6042  -41.2356 C.3       4 UNK        -0.1800 
     54 N           3.7858  -12.8195  -43.5623 N.am      4 UNK        -0.5000 
     55 C           4.7782  -11.9618  -43.8222 C.2       3 UNK         0.5000 
     56 O           5.1393  -11.0926  -43.0271 O.2       3 UNK        -0.5000 
     57 CA          5.4711  -12.0456  -45.2015 C.3       3 UNK         0.1400 
     58 CB          6.9938  -12.2450  -45.0595 C.3       3 UNK        -0.1800 
     59 N           4.8967  -13.0247  -46.1359 N.am      3 UNK        -0.5000 
     60 C           4.8893  -14.3620  -46.0516 C.2       2 UNK         0.5000 
     61 O           5.3898  -14.9922  -45.1208 O.2       2 UNK        -0.5000 
     62 CA          4.1591  -15.1025  -47.1900 C.3       2 UNK         0.1400 
     63 CB          3.9849  -16.6085  -46.9248 C.3       2 UNK        -0.1800 
     64 N           2.8390  -14.5319  -47.4650 N.am      2 UNK        -0.5000 
     65 C           2.5938  -13.4929  -48.2732 C.2       1 UNK         0.5000 
     66 O           3.4738  -12.7801  -48.7555 O.2       1 UNK        -0.5000 
     67 C          -1.4751  -22.2529  -47.5748 C.2       11 UNK         0.5000 
     68 O          -1.6074  -23.1030  -48.4582 O.2       11 UNK        -0.5000 
     69 N          -2.5079  -21.6614  -46.9565 N.am      12 UNK        -0.5000 
     70 CA         -3.9227  -21.9350  -47.2121 C.3       12 UNK         0.1400 
     71 CB         -4.7971  -20.9863  -46.3810 C.3       12 UNK        -0.1800 
     72 C          -4.3333  -23.4033  -46.9976 C.2       12 UNK         0.5000 
     73 O          -5.2719  -23.8553  -47.6532 O.2       12 UNK        -0.5000 
     74 N          -3.6084  -24.1195  -46.1286 N.am      13 UNK        -0.5000 
     75 CA         -3.7542  -25.5542  -45.9079 C.3       13 UNK         0.1400 
     76 CB         -3.6425  -25.8459  -44.4027 C.3       13 UNK        -0.1800 
     77 C          -2.6990  -26.3490  -46.6973 C.2       13 UNK         0.5000 
     78 O          -3.0572  -27.2925  -47.4014 O.2       13 UNK        -0.5000 
     79 N          -1.4209  -25.9667  -46.5601 N.am      14 UNK        -0.5000 
     80 CA         -0.2603  -26.7135  -47.0523 C.3       14 UNK         0.1400 
     81 CB          1.0195  -26.1326  -46.4309 C.3       14 UNK        -0.1800 
     82 C          -0.1409  -26.7581  -48.5846 C.2       14 UNK         0.5000 
     83 O           0.1420  -27.8219  -49.1370 O.2       14 UNK        -0.5000 
     84 N          -0.3652  -25.6133  -49.2402 N.am      15 UNK        -0.5000 
     85 CA         -0.3700  -25.4805  -50.7003 C.3       15 UNK         0.1400 
     86 CB          0.3722  -24.1909  -51.0823 C.3       15 UNK        -0.1800 
     87 C          -1.8040  -25.4527  -51.2595 C.2       15 UNK         0.5000 
     88 O          -1.9754  -25.3783  -52.4764 O.2       15 UNK        -0.5000 
     89 N          -2.7994  -25.4883  -50.3608 N.am      16 UNK        -0.5000 
     90 CA         -4.2317  -25.3265  -50.6081 C.3       16 UNK         0.1400 
     91 CB         -4.7839  -26.4720  -51.4823 C.3       16 UNK        -0.1800 
     92 C          -4.5804  -23.9251  -51.1520 C.2       16 UNK         0.5000 
     93 O          -5.5311  -23.7937  -51.9220 O.2       16 UNK        -0.5000 
     94 N          -3.8314  -22.8935  -50.7222 N.am      17 UNK        -0.5000 
     95 CA         -3.9605  -21.4985  -51.1729 C.3       17 UNK         0.1400 
     96 CB         -2.7473  -20.6790  -50.6979 C.3       17 UNK        -0.1800 
     97 C          -5.2984  -20.8061  -50.8309 C.2       17 UNK         0.5000 
     98 O          -5.5376  -19.6896  -51.2892 O.2       17 UNK        -0.5000 
     99 N          -6.1760  -21.4880  -50.0811 N.am      18 UNK        -0.5000 
    100 CA        -7.5903  -21.1429  -49.9394 C.3       18 UNK         0.1400 
    101 CB        -8.2182  -22.0561  -48.8756 C.3       18 UNK        -0.1800 
    102 C         -8.3689  -21.2505  -51.2705 C.2       18 UNK         0.5000 
    103 O         -9.3760  -20.5604  -51.4332 O.2       18 UNK        -0.5000 
    104 N         -7.8866  -22.0919  -52.1959 N.am      19 UNK        -0.5000 
    105 CA        -8.3808  -22.2293  -53.5603 C.3       19 UNK         0.1400 
    106 CB        -8.6239  -23.7182  -53.8505 C.3       19 UNK        -0.1800 
    107 C         -7.3392  -21.6604  -54.5373 C.2       19 UNK         0.5000 
    108 O         -6.1342  -21.7976  -54.3090 O.2       19 UNK        -0.5000 
    109 N         -7.8275  -21.0382  -55.6205 N.am      20 UNK        -0.5000 
    110 CA        -7.0605  -20.4957  -56.7536 C.3       20 UNK         0.1400 
    111 CB        -6.4657  -21.6509  -57.5862 C.3       20 UNK        -0.1800 
    112 C         -5.9918  -19.4461  -56.3676 C.2       20 UNK         0.5000 
    113 O         -5.0101  -19.2788  -57.0924 O.2       20 UNK        -0.5000 
    114 N         -6.1837  -18.7860  -55.2161 N.am      21 UNK        -0.5000 
    115 CA        -5.3202  -17.8050  -54.5428 C.3       21 UNK         0.1400 
    116 CB        -5.1167  -16.5510  -55.4148 C.3       21 UNK        -0.1800 
    117 C         -3.9655  -18.3445  -54.0334 C.2       21 UNK         0.5000 
    118 O         -3.4879  -17.8547  -53.0111 O.2       21 UNK        -0.5000 
    119 N         -3.3715  -19.3122  -54.7402 N.am      22 UNK        -0.5000 
    120 CA        -2.0545  -19.9073  -54.4625 C.3       22 UNK         0.1400 
    121 C         -2.0638  -21.4643  -54.5121 C.2       22 UNK         0.5000 
    122 N         -3.1985  -22.1382  -54.6657 N.am      22 UNK        -0.7600 
    123 O         -1.0114  -22.0862  -54.4020 O.2       22 UNK        -0.5000 
    124 C124       -0.9462  -19.3387  -55.3931 C.3       23 UNK        -0.0398 
    125 S125       -0.7937  -17.5194  -55.3752 S.3       23 UNK        -0.2404 
    126 C126        0.6852  -17.2704  -54.3415 C.3       23 UNK        -0.0205 
    127 H127        1.6624  -10.7612  -47.3901 H         1 UNK         0.0600 
    128 H128        2.4102  -11.5130  -45.9694 H         1 UNK         0.0600 
    129 H129        1.1647  -10.2845  -45.7751 H         1 UNK         0.0600 
    130 H130       -0.4720  -13.7540  -47.3252 H         1 UNK         0.3000 
    131 H131        1.0506  -12.2584  -49.1163 H         1 UNK         0.0600 
    132 H132        1.1992  -14.3593  -50.4393 H         1 UNK         0.0800 
    133 H133        0.7246  -15.2917  -49.0437 H         1 UNK         0.0800 
    134 H134       -2.6548  -15.9800  -50.5655 H         1 UNK         0.0800 
    135 H135       -1.8341  -16.2608  -49.0508 H         1 UNK         0.0800 
    136 H136       -1.0992  -15.9719  -52.7364 H         1 UNK         0.1150 
    137 H137        1.9307  -19.0032  -52.6362 H         1 UNK         0.1150 
    138 H138       -0.0346  -17.8155  -49.0190 H         1 UNK         0.1150 
    139 H139        2.8152  -19.7129  -50.5382 H         1 UNK         0.0800 
    140 H140        2.3032  -18.9525  -49.0599 H         1 UNK         0.0800 
    141 H141       -0.2917  -19.8404  -47.8915 H         1 UNK         0.0800 
    142 H142        1.2987  -20.1842  -47.2646 H         1 UNK         0.0800 
    143 H143        0.5950  -22.7097  -47.3108 H         1 UNK         0.0600 
    144 H144        0.3369  -20.8067  -45.2835 H         1 UNK         0.3000 
    145 H145       -0.8320  -22.9748  -42.6592 H         1 UNK         0.0600 
    146 H146        1.1566  -21.8799  -41.6390 H         1 UNK         0.0600 
    147 H147        1.6279  -23.1318  -42.7787 H         1 UNK         0.0600 
    148 H148        1.7575  -21.4413  -43.2349 H         1 UNK         0.0600 
    149 H149       -0.3883  -20.1387  -42.7918 H         1 UNK         0.3000 
    150 H150       -3.7228  -19.2757  -43.7515 H         1 UNK         0.0600 
    151 H151       -3.8965  -19.5815  -41.2806 H         1 UNK         0.0600 
    152 H152       -3.6181  -17.8971  -41.6956 H         1 UNK         0.0600 
    153 H153       -2.2971  -18.8809  -41.0682 H         1 UNK         0.0600 
    154 H154       -1.5195  -17.6261  -43.0916 H         1 UNK         0.3000 
    155 H155        0.0562  -17.6285  -46.3304 H         1 UNK         0.0600 
    156 H156       -1.5455  -15.5719  -44.7246 H         1 UNK         0.0600 
    157 H157       -1.6310  -15.8762  -46.4542 H         1 UNK         0.0600 
    158 H158       -0.1750  -15.1776  -45.7498 H         1 UNK         0.0600 
    159 H159        0.7925  -16.3890  -43.8707 H         1 UNK         0.3000 
    160 H160        2.7183  -19.1080  -42.5586 H         1 UNK         0.0600 
    161 H161        3.5599  -16.3820  -43.6703 H         1 UNK         0.0600 
    162 H162        4.2611  -17.9334  -44.1187 H         1 UNK         0.0600 
    163 H163        4.4433  -17.3315  -42.4800 H         1 UNK         0.0600 
    164 H164        2.0739  -16.4102  -41.7115 H         1 UNK         0.3000 
    165 H165       -0.7540  -17.3176  -39.7472 H         1 UNK         0.0600 
    166 H166        0.6065  -16.2654  -37.9611 H         1 UNK         0.0600 
    167 H167        1.2057  -17.8807  -38.3016 H         1 UNK         0.0600 
    168 H168        2.0765  -16.4789  -38.9123 H         1 UNK         0.0600 
    169 H169        0.6488  -14.8524  -40.1245 H         1 UNK         0.3000 
    170 H170       -1.0075  -13.7856  -43.0747 H         1 UNK         0.0600 
    171 H171       -2.7293  -13.3314  -41.3224 H         1 UNK         0.0600 
    172 H172       -1.4697  -12.8602  -40.1873 H         1 UNK         0.0600 
    173 H173       -1.7552  -11.9062  -41.6441 H         1 UNK         0.0600 
    174 H174        0.7216  -12.4319  -41.2643 H         1 UNK         0.3000 
    175 H175        2.7733  -11.8473  -42.0176 H         1 UNK         0.0600 
    176 H176        4.0376  -14.6176  -41.5404 H         1 UNK         0.0600 
    177 H177        4.6959  -13.0814  -40.9841 H         1 UNK         0.0600 
    178 H178        3.1844  -13.6769  -40.3204 H         1 UNK         0.0600 
    179 H179        3.5335  -13.5137  -44.2533 H         1 UNK         0.3000 
    180 H180        5.3136  -11.0725  -45.6689 H         1 UNK         0.0600 
    181 H181        7.2365  -13.1718  -44.5393 H         1 UNK         0.0600 
    182 H182        7.4434  -11.4291  -44.4924 H         1 UNK         0.0600 
    183 H183        7.4818  -12.2679  -46.0339 H         1 UNK         0.0600 
    184 H184        4.4551  -12.6292  -46.9594 H         1 UNK         0.3000 
    185 H185        4.7853  -14.9991  -48.0788 H         1 UNK         0.0600 
    186 H186        4.9368  -17.0861  -46.6893 H         1 UNK         0.0600 
    187 H187        3.3044  -16.7910  -46.0944 H         1 UNK         0.0600 
    188 H188        3.5797  -17.1146  -47.8009 H         1 UNK         0.0600 
    189 H189        2.0560  -15.0085  -47.0430 H         1 UNK         0.3000 
    190 H190       -2.3049  -20.9152  -46.2970 H         1 UNK         0.3000 
    191 H191       -4.1066  -21.7079  -48.2578 H         1 UNK         0.0600 
    192 H192       -4.7035  -21.1802  -45.3140 H         1 UNK         0.0600 
    193 H193       -5.8498  -21.1013  -46.6396 H         1 UNK         0.0600 
    194 H194       -4.5326  -19.9441  -46.5601 H         1 UNK         0.0600 
    195 H195       -2.8383  -23.6655  -45.6535 H         1 UNK         0.3000 
    196 H196       -4.7405  -25.8876  -46.2378 H         1 UNK         0.0600 
    197 H197       -3.7385  -26.9139  -44.2033 H         1 UNK         0.0600 
    198 H198       -4.4313  -25.3388  -43.8467 H         1 UNK         0.0600 
    199 H199       -2.6857  -25.5188  -43.9937 H         1 UNK         0.0600 
    200 H200       -1.2095  -25.1653  -45.9673 H         1 UNK         0.3000 
    201 H201       -0.3621  -27.7432  -46.7030 H         1 UNK         0.0600 
    202 H202        0.9840  -26.1765  -45.3422 H         1 UNK         0.0600 
    203 H203        1.1703  -25.0915  -46.7179 H         1 UNK         0.0600 
    204 H204        1.8994  -26.6925  -46.7504 H         1 UNK         0.0600 
    205 H205       -0.6308  -24.7811  -48.7218 H         1 UNK         0.3000 
    206 H206        0.1501  -26.3211  -51.1637 H         1 UNK         0.0600 
    207 H207        1.3657  -24.1532  -50.6353 H         1 UNK         0.0600 
    208 H208        0.4970  -24.1170  -52.1633 H         1 UNK         0.0600 
    209 H209       -0.1780  -23.3067  -50.7613 H         1 UNK         0.0600 
    210 H210       -2.5318  -25.5681  -49.3903 H         1 UNK         0.3000 
    211 H211       -4.7154  -25.4090  -49.6355 H         1 UNK         0.0600 
    212 H212       -4.4189  -26.4149  -52.5080 H         1 UNK         0.0600 
    213 H213       -5.8732  -26.4388  -51.5240 H         1 UNK         0.0600 
    214 H214       -4.5052  -27.4455  -51.0788 H         1 UNK         0.0600 
    215 H215       -3.0681  -23.0888  -50.0848 H         1 UNK         0.3000 
    216 H216       -3.9298  -21.5201  -52.2593 H         1 UNK         0.0600 
    217 H217       -2.7518  -19.6836  -51.1425 H         1 UNK         0.0600 
    218 H218       -1.8092  -21.1536  -50.9869 H         1 UNK         0.0600 
    219 H219       -2.7360  -20.5395  -49.6193 H         1 UNK         0.0600 
    220 H220       -5.9054  -22.4024  -49.7483 H         1 UNK         0.3000 
    221 H221       -7.6574  -20.1093  -49.5942 H         1 UNK         0.0600 
    222 H222       -8.1573  -23.1069  -49.1621 H         1 UNK         0.0600 
    223 H223       -7.7212  -21.9441  -47.9125 H         1 UNK         0.0600 
    224 H224       -9.2717  -21.8160  -48.7267 H         1 UNK         0.0600 
    225 H225       -7.0176  -22.5889  -52.0119 H         1 UNK         0.3000 
    226 H226       -9.3221  -21.6907  -53.6868 H         1 UNK         0.0600 
    227 H227       -9.3625  -24.1366  -53.1666 H         1 UNK         0.0600 
    228 H228       -8.9981  -23.8638  -54.8645 H         1 UNK         0.0600 
    229 H229       -7.7074  -24.3019  -53.7505 H         1 UNK         0.0600 
    230 H230       -8.8313  -20.9593  -55.7098 H         1 UNK         0.3000 
    231 H231       -7.7786  -19.9705  -57.3847 H         1 UNK         0.0600 
    232 H232       -7.2341  -22.3711  -57.8671 H         1 UNK         0.0600 
    233 H233       -5.6899  -22.1859  -57.0373 H         1 UNK         0.0600 
    234 H234       -6.0180  -21.2823  -58.5099 H         1 UNK         0.0600 
    235 H235       -7.0053  -19.0460  -54.6896 H         1 UNK         0.3000 
    236 H236       -5.8748  -17.4976  -53.6547 H         1 UNK         0.0600 
    237 H237       -4.5755  -15.7807  -54.8639 H         1 UNK         0.0600 
    238 H238       -4.5397  -16.7693  -56.3138 H         1 UNK         0.0600 
    239 H239       -6.0709  -16.1227  -55.7214 H         1 UNK         0.0600 
    240 H240       -3.8204  -19.6031  -55.6022 H         1 UNK         0.3000 
    241 H241       -1.7715  -19.6676  -53.4363 H         1 UNK         0.0600 
    242 H242       -3.1547  -23.1444  -54.6792 H         1 UNK         0.3800 
    243 H243       -4.1083  -21.6914  -54.6656 H         1 UNK         0.3800 
    244 H244        0.0233  -19.7695  -55.1376 H         1 UNK         0.0800 
    245 H245       -1.1420  -19.6380  -56.4240 H         1 UNK         0.0800 
    246 H246        1.4907  -17.9140  -54.6982 H         1 UNK         0.0800 
    247 H247        1.0336  -16.2466  -54.4836 H         1 UNK         0.0800 
@<TRIPOS>BOND
     1    1    2 1    
     2    1  127 1    
     3    1  128 1    
     4    1  129 1    
     5    2    3 2    
     6    2    4 am   BACKBONE|DICT|INTERRES
     7    4    5 1    
     8    4  130 1    
     9    5    6 1    
    10    5   65 1    
    11    5  131 1    
    12    6    7 1    
    13    6  132 1    
    14    6  133 1    
    15    7    8 1    
    16    8    9 1    
    17    8  134 1    
    18    8  135 1    
    19    9   10 ar   
    20    9   14 ar   
    21   10   11 ar   
    22   10  136 1    
    23   11   12 ar   
    24   11  126 1    
    25   12   13 ar   
    26   12  137 1    
    27   13   14 ar   
    28   13   15 1    
    29   14  138 1    
    30   15   16 1    
    31   15  139 1    
    32   15  140 1    
    33   16   17 1    
    34   17   18 1    
    35   17  141 1    
    36   17  142 1    
    37   18   19 1    
    38   18   67 1    
    39   18  143 1    
    40   19   20 am   BACKBONE|DICT|INTERRES
    41   19  144 1    
    42   20   21 2    
    43   20   22 1    
    44   22   23 1    
    45   22   24 1    
    46   22  145 1    
    47   23  146 1    
    48   23  147 1    
    49   23  148 1    
    50   24   25 am   BACKBONE|DICT|INTERRES
    51   24  149 1    
    52   25   26 2    
    53   25   27 1    
    54   27   28 1    
    55   27   29 1    
    56   27  150 1    
    57   28  151 1    
    58   28  152 1    
    59   28  153 1    
    60   29   30 am   BACKBONE|DICT|INTERRES
    61   29  154 1    
    62   30   31 2    
    63   30   32 1    
    64   32   33 1    
    65   32   34 1    
    66   32  155 1    
    67   33  156 1    
    68   33  157 1    
    69   33  158 1    
    70   34   35 am   BACKBONE|DICT|INTERRES
    71   34  159 1    
    72   35   36 2    
    73   35   37 1    
    74   37   38 1    
    75   37   39 1    
    76   37  160 1    
    77   38  161 1    
    78   38  162 1    
    79   38  163 1    
    80   39   40 am   BACKBONE|DICT|INTERRES
    81   39  164 1    
    82   40   41 2    
    83   40   42 1    
    84   42   43 1    
    85   42   44 1    
    86   42  165 1    
    87   43  166 1    
    88   43  167 1    
    89   43  168 1    
    90   44   45 am   BACKBONE|DICT|INTERRES
    91   44  169 1    
    92   45   46 2    
    93   45   47 1    
    94   47   48 1    
    95   47   49 1    
    96   47  170 1    
    97   48  171 1    
    98   48  172 1    
    99   48  173 1    
   100   49   50 am   BACKBONE|DICT|INTERRES
   101   49  174 1    
   102   50   51 2    
   103   50   52 1    
   104   52   53 1    
   105   52   54 1    
   106   52  175 1    
   107   53  176 1    
   108   53  177 1    
   109   53  178 1    
   110   54   55 am   BACKBONE|DICT|INTERRES
   111   54  179 1    
   112   55   56 2    
   113   55   57 1    
   114   57   58 1    
   115   57   59 1    
   116   57  180 1    
   117   58  181 1    
   118   58  182 1    
   119   58  183 1    
   120   59   60 am   BACKBONE|DICT|INTERRES
   121   59  184 1    
   122   60   61 2    
   123   60   62 1    
   124   62   63 1    
   125   62   64 1    
   126   62  185 1    
   127   63  186 1    
   128   63  187 1    
   129   63  188 1    
   130   64   65 am   BACKBONE|DICT|INTERRES
   131   64  189 1    
   132   65   66 2    
   133   67   68 2    
   134   67   69 am   BACKBONE|DICT|INTERRES
   135   69   70 1    
   136   69  190 1    
   137   70   71 1    
   138   70   72 1    
   139   70  191 1    
   140   71  192 1    
   141   71  193 1    
   142   71  194 1    
   143   72   73 2    
   144   72   74 am   BACKBONE|DICT|INTERRES
   145   74   75 1    
   146   74  195 1    
   147   75   76 1    
   148   75   77 1    
   149   75  196 1    
   150   76  197 1    
   151   76  198 1    
   152   76  199 1    
   153   77   78 2    
   154   77   79 am   BACKBONE|DICT|INTERRES
   155   79   80 1    
   156   79  200 1    
   157   80   81 1    
   158   80   82 1    
   159   80  201 1    
   160   81  202 1    
   161   81  203 1    
   162   81  204 1    
   163   82   83 2    
   164   82   84 am   BACKBONE|DICT|INTERRES
   165   84   85 1    
   166   84  205 1    
   167   85   86 1    
   168   85   87 1    
   169   85  206 1    
   170   86  207 1    
   171   86  208 1    
   172   86  209 1    
   173   87   88 2    
   174   87   89 am   BACKBONE|DICT|INTERRES
   175   89   90 1    
   176   89  210 1    
   177   90   91 1    
   178   90   92 1    
   179   90  211 1    
   180   91  212 1    
   181   91  213 1    
   182   91  214 1    
   183   92   93 2    
   184   92   94 am   BACKBONE|DICT|INTERRES
   185   94   95 1    
   186   94  215 1    
   187   95   96 1    
   188   95   97 1    
   189   95  216 1    
   190   96  217 1    
   191   96  218 1    
   192   96  219 1    
   193   97   98 2    
   194   97   99 am   BACKBONE|DICT|INTERRES
   195   99  100 1    
   196   99  220 1    
   197  100  101 1    
   198  100  102 1    
   199  100  221 1    
   200  101  222 1    
   201  101  223 1    
   202  101  224 1    
   203  102  103 2    
   204  102  104 am   BACKBONE|DICT|INTERRES
   205  104  105 1    
   206  104  225 1    
   207  105  106 1    
   208  105  107 1    
   209  105  226 1    
   210  106  227 1    
   211  106  228 1    
   212  106  229 1    
   213  107  108 2    
   214  107  109 am   BACKBONE|DICT|INTERRES
   215  109  110 1    
   216  109  230 1    
   217  110  111 1    
   218  110  112 1    
   219  110  231 1    
   220  111  232 1    
   221  111  233 1    
   222  111  234 1    
   223  112  113 2    
   224  112  114 am   BACKBONE|DICT|INTERRES
   225  114  115 1    
   226  114  235 1    
   227  115  116 1    
   228  115  117 1    
   229  115  236 1    
   230  116  237 1    
   231  116  238 1    
   232  116  239 1    
   233  117  118 2    
   234  117  119 am   BACKBONE|DICT|INTERRES
   235  119  120 1    
   236  119  240 1    
   237  120  121 1    
   238  120  124 1    
   239  120  241 1    
   240  121  122 am   BACKBONE|DICT|INTERRES
   241  121  123 2    
   242  122  242 1    
   243  122  243 1    
   244  124  125 1    
   245  124  244 1    
   246  124  245 1    
   247  125  126 1    
   248  126  246 1    
   249  126  247 1    
@<TRIPOS>SUBSTRUCTURE
     1 UNK         1 GROUP             0       ****    0 ROOT    
