@<TRIPOS>MOLECULE
3R540
247   249    1
SMALL
USER_CHARGES


@<TRIPOS>ATOM
      1 CA          3.9352  -13.9317  -45.7050 C.3       0 UNK        -0.1800 
      2 C           2.5593  -13.7557  -46.3274 C.2       0 UNK         0.5000 
      3 O           1.5694  -13.6446  -45.6049 O.2       0 UNK        -0.5000 
      4 N           2.4814  -13.7312  -47.6650 N.am      1 UNK        -0.5000 
      5 CA          1.2302  -13.6367  -48.4342 C.3       1 UNK         0.1400 
      6 C6          1.4372  -13.9472  -49.9367 C.3       23 UNK        -0.0398 
      7 S7          2.0135  -15.6568  -50.2220 S.3       23 UNK        -0.2404 
      8 C8          0.4661  -16.4577  -50.7482 C.3       23 UNK        -0.0205 
      9 C9          0.6654  -17.9411  -51.0232 C.ar      23 UNK        -0.0193 
     10 C10         1.1039  -18.3727  -52.2796 C.ar      23 UNK        -0.1150 
     11 C11         1.2666  -19.7364  -52.5446 C.ar      23 UNK        -0.0193 
     12 C12         0.9764  -20.6686  -51.5437 C.ar      23 UNK        -0.1150 
     13 C13         0.5342  -20.2525  -50.2859 C.ar      23 UNK        -0.0193 
     14 C14         0.3872  -18.8864  -50.0305 C.ar      23 UNK        -0.1150 
     15 C15         0.1847  -21.2828  -49.2225 C.3       23 UNK        -0.0205 
     16 S16         1.6559  -22.1580  -48.6067 S.3       23 UNK        -0.2404 
     17 C17         0.8497  -23.3528  -47.4904 C.3       23 UNK        -0.0398 
     18 CA          1.8200  -23.9980  -46.4685 C.3       11 UNK         0.1400 
     19 N           2.3987  -23.0041  -45.5579 N.am      11 UNK        -0.5000 
     20 C           3.5469  -23.1275  -44.8803 C.2       10 UNK         0.5000 
     21 O           4.3085  -24.0879  -44.9947 O.2       10 UNK        -0.5000 
     22 CA          3.8627  -22.0223  -43.8515 C.3       10 UNK         0.1400 
     23 CB          4.6230  -20.8619  -44.5105 C.3       10 UNK        -0.1800 
     24 N           2.6668  -21.5107  -43.1707 N.am      10 UNK        -0.5000 
     25 C           1.8751  -22.2439  -42.3729 C.2       9 UNK         0.5000 
     26 O           2.0887  -23.4262  -42.1042 O.2       9 UNK        -0.5000 
     27 CA          0.6067  -21.5676  -41.8209 C.3       9 UNK         0.1400 
     28 CB          0.9402  -20.6731  -40.6180 C.3       9 UNK        -0.1800 
     29 N          -0.1015  -20.7881  -42.8351 N.am      9 UNK        -0.5000 
     30 C          -0.6926  -21.3073  -43.9209 C.2       8 UNK         0.5000 
     31 O          -0.7695  -22.5149  -44.1511 O.2       8 UNK        -0.5000 
     32 CA         -1.2444  -20.3050  -44.9524 C.3       8 UNK         0.1400 
     33 CB         -2.6258  -19.7918  -44.5236 C.3       8 UNK        -0.1800 
     34 N          -0.3435  -19.1723  -45.1802 N.am      8 UNK        -0.5000 
     35 C           0.9202  -19.2906  -45.6123 C.2       7 UNK         0.5000 
     36 O           1.4357  -20.3650  -45.9031 O.2       7 UNK        -0.5000 
     37 CA          1.7745  -18.0169  -45.6742 C.3       7 UNK         0.1400 
     38 CB          1.5301  -17.2527  -46.9764 C.3       7 UNK        -0.1800 
     39 N           1.5517  -17.1471  -44.5223 N.am      7 UNK        -0.5000 
     40 C           1.9806  -17.4373  -43.2859 C.2       6 UNK         0.5000 
     41 O           2.6308  -18.4452  -43.0061 O.2       6 UNK        -0.5000 
     42 CA          1.5752  -16.4584  -42.1706 C.3       6 UNK         0.1400 
     43 CB          2.4737  -15.2126  -42.1852 C.3       6 UNK        -0.1800 
     44 N           0.1747  -16.0491  -42.2739 N.am      6 UNK        -0.5000 
     45 C          -0.8716  -16.8750  -42.1283 C.2       5 UNK         0.5000 
     46 O          -0.7688  -18.0715  -41.8589 O.2       5 UNK        -0.5000 
     47 CA         -2.2658  -16.2681  -42.3701 C.3       5 UNK         0.1400 
     48 CB         -2.8065  -15.6276  -41.0836 C.3       5 UNK        -0.1800 
     49 N          -2.2842  -15.2761  -43.4464 N.am      5 UNK        -0.5000 
     50 C          -1.9640  -15.5109  -44.7247 C.2       4 UNK         0.5000 
     51 O          -1.5931  -16.6062  -45.1455 O.2       4 UNK        -0.5000 
     52 CA         -2.0117  -14.3142  -45.6861 C.3       4 UNK         0.1400 
     53 CB         -3.4553  -13.9321  -46.0627 C.3       4 UNK        -0.1800 
     54 N          -1.2429  -13.1638  -45.2034 N.am      4 UNK        -0.5000 
     55 C          -1.4967  -12.3192  -44.1933 C.2       3 UNK         0.5000 
     56 O          -2.4799  -12.3996  -43.4564 O.2       3 UNK        -0.5000 
     57 CA         -0.4563  -11.2089  -43.9548 C.3       3 UNK         0.1400 
     58 CB          0.5413  -11.6372  -42.8671 C.3       3 UNK        -0.1800 
     59 N           0.2793  -10.8837  -45.1793 N.am      3 UNK        -0.5000 
     60 C          -0.1497  -10.0256  -46.1165 C.2       2 UNK         0.5000 
     61 O          -1.1581   -9.3289  -45.9967 O.2       2 UNK        -0.5000 
     62 CA          0.6745   -9.9489  -47.4178 C.3       2 UNK         0.1400 
     63 CB          1.8185   -8.9337  -47.2745 C.3       2 UNK        -0.1800 
     64 N           1.2283  -11.2466  -47.8109 N.am      2 UNK        -0.5000 
     65 C           0.5013  -12.2870  -48.2460 C.2       1 UNK         0.5000 
     66 O          -0.7087  -12.2261  -48.4622 O.2       1 UNK        -0.5000 
     67 C           1.1326  -25.1727  -45.7254 C.2       11 UNK         0.5000 
     68 O           0.5307  -26.0194  -46.3859 O.2       11 UNK        -0.5000 
     69 N           1.2226  -25.2207  -44.3867 N.am      12 UNK        -0.5000 
     70 CA          0.7080  -26.2656  -43.4957 C.3       12 UNK         0.1400 
     71 CB          1.4096  -27.6149  -43.7604 C.3       12 UNK        -0.1800 
     72 C          -0.8309  -26.3633  -43.5016 C.2       12 UNK         0.5000 
     73 O          -1.3839  -27.4636  -43.5459 O.2       12 UNK        -0.5000 
     74 N          -1.4883  -25.1962  -43.4424 N.am      13 UNK        -0.5000 
     75 CA         -2.9392  -24.9923  -43.3702 C.3       13 UNK         0.1400 
     76 CB         -3.5450  -25.6534  -42.1139 C.3       13 UNK        -0.1800 
     77 C          -3.6826  -25.3597  -44.6709 C.2       13 UNK         0.5000 
     78 O          -4.8743  -25.6691  -44.6332 O.2       13 UNK        -0.5000 
     79 N          -2.9829  -25.2664  -45.8105 N.am      14 UNK        -0.5000 
     80 CA         -3.5401  -25.4478  -47.1564 C.3       14 UNK         0.1400 
     81 CB         -2.4015  -25.8211  -48.1175 C.3       14 UNK        -0.1800 
     82 C          -4.3041  -24.2099  -47.6783 C.2       14 UNK         0.5000 
     83 O          -4.8540  -24.2724  -48.7780 O.2       14 UNK        -0.5000 
     84 N          -4.3140  -23.1275  -46.8843 N.am      15 UNK        -0.5000 
     85 CA         -4.8465  -21.7852  -47.1400 C.3       15 UNK         0.1400 
     86 CB         -6.2877  -21.8145  -47.6863 C.3       15 UNK        -0.1800 
     87 C          -3.9193  -20.9468  -48.0362 C.2       15 UNK         0.5000 
     88 O          -3.1188  -21.4865  -48.8045 O.2       15 UNK        -0.5000 
     89 N          -4.0431  -19.6194  -47.9084 N.am      16 UNK        -0.5000 
     90 CA         -3.2862  -18.6352  -48.6790 C.3       16 UNK         0.1400 
     91 CB         -3.5843  -17.2271  -48.1469 C.3       16 UNK        -0.1800 
     92 C          -3.6172  -18.7446  -50.1760 C.2       16 UNK         0.5000 
     93 O          -4.7948  -18.7200  -50.5407 O.2       16 UNK        -0.5000 
     94 N          -2.5753  -18.9320  -50.9966 N.am      17 UNK        -0.5000 
     95 CA         -2.6206  -19.1757  -52.4417 C.3       17 UNK         0.1400 
     96 CB         -3.0452  -17.8925  -53.1810 C.3       17 UNK        -0.1800 
     97 C          -3.4709  -20.4064  -52.8239 C.2       17 UNK         0.5000 
     98 O          -4.0899  -20.4183  -53.8894 O.2       17 UNK        -0.5000 
     99 N          -3.5272  -21.3984  -51.9202 N.am      18 UNK        -0.5000 
    100 CA        -4.3591  -22.6054  -51.9815 C.3       18 UNK         0.1400 
    101 CB        -3.8886  -23.5254  -53.1276 C.3       18 UNK        -0.1800 
    102 C         -5.8751  -22.3015  -52.0409 C.2       18 UNK         0.5000 
    103 O         -6.6358  -23.0989  -52.5914 O.2       18 UNK        -0.5000 
    104 N         -6.2775  -21.1369  -51.5030 N.am      19 UNK        -0.5000 
    105 CA        -7.6121  -20.5299  -51.5783 C.3       19 UNK         0.1400 
    106 CB        -8.6681  -21.3924  -50.8545 C.3       19 UNK        -0.1800 
    107 C         -8.0296  -20.1483  -53.0175 C.2       19 UNK         0.5000 
    108 O         -9.2246  -20.0625  -53.3074 O.2       19 UNK        -0.5000 
    109 N         -7.0428  -19.9164  -53.8909 N.am      20 UNK        -0.5000 
    110 CA        -7.2082  -19.5426  -55.2890 C.3       20 UNK         0.1400 
    111 CB        -7.1703  -20.8162  -56.1603 C.3       20 UNK        -0.1800 
    112 C         -6.1354  -18.4941  -55.6330 C.2       20 UNK         0.5000 
    113 O         -6.0857  -17.4519  -54.9774 O.2       20 UNK        -0.5000 
    114 N         -5.2993  -18.7800  -56.6374 N.am      21 UNK        -0.5000 
    115 CA        -4.1892  -17.9383  -57.0910 C.3       21 UNK         0.1400 
    116 CB        -4.5593  -17.3157  -58.4497 C.3       21 UNK        -0.1800 
    117 C         -2.8692  -18.7346  -57.1544 C.2       21 UNK         0.5000 
    118 O         -1.9537  -18.3401  -57.8778 O.2       21 UNK        -0.5000 
    119 N         -2.7912  -19.8431  -56.4033 N.am      22 UNK        -0.5000 
    120 CA        -1.6497  -20.7715  -56.3339 C.3       22 UNK         0.1400 
    121 C         -1.3614  -21.5499  -57.6591 C.2       22 UNK         0.5000 
    122 N         -2.3293  -21.6954  -58.5565 N.am      22 UNK        -0.7600 
    123 O         -0.2615  -22.0488  -57.8799 O.2       22 UNK        -0.5000 
    124 C124       -0.3898  -20.1100  -55.7010 C.3       23 UNK        -0.0398 
    125 S125        0.6143  -21.3029  -54.7536 S.3       23 UNK        -0.2404 
    126 C126        1.7902  -20.2098  -53.8935 C.3       23 UNK        -0.0205 
    127 H127        3.9819  -14.8802  -45.1700 H         1 UNK         0.0600 
    128 H128        4.1314  -13.1280  -44.9954 H         1 UNK         0.0600 
    129 H129        4.7239  -13.9242  -46.4575 H         1 UNK         0.0600 
    130 H130        3.3226  -13.8419  -48.2137 H         1 UNK         0.3000 
    131 H131        0.5552  -14.3972  -48.0357 H         1 UNK         0.0600 
    132 H132        2.1680  -13.2618  -50.3691 H         1 UNK         0.0800 
    133 H133        0.5132  -13.7914  -50.4969 H         1 UNK         0.0800 
    134 H134       -0.2933  -16.3167  -49.9774 H         1 UNK         0.0800 
    135 H135        0.0891  -15.9661  -51.6465 H         1 UNK         0.0800 
    136 H136        1.3262  -17.6440  -53.0466 H         1 UNK         0.1150 
    137 H137        1.0984  -21.7242  -51.7435 H         1 UNK         0.1150 
    138 H138        0.0400  -18.5588  -49.0622 H         1 UNK         0.1150 
    139 H139       -0.3256  -20.8107  -48.3814 H         1 UNK         0.0800 
    140 H140       -0.5159  -22.0057  -49.6434 H         1 UNK         0.0800 
    141 H141        0.0251  -22.8628  -46.9695 H         1 UNK         0.0800 
    142 H142        0.4060  -24.1137  -48.1328 H         1 UNK         0.0800 
    143 H143        2.6389  -24.4454  -47.0355 H         1 UNK         0.0600 
    144 H144        1.8884  -22.1273  -45.4769 H         1 UNK         0.3000 
    145 H145        4.5114  -22.4587  -43.0893 H         1 UNK         0.0600 
    146 H146        4.8755  -20.0901  -43.7833 H         1 UNK         0.0600 
    147 H147        4.0406  -20.3971  -45.3053 H         1 UNK         0.0600 
    148 H148        5.5567  -21.2111  -44.9529 H         1 UNK         0.0600 
    149 H149        2.4397  -20.5344  -43.3233 H         1 UNK         0.3000 
    150 H150       -0.0659  -22.3565  -41.4776 H         1 UNK         0.0600 
    151 H151        1.5797  -19.8366  -40.9007 H         1 UNK         0.0600 
    152 H152        0.0345  -20.2629  -40.1707 H         1 UNK         0.0600 
    153 H153        1.4594  -21.2375  -39.8425 H         1 UNK         0.0600 
    154 H154       -0.1326  -19.7831  -42.6944 H         1 UNK         0.3000 
    155 H155       -1.3557  -20.8324  -45.9020 H         1 UNK         0.0600 
    156 H156       -3.3285  -20.6164  -44.4028 H         1 UNK         0.0600 
    157 H157       -3.0416  -19.1074  -45.2625 H         1 UNK         0.0600 
    158 H158       -2.5787  -19.2641  -43.5717 H         1 UNK         0.0600 
    159 H159       -0.7183  -18.2432  -45.0029 H         1 UNK         0.3000 
    160 H160        2.8230  -18.3216  -45.6684 H         1 UNK         0.0600 
    161 H161        0.5007  -16.9048  -47.0694 H         1 UNK         0.0600 
    162 H162        1.7598  -17.8859  -47.8317 H         1 UNK         0.0600 
    163 H163        2.1933  -16.3964  -47.0517 H         1 UNK         0.0600 
    164 H164        0.9899  -16.3211  -44.6687 H         1 UNK         0.3000 
    165 H165        1.7097  -16.9677  -41.2139 H         1 UNK         0.0600 
    166 H166        2.2378  -14.5456  -41.3559 H         1 UNK         0.0600 
    167 H167        3.5248  -15.4885  -42.0915 H         1 UNK         0.0600 
    168 H168        2.3651  -14.6473  -43.1110 H         1 UNK         0.0600 
    169 H169       -0.0050  -15.0845  -42.5077 H         1 UNK         0.3000 
    170 H170       -2.9372  -17.0795  -42.6560 H         1 UNK         0.0600 
    171 H171       -2.8204  -16.3476  -40.2643 H         1 UNK         0.0600 
    172 H172       -2.1960  -14.7806  -40.7680 H         1 UNK         0.0600 
    173 H173       -3.8278  -15.2717  -41.2202 H         1 UNK         0.0600 
    174 H174       -2.5471  -14.3262  -43.2000 H         1 UNK         0.3000 
    175 H175       -1.5148  -14.6331  -46.6034 H         1 UNK         0.0600 
    176 H176       -4.0403  -13.6210  -45.1972 H         1 UNK         0.0600 
    177 H177       -3.4669  -13.1168  -46.7862 H         1 UNK         0.0600 
    178 H178       -3.9757  -14.7756  -46.5162 H         1 UNK         0.0600 
    179 H179       -0.3315  -13.0668  -45.6366 H         1 UNK         0.3000 
    180 H180       -0.9870  -10.3228  -43.6003 H         1 UNK         0.0600 
    181 H181        0.0264  -11.8744  -41.9352 H         1 UNK         0.0600 
    182 H182        1.2529  -10.8403  -42.6508 H         1 UNK         0.0600 
    183 H183        1.1082  -12.5200  -43.1627 H         1 UNK         0.0600 
    184 H184        1.1006  -11.4421  -45.3685 H         1 UNK         0.3000 
    185 H185        0.0103   -9.6049  -48.2136 H         1 UNK         0.0600 
    186 H186        1.4346   -7.9496  -47.0022 H         1 UNK         0.0600 
    187 H187        2.5302   -9.2330  -46.5041 H         1 UNK         0.0600 
    188 H188        2.3647   -8.8202  -48.2111 H         1 UNK         0.0600 
    189 H189        2.2189  -11.3816  -47.6701 H         1 UNK         0.3000 
    190 H190        1.7048  -24.4643  -43.9158 H         1 UNK         0.3000 
    191 H191        0.9802  -25.9571  -42.4855 H         1 UNK         0.0600 
    192 H192        1.1338  -28.3520  -43.0055 H         1 UNK         0.0600 
    193 H193        2.4939  -27.5079  -43.7267 H         1 UNK         0.0600 
    194 H194        1.1431  -28.0301  -44.7326 H         1 UNK         0.0600 
    195 H195       -0.9474  -24.3370  -43.4987 H         1 UNK         0.3000 
    196 H196       -3.0735  -23.9158  -43.2557 H         1 UNK         0.0600 
    197 H197       -3.5391  -26.7414  -42.1821 H         1 UNK         0.0600 
    198 H198       -2.9973  -25.3692  -41.2154 H         1 UNK         0.0600 
    199 H199       -4.5809  -25.3440  -41.9711 H         1 UNK         0.0600 
    200 H200       -2.0001  -25.0401  -45.7519 H         1 UNK         0.3000 
    201 H201       -4.2472  -26.2795  -47.1327 H         1 UNK         0.0600 
    202 H202       -2.7880  -26.0648  -49.1079 H         1 UNK         0.0600 
    203 H203       -1.8502  -26.6919  -47.7619 H         1 UNK         0.0600 
    204 H204       -1.6973  -24.9991  -48.2365 H         1 UNK         0.0600 
    205 H205       -3.8029  -23.2194  -46.0198 H         1 UNK         0.3000 
    206 H206       -4.8784  -21.2987  -46.1645 H         1 UNK         0.0600 
    207 H207       -6.9311  -22.4480  -47.0758 H         1 UNK         0.0600 
    208 H208       -6.7248  -20.8155  -47.6906 H         1 UNK         0.0600 
    209 H209       -6.3259  -22.1827  -48.7111 H         1 UNK         0.0600 
    210 H210       -4.7496  -19.2490  -47.2901 H         1 UNK         0.3000 
    211 H211       -2.2262  -18.8406  -48.5222 H         1 UNK         0.0600 
    212 H212       -4.6321  -16.9565  -48.2839 H         1 UNK         0.0600 
    213 H213       -2.9800  -16.4787  -48.6612 H         1 UNK         0.0600 
    214 H214       -3.3567  -17.1552  -47.0842 H         1 UNK         0.0600 
    215 H215       -1.6475  -18.9699  -50.5968 H         1 UNK         0.3000 
    216 H216       -1.6025  -19.4137  -52.7471 H         1 UNK         0.0600 
    217 H217       -2.4243  -17.0461  -52.8877 H         1 UNK         0.0600 
    218 H218       -4.0846  -17.6336  -52.9771 H         1 UNK         0.0600 
    219 H219       -2.9419  -18.0065  -54.2582 H         1 UNK         0.0600 
    220 H220       -3.0250  -21.2777  -51.0484 H         1 UNK         0.3000 
    221 H221       -4.1903  -23.1336  -51.0436 H         1 UNK         0.0600 
    222 H222       -4.3888  -24.4933  -53.0817 H         1 UNK         0.0600 
    223 H223       -4.1002  -23.0947  -54.1068 H         1 UNK         0.0600 
    224 H224       -2.8164  -23.7128  -53.0679 H         1 UNK         0.0600 
    225 H225       -5.5688  -20.5289  -51.1056 H         1 UNK         0.3000 
    226 H226       -7.5365  -19.5873  -51.0345 H         1 UNK         0.0600 
    227 H227       -8.3589  -21.6302  -49.8378 H         1 UNK         0.0600 
    228 H228       -9.6200  -20.8652  -50.7832 H         1 UNK         0.0600 
    229 H229       -8.8563  -22.3304  -51.3770 H         1 UNK         0.0600 
    230 H230       -6.0797  -19.9983  -53.5828 H         1 UNK         0.3000 
    231 H231       -8.1730  -19.0523  -55.4331 H         1 UNK         0.0600 
    232 H232       -7.3052  -20.5817  -57.2169 H         1 UNK         0.0600 
    233 H233       -7.9741  -21.4983  -55.8824 H         1 UNK         0.0600 
    234 H234       -6.2301  -21.3581  -56.0463 H         1 UNK         0.0600 
    235 H235       -5.4140  -19.6607  -57.1185 H         1 UNK         0.3000 
    236 H236       -4.0163  -17.1260  -56.3826 H         1 UNK         0.0600 
    237 H237       -5.4851  -16.7443  -58.3805 H         1 UNK         0.0600 
    238 H238       -3.7841  -16.6307  -58.7955 H         1 UNK         0.0600 
    239 H239       -4.6928  -18.0787  -59.2173 H         1 UNK         0.0600 
    240 H240       -3.5574  -20.0592  -55.7731 H         1 UNK         0.3000 
    241 H241       -1.9917  -21.5424  -55.6421 H         1 UNK         0.0600 
    242 H242       -2.1423  -22.2025  -59.4074 H         1 UNK         0.3800 
    243 H243       -3.2423  -21.3027  -58.3978 H         1 UNK         0.3800 
    244 H244        0.2278  -19.6314  -56.4628 H         1 UNK         0.0800 
    245 H245       -0.6848  -19.3171  -55.0131 H         1 UNK         0.0800 
    246 H246        2.0488  -19.3671  -54.5366 H         1 UNK         0.0800 
    247 H247        2.7169  -20.7608  -53.7278 H         1 UNK         0.0800 
@<TRIPOS>BOND
     1    1    2 1    
     2    1  127 1    
     3    1  128 1    
     4    1  129 1    
     5    2    3 2    
     6    2    4 am   BACKBONE|DICT|INTERRES
     7    4    5 1    
     8    4  130 1    
     9    5    6 1    
    10    5   65 1    
    11    5  131 1    
    12    6    7 1    
    13    6  132 1    
    14    6  133 1    
    15    7    8 1    
    16    8    9 1    
    17    8  134 1    
    18    8  135 1    
    19    9   10 ar   
    20    9   14 ar   
    21   10   11 ar   
    22   10  136 1    
    23   11   12 ar   
    24   11  126 1    
    25   12   13 ar   
    26   12  137 1    
    27   13   14 ar   
    28   13   15 1    
    29   14  138 1    
    30   15   16 1    
    31   15  139 1    
    32   15  140 1    
    33   16   17 1    
    34   17   18 1    
    35   17  141 1    
    36   17  142 1    
    37   18   19 1    
    38   18   67 1    
    39   18  143 1    
    40   19   20 am   BACKBONE|DICT|INTERRES
    41   19  144 1    
    42   20   21 2    
    43   20   22 1    
    44   22   23 1    
    45   22   24 1    
    46   22  145 1    
    47   23  146 1    
    48   23  147 1    
    49   23  148 1    
    50   24   25 am   BACKBONE|DICT|INTERRES
    51   24  149 1    
    52   25   26 2    
    53   25   27 1    
    54   27   28 1    
    55   27   29 1    
    56   27  150 1    
    57   28  151 1    
    58   28  152 1    
    59   28  153 1    
    60   29   30 am   BACKBONE|DICT|INTERRES
    61   29  154 1    
    62   30   31 2    
    63   30   32 1    
    64   32   33 1    
    65   32   34 1    
    66   32  155 1    
    67   33  156 1    
    68   33  157 1    
    69   33  158 1    
    70   34   35 am   BACKBONE|DICT|INTERRES
    71   34  159 1    
    72   35   36 2    
    73   35   37 1    
    74   37   38 1    
    75   37   39 1    
    76   37  160 1    
    77   38  161 1    
    78   38  162 1    
    79   38  163 1    
    80   39   40 am   BACKBONE|DICT|INTERRES
    81   39  164 1    
    82   40   41 2    
    83   40   42 1    
    84   42   43 1    
    85   42   44 1    
    86   42  165 1    
    87   43  166 1    
    88   43  167 1    
    89   43  168 1    
    90   44   45 am   BACKBONE|DICT|INTERRES
    91   44  169 1    
    92   45   46 2    
    93   45   47 1    
    94   47   48 1    
    95   47   49 1    
    96   47  170 1    
    97   48  171 1    
    98   48  172 1    
    99   48  173 1    
   100   49   50 am   BACKBONE|DICT|INTERRES
   101   49  174 1    
   102   50   51 2    
   103   50   52 1    
   104   52   53 1    
   105   52   54 1    
   106   52  175 1    
   107   53  176 1    
   108   53  177 1    
   109   53  178 1    
   110   54   55 am   BACKBONE|DICT|INTERRES
   111   54  179 1    
   112   55   56 2    
   113   55   57 1    
   114   57   58 1    
   115   57   59 1    
   116   57  180 1    
   117   58  181 1    
   118   58  182 1    
   119   58  183 1    
   120   59   60 am   BACKBONE|DICT|INTERRES
   121   59  184 1    
   122   60   61 2    
   123   60   62 1    
   124   62   63 1    
   125   62   64 1    
   126   62  185 1    
   127   63  186 1    
   128   63  187 1    
   129   63  188 1    
   130   64   65 am   BACKBONE|DICT|INTERRES
   131   64  189 1    
   132   65   66 2    
   133   67   68 2    
   134   67   69 am   BACKBONE|DICT|INTERRES
   135   69   70 1    
   136   69  190 1    
   137   70   71 1    
   138   70   72 1    
   139   70  191 1    
   140   71  192 1    
   141   71  193 1    
   142   71  194 1    
   143   72   73 2    
   144   72   74 am   BACKBONE|DICT|INTERRES
   145   74   75 1    
   146   74  195 1    
   147   75   76 1    
   148   75   77 1    
   149   75  196 1    
   150   76  197 1    
   151   76  198 1    
   152   76  199 1    
   153   77   78 2    
   154   77   79 am   BACKBONE|DICT|INTERRES
   155   79   80 1    
   156   79  200 1    
   157   80   81 1    
   158   80   82 1    
   159   80  201 1    
   160   81  202 1    
   161   81  203 1    
   162   81  204 1    
   163   82   83 2    
   164   82   84 am   BACKBONE|DICT|INTERRES
   165   84   85 1    
   166   84  205 1    
   167   85   86 1    
   168   85   87 1    
   169   85  206 1    
   170   86  207 1    
   171   86  208 1    
   172   86  209 1    
   173   87   88 2    
   174   87   89 am   BACKBONE|DICT|INTERRES
   175   89   90 1    
   176   89  210 1    
   177   90   91 1    
   178   90   92 1    
   179   90  211 1    
   180   91  212 1    
   181   91  213 1    
   182   91  214 1    
   183   92   93 2    
   184   92   94 am   BACKBONE|DICT|INTERRES
   185   94   95 1    
   186   94  215 1    
   187   95   96 1    
   188   95   97 1    
   189   95  216 1    
   190   96  217 1    
   191   96  218 1    
   192   96  219 1    
   193   97   98 2    
   194   97   99 am   BACKBONE|DICT|INTERRES
   195   99  100 1    
   196   99  220 1    
   197  100  101 1    
   198  100  102 1    
   199  100  221 1    
   200  101  222 1    
   201  101  223 1    
   202  101  224 1    
   203  102  103 2    
   204  102  104 am   BACKBONE|DICT|INTERRES
   205  104  105 1    
   206  104  225 1    
   207  105  106 1    
   208  105  107 1    
   209  105  226 1    
   210  106  227 1    
   211  106  228 1    
   212  106  229 1    
   213  107  108 2    
   214  107  109 am   BACKBONE|DICT|INTERRES
   215  109  110 1    
   216  109  230 1    
   217  110  111 1    
   218  110  112 1    
   219  110  231 1    
   220  111  232 1    
   221  111  233 1    
   222  111  234 1    
   223  112  113 2    
   224  112  114 am   BACKBONE|DICT|INTERRES
   225  114  115 1    
   226  114  235 1    
   227  115  116 1    
   228  115  117 1    
   229  115  236 1    
   230  116  237 1    
   231  116  238 1    
   232  116  239 1    
   233  117  118 2    
   234  117  119 am   BACKBONE|DICT|INTERRES
   235  119  120 1    
   236  119  240 1    
   237  120  121 1    
   238  120  124 1    
   239  120  241 1    
   240  121  122 am   BACKBONE|DICT|INTERRES
   241  121  123 2    
   242  122  242 1    
   243  122  243 1    
   244  124  125 1    
   245  124  244 1    
   246  124  245 1    
   247  125  126 1    
   248  126  246 1    
   249  126  247 1    
@<TRIPOS>SUBSTRUCTURE
     1 UNK         1 GROUP             0       ****    0 ROOT    
