@<TRIPOS>MOLECULE
3R540
247   249    1
SMALL
USER_CHARGES


@<TRIPOS>ATOM
      1 CA          7.0183  -12.3867  -47.7453 C.3       0 UNK        -0.1800 
      2 C           7.0346  -13.9083  -47.7463 C.2       0 UNK         0.5000 
      3 O           7.6207  -14.5196  -46.8533 O.2       0 UNK        -0.5000 
      4 N           6.3672  -14.5271  -48.7267 N.am      1 UNK        -0.5000 
      5 CA          6.2615  -15.9778  -48.9493 C.3       1 UNK         0.1400 
      6 C6          5.9631  -16.2752  -50.4459 C.3       23 UNK        -0.0398 
      7 S7          4.4331  -15.4812  -51.0749 S.3       23 UNK        -0.2404 
      8 C8          3.4090  -16.9318  -51.4788 C.3       23 UNK        -0.0205 
      9 C9          1.9320  -16.6680  -51.2334 C.ar      23 UNK        -0.0193 
     10 C10         1.0786  -16.3469  -52.2933 C.ar      23 UNK        -0.1150 
     11 C11        -0.2904  -16.1677  -52.0697 C.ar      23 UNK        -0.0193 
     12 C12        -0.8032  -16.3086  -50.7771 C.ar      23 UNK        -0.1150 
     13 C13         0.0413  -16.6253  -49.7108 C.ar      23 UNK        -0.0193 
     14 C14         1.4088  -16.7918  -49.9432 C.ar      23 UNK        -0.1150 
     15 C15        -0.5276  -16.8064  -48.3133 C.3       23 UNK        -0.0205 
     16 S16        -1.1248  -18.4996  -48.0454 S.3       23 UNK        -0.2404 
     17 C17         0.4357  -19.4590  -48.0528 C.3       23 UNK        -0.0398 
     18 CA          0.3794  -20.9203  -47.5193 C.3       11 UNK         0.1400 
     19 N           0.6204  -21.0360  -46.0758 N.am      11 UNK        -0.5000 
     20 C           0.9508  -22.1907  -45.4726 C.2       10 UNK         0.5000 
     21 O           1.1024  -23.2547  -46.0733 O.2       10 UNK        -0.5000 
     22 CA          1.1012  -22.1719  -43.9432 C.3       10 UNK         0.1400 
     23 CB          2.4863  -21.6436  -43.5407 C.3       10 UNK        -0.1800 
     24 N           0.0581  -21.3773  -43.2990 N.am      10 UNK        -0.5000 
     25 C          -1.2290  -21.7481  -43.2134 C.2       9 UNK         0.5000 
     26 O          -1.6597  -22.8182  -43.6434 O.2       9 UNK        -0.5000 
     27 CA         -2.2107  -20.7320  -42.5912 C.3       9 UNK         0.1400 
     28 CB         -2.2632  -20.8946  -41.0652 C.3       9 UNK        -0.1800 
     29 N          -1.8710  -19.3459  -42.9164 N.am      9 UNK        -0.5000 
     30 C          -1.7914  -18.8655  -44.1640 C.2       8 UNK         0.5000 
     31 O          -2.1547  -19.5075  -45.1479 O.2       8 UNK        -0.5000 
     32 CA         -1.1482  -17.4793  -44.3650 C.3       8 UNK         0.1400 
     33 CB         -2.2120  -16.4357  -44.7378 C.3       8 UNK        -0.1800 
     34 N          -0.3583  -16.9739  -43.2377 N.am      8 UNK        -0.5000 
     35 C           0.7030  -17.5617  -42.6661 C.2       7 UNK         0.5000 
     36 O           1.0908  -18.6944  -42.9504 O.2       7 UNK        -0.5000 
     37 CA          1.4435  -16.7693  -41.5733 C.3       7 UNK         0.1400 
     38 CB          2.7037  -16.1042  -42.1472 C.3       7 UNK        -0.1800 
     39 N           0.6037  -15.7327  -40.9723 N.am      7 UNK        -0.5000 
     40 C          -0.1092  -15.8760  -39.8477 C.2       6 UNK         0.5000 
     41 O          -0.1507  -16.9196  -39.1952 O.2       6 UNK        -0.5000 
     42 CA         -0.8983  -14.6460  -39.3538 C.3       6 UNK         0.1400 
     43 CB         -0.0930  -13.8916  -38.2845 C.3       6 UNK        -0.1800 
     44 N          -1.2446  -13.7132  -40.4280 N.am      6 UNK        -0.5000 
     45 C          -2.2352  -13.9080  -41.3082 C.2       5 UNK         0.5000 
     46 O          -2.9971  -14.8746  -41.2761 O.2       5 UNK        -0.5000 
     47 CA         -2.3825  -12.8628  -42.4337 C.3       5 UNK         0.1400 
     48 CB         -3.3555  -11.7524  -42.0093 C.3       5 UNK        -0.1800 
     49 N          -1.1239  -12.2526  -42.8858 N.am      5 UNK        -0.5000 
     50 C          -0.0728  -12.9310  -43.3640 C.2       4 UNK         0.5000 
     51 O           0.0074  -14.1582  -43.3409 O.2       4 UNK        -0.5000 
     52 CA          1.1060  -12.1130  -43.9199 C.3       4 UNK         0.1400 
     53 CB          2.1568  -11.8854  -42.8226 C.3       4 UNK        -0.1800 
     54 N           1.7420  -12.7923  -45.0515 N.am      4 UNK        -0.5000 
     55 C           1.1547  -13.0215  -46.2349 C.2       3 UNK         0.5000 
     56 O           0.0354  -12.6005  -46.5314 O.2       3 UNK        -0.5000 
     57 CA          1.9467  -13.8350  -47.2773 C.3       3 UNK         0.1400 
     58 CB          2.5077  -12.9128  -48.3710 C.3       3 UNK        -0.1800 
     59 N           3.0520  -14.6192  -46.7239 N.am      3 UNK        -0.5000 
     60 C           2.9345  -15.7594  -46.0269 C.2       2 UNK         0.5000 
     61 O           1.8572  -16.2382  -45.6811 O.2       2 UNK        -0.5000 
     62 CA          4.2556  -16.4803  -45.6748 C.3       2 UNK         0.1400 
     63 CB          4.0636  -17.9836  -45.3716 C.3       2 UNK        -0.1800 
     64 N           5.2858  -16.2502  -46.6986 N.am      2 UNK        -0.5000 
     65 C           5.2698  -16.6671  -47.9743 C.2       1 UNK         0.5000 
     66 O           4.4912  -17.5231  -48.3922 O.2       1 UNK        -0.5000 
     67 C          -0.8820  -21.7038  -47.9376 C.2       11 UNK         0.5000 
     68 O          -0.8513  -22.4072  -48.9463 O.2       11 UNK        -0.5000 
     69 N          -1.9415  -21.6178  -47.1198 N.am      12 UNK        -0.5000 
     70 CA         -3.1943  -22.3411  -47.3034 C.3       12 UNK         0.1400 
     71 CB         -4.2306  -21.8407  -46.2860 C.3       12 UNK        -0.1800 
     72 C          -3.0196  -23.8660  -47.2131 C.2       12 UNK         0.5000 
     73 O          -3.5787  -24.5855  -48.0417 O.2       12 UNK        -0.5000 
     74 N          -2.2190  -24.3240  -46.2399 N.am      13 UNK        -0.5000 
     75 CA         -1.8496  -25.7285  -46.0656 C.3       13 UNK         0.1400 
     76 CB         -1.1180  -25.9093  -44.7272 C.3       13 UNK        -0.1800 
     77 C          -0.9991  -26.2672  -47.2300 C.2       13 UNK         0.5000 
     78 O          -1.2467  -27.3819  -47.6902 O.2       13 UNK        -0.5000 
     79 N          -0.0354  -25.4618  -47.7005 N.am      14 UNK        -0.5000 
     80 CA          0.8235  -25.7774  -48.8434 C.3       14 UNK         0.1400 
     81 CB          1.9709  -24.7590  -48.9225 C.3       14 UNK        -0.1800 
     82 C           0.0499  -25.8338  -50.1738 C.2       14 UNK         0.5000 
     83 O           0.2907  -26.7351  -50.9780 O.2       14 UNK        -0.5000 
     84 N          -0.8734  -24.8833  -50.3738 N.am      15 UNK        -0.5000 
     85 CA         -1.7529  -24.8091  -51.5407 C.3       15 UNK         0.1400 
     86 CB         -2.4227  -23.4278  -51.5796 C.3       15 UNK        -0.1800 
     87 C          -2.8265  -25.9115  -51.5657 C.2       15 UNK         0.5000 
     88 O          -3.2777  -26.2853  -52.6485 O.2       15 UNK        -0.5000 
     89 N          -3.2448  -26.3781  -50.3794 N.am      16 UNK        -0.5000 
     90 CA         -4.2748  -27.3837  -50.0784 C.3       16 UNK         0.1400 
     91 CB         -3.9581  -28.7387  -50.7378 C.3       16 UNK        -0.1800 
     92 C          -5.7142  -26.9251  -50.3911 C.2       16 UNK         0.5000 
     93 O          -6.6226  -27.2036  -49.6089 O.2       16 UNK        -0.5000 
     94 N          -5.8914  -26.1863  -51.4918 N.am      17 UNK        -0.5000 
     95 CA         -7.1261  -25.5184  -51.9094 C.3       17 UNK         0.1400 
     96 CB         -7.1437  -25.4546  -53.4465 C.3       17 UNK        -0.1800 
     97 C          -7.2916  -24.1166  -51.2769 C.2       17 UNK         0.5000 
     98 O          -8.1187  -23.3350  -51.7494 O.2       17 UNK        -0.5000 
     99 N          -6.5053  -23.8287  -50.2280 N.am      18 UNK        -0.5000 
    100 CA        -6.3897  -22.5685  -49.4900 C.3       18 UNK         0.1400 
    101 CB        -7.7511  -22.1224  -48.9137 C.3       18 UNK        -0.1800 
    102 C         -5.7013  -21.4556  -50.3068 C.2       18 UNK         0.5000 
    103 O         -5.3151  -21.6664  -51.4578 O.2       18 UNK        -0.5000 
    104 N         -5.5595  -20.2699  -49.6957 N.am      19 UNK        -0.5000 
    105 CA        -4.9501  -19.0767  -50.3017 C.3       19 UNK         0.1400 
    106 CB        -4.8181  -17.9846  -49.2297 C.3       19 UNK        -0.1800 
    107 C         -5.7105  -18.5438  -51.5369 C.2       19 UNK         0.5000 
    108 O         -5.1336  -17.8145  -52.3436 O.2       19 UNK        -0.5000 
    109 N         -6.9751  -18.9639  -51.6928 N.am      20 UNK        -0.5000 
    110 CA        -7.8204  -18.7551  -52.8696 C.3       20 UNK         0.1400 
    111 CB        -9.2130  -19.3365  -52.5827 C.3       20 UNK        -0.1800 
    112 C         -7.2460  -19.3556  -54.1707 C.2       20 UNK         0.5000 
    113 O         -7.6189  -18.9007  -55.2535 O.2       20 UNK        -0.5000 
    114 N         -6.3196  -20.3220  -54.0557 N.am      21 UNK        -0.5000 
    115 CA        -5.5649  -20.9174  -55.1633 C.3       21 UNK         0.1400 
    116 CB        -4.6520  -22.0202  -54.6089 C.3       21 UNK        -0.1800 
    117 C         -4.7351  -19.9036  -55.9803 C.2       21 UNK         0.5000 
    118 O         -4.4330  -20.1750  -57.1433 O.2       21 UNK        -0.5000 
    119 N         -4.4061  -18.7519  -55.3785 N.am      22 UNK        -0.5000 
    120 CA        -3.7939  -17.5975  -56.0547 C.3       22 UNK         0.1400 
    121 C         -4.7447  -16.8511  -57.0404 C.2       22 UNK         0.5000 
    122 N         -6.0504  -17.0989  -57.0425 N.am      22 UNK        -0.7600 
    123 O         -4.2839  -16.0291  -57.8278 O.2       22 UNK        -0.5000 
    124 C124       -3.1823  -16.5963  -55.0427 C.3       23 UNK        -0.0398 
    125 S125       -1.9119  -17.3407  -53.9680 S.3       23 UNK        -0.2404 
    126 C126       -1.2229  -15.8332  -53.2210 C.3       23 UNK        -0.0205 
    127 H127        8.0346  -12.0011  -47.8255 H         1 UNK         0.0600 
    128 H128        6.4359  -11.9872  -48.5759 H         1 UNK         0.0600 
    129 H129        6.5839  -12.0164  -46.8167 H         1 UNK         0.0600 
    130 H130        5.8832  -13.9681  -49.4158 H         1 UNK         0.3000 
    131 H131        7.2374  -16.4158  -48.7302 H         1 UNK         0.0600 
    132 H132        5.9413  -17.3507  -50.6275 H         1 UNK         0.0800 
    133 H133        6.7911  -15.9059  -51.0525 H         1 UNK         0.0800 
    134 H134        3.7096  -17.7936  -50.8826 H         1 UNK         0.0800 
    135 H135        3.5823  -17.2106  -52.5192 H         1 UNK         0.0800 
    136 H136        1.4755  -16.2535  -53.2944 H         1 UNK         0.1150 
    137 H137       -1.8635  -16.1877  -50.6037 H         1 UNK         0.1150 
    138 H138        2.0644  -17.0415  -49.1212 H         1 UNK         0.1150 
    139 H139        0.2194  -16.5718  -47.5590 H         1 UNK         0.0800 
    140 H140       -1.3519  -16.1097  -48.1540 H         1 UNK         0.0800 
    141 H141        1.2017  -18.8967  -47.5161 H         1 UNK         0.0800 
    142 H142        0.7721  -19.4875  -49.0903 H         1 UNK         0.0800 
    143 H143        1.2178  -21.4348  -47.9948 H         1 UNK         0.0600 
    144 H144        0.4724  -20.2106  -45.5143 H         1 UNK         0.3000 
    145 H145        1.0157  -23.1999  -43.5844 H         1 UNK         0.0600 
    146 H146        2.6052  -21.6310  -42.4572 H         1 UNK         0.0600 
    147 H147        3.2759  -22.2762  -43.9482 H         1 UNK         0.0600 
    148 H148        2.6578  -20.6316  -43.9087 H         1 UNK         0.0600 
    149 H149        0.3313  -20.4506  -42.9820 H         1 UNK         0.3000 
    150 H150       -3.2040  -20.9381  -42.9948 H         1 UNK         0.0600 
    151 H151       -2.5307  -21.9159  -40.7909 H         1 UNK         0.0600 
    152 H152       -3.0095  -20.2340  -40.6235 H         1 UNK         0.0600 
    153 H153       -1.3007  -20.6710  -40.6032 H         1 UNK         0.0600 
    154 H154       -1.5451  -18.7616  -42.1608 H         1 UNK         0.3000 
    155 H155       -0.4628  -17.5771  -45.2080 H         1 UNK         0.0600 
    156 H156       -2.8902  -16.2401  -43.9065 H         1 UNK         0.0600 
    157 H157       -2.8122  -16.7723  -45.5844 H         1 UNK         0.0600 
    158 H158       -1.7504  -15.4912  -45.0269 H         1 UNK         0.0600 
    159 H159       -0.5148  -15.9992  -43.0052 H         1 UNK         0.3000 
    160 H160        1.7591  -17.4800  -40.8066 H         1 UNK         0.0600 
    161 H161        3.2316  -15.5334  -41.3833 H         1 UNK         0.0600 
    162 H162        2.4628  -15.4257  -42.9660 H         1 UNK         0.0600 
    163 H163        3.3988  -16.8522  -42.5279 H         1 UNK         0.0600 
    164 H164        0.5169  -14.8734  -41.5012 H         1 UNK         0.3000 
    165 H165       -1.8197  -15.0078  -38.8922 H         1 UNK         0.0600 
    166 H166       -0.6639  -13.0573  -37.8763 H         1 UNK         0.0600 
    167 H167        0.1613  -14.5480  -37.4512 H         1 UNK         0.0600 
    168 H168        0.8403  -13.4960  -38.6873 H         1 UNK         0.0600 
    169 H169       -0.6695  -12.8892  -40.5239 H         1 UNK         0.3000 
    170 H170       -2.8141  -13.3803  -43.2931 H         1 UNK         0.0600 
    171 H171       -4.3114  -12.1702  -41.6902 H         1 UNK         0.0600 
    172 H172       -2.9594  -11.1668  -41.1787 H         1 UNK         0.0600 
    173 H173       -3.5612  -11.0703  -42.8344 H         1 UNK         0.0600 
    174 H174       -1.1042  -11.2433  -42.9121 H         1 UNK         0.3000 
    175 H175        0.7360  -11.1452  -44.2641 H         1 UNK         0.0600 
    176 H176        2.5632  -12.8272  -42.4513 H         1 UNK         0.0600 
    177 H177        2.9878  -11.2835  -43.1909 H         1 UNK         0.0600 
    178 H178        1.7264  -11.3559  -41.9716 H         1 UNK         0.0600 
    179 H179        2.6491  -13.1995  -44.8858 H         1 UNK         0.3000 
    180 H180        1.2439  -14.5206  -47.7507 H         1 UNK         0.0600 
    181 H181        3.2443  -12.2146  -47.9718 H         1 UNK         0.0600 
    182 H182        1.7136  -12.3252  -48.8337 H         1 UNK         0.0600 
    183 H183        2.9838  -13.4892  -49.1644 H         1 UNK         0.0600 
    184 H184        3.9804  -14.3083  -46.9647 H         1 UNK         0.3000 
    185 H185        4.6237  -16.0080  -44.7632 H         1 UNK         0.0600 
    186 H186        3.4176  -18.1292  -44.5062 H         1 UNK         0.0600 
    187 H187        3.5985  -18.5153  -46.2016 H         1 UNK         0.0600 
    188 H188        5.0148  -18.4675  -45.1515 H         1 UNK         0.0600 
    189 H189        6.0205  -15.5939  -46.4507 H         1 UNK         0.3000 
    190 H190       -1.9046  -20.9627  -46.3422 H         1 UNK         0.3000 
    191 H191       -3.5501  -22.1077  -48.3072 H         1 UNK         0.0600 
    192 H192       -3.8813  -21.9742  -45.2618 H         1 UNK         0.0600 
    193 H193       -5.1746  -22.3781  -46.3799 H         1 UNK         0.0600 
    194 H194       -4.4405  -20.7805  -46.4294 H         1 UNK         0.0600 
    195 H195       -1.8345  -23.6676  -45.5695 H         1 UNK         0.3000 
    196 H196       -2.7707  -26.3141  -46.0294 H         1 UNK         0.0600 
    197 H197       -0.8346  -26.9513  -44.5736 H         1 UNK         0.0600 
    198 H198       -1.7527  -25.6188  -43.8899 H         1 UNK         0.0600 
    199 H199       -0.2083  -25.3101  -44.6803 H         1 UNK         0.0600 
    200 H200        0.1397  -24.5784  -47.2315 H         1 UNK         0.3000 
    201 H201        1.2596  -26.7637  -48.6716 H         1 UNK         0.0600 
    202 H202        2.5712  -24.7708  -48.0125 H         1 UNK         0.0600 
    203 H203        1.5999  -23.7437  -49.0643 H         1 UNK         0.0600 
    204 H204        2.6377  -24.9851  -49.7554 H         1 UNK         0.0600 
    205 H205       -0.9561  -24.1284  -49.6968 H         1 UNK         0.3000 
    206 H206       -1.1428  -24.9198  -52.4394 H         1 UNK         0.0600 
    207 H207       -1.6844  -22.6309  -51.6695 H         1 UNK         0.0600 
    208 H208       -3.0983  -23.3439  -52.4309 H         1 UNK         0.0600 
    209 H209       -3.0086  -23.2405  -50.6789 H         1 UNK         0.0600 
    210 H210       -2.8642  -25.9231  -49.5574 H         1 UNK         0.3000 
    211 H211       -4.2240  -27.5282  -48.9979 H         1 UNK         0.0600 
    212 H212       -4.0255  -28.6921  -51.8249 H         1 UNK         0.0600 
    213 H213       -4.6581  -29.5049  -50.4026 H         1 UNK         0.0600 
    214 H214       -2.9552  -29.0772  -50.4769 H         1 UNK         0.0600 
    215 H215       -5.0764  -26.0405  -52.0810 H         1 UNK         0.3000 
    216 H216       -7.9814  -26.1155  -51.5872 H         1 UNK         0.0600 
    217 H217       -8.0657  -25.0036  -53.8155 H         1 UNK         0.0600 
    218 H218       -7.0777  -26.4520  -53.8814 H         1 UNK         0.0600 
    219 H219       -6.3107  -24.8671  -53.8325 H         1 UNK         0.0600 
    220 H220       -5.8487  -24.5434  -49.9497 H         1 UNK         0.3000 
    221 H221       -5.7379  -22.7949  -48.6495 H         1 UNK         0.0600 
    222 H222       -8.4174  -21.7389  -49.6869 H         1 UNK         0.0600 
    223 H223       -8.2578  -22.9499  -48.4169 H         1 UNK         0.0600 
    224 H224       -7.6284  -21.3340  -48.1708 H         1 UNK         0.0600 
    225 H225       -5.9019  -20.1591  -48.7527 H         1 UNK         0.3000 
    226 H226       -3.9462  -19.3496  -50.6345 H         1 UNK         0.0600 
    227 H227       -5.7923  -17.6659  -48.8571 H         1 UNK         0.0600 
    228 H228       -4.2301  -18.3337  -48.3804 H         1 UNK         0.0600 
    229 H229       -4.3137  -17.1042  -49.6303 H         1 UNK         0.0600 
    230 H230       -7.3555  -19.5630  -50.9761 H         1 UNK         0.3000 
    231 H231       -7.9175  -17.6784  -53.0221 H         1 UNK         0.0600 
    232 H232       -9.6688  -18.8618  -51.7136 H         1 UNK         0.0600 
    233 H233       -9.1680  -20.4106  -52.3954 H         1 UNK         0.0600 
    234 H234       -9.8850  -19.1782  -53.4273 H         1 UNK         0.0600 
    235 H235       -6.0733  -20.6514  -53.1281 H         1 UNK         0.3000 
    236 H236       -6.2862  -21.3753  -55.8428 H         1 UNK         0.0600 
    237 H237       -5.2223  -22.7656  -54.0556 H         1 UNK         0.0600 
    238 H238       -4.1282  -22.5393  -55.4125 H         1 UNK         0.0600 
    239 H239       -3.8987  -21.6087  -53.9359 H         1 UNK         0.0600 
    240 H240       -4.6750  -18.6070  -54.4130 H         1 UNK         0.3000 
    241 H241       -2.9753  -17.9807  -56.6668 H         1 UNK         0.0600 
    242 H242       -6.6423  -16.6064  -57.6925 H         1 UNK         0.3800 
    243 H243       -6.4646  -17.7722  -56.4060 H         1 UNK         0.3800 
    244 H244       -2.7240  -15.7575  -55.5702 H         1 UNK         0.0800 
    245 H245       -3.9640  -16.1726  -54.4094 H         1 UNK         0.0800 
    246 H246       -0.6931  -15.2583  -53.9822 H         1 UNK         0.0800 
    247 H247       -2.0359  -15.1991  -52.8635 H         1 UNK         0.0800 
@<TRIPOS>BOND
     1    1    2 1    
     2    1  127 1    
     3    1  128 1    
     4    1  129 1    
     5    2    3 2    
     6    2    4 am   BACKBONE|DICT|INTERRES
     7    4    5 1    
     8    4  130 1    
     9    5    6 1    
    10    5   65 1    
    11    5  131 1    
    12    6    7 1    
    13    6  132 1    
    14    6  133 1    
    15    7    8 1    
    16    8    9 1    
    17    8  134 1    
    18    8  135 1    
    19    9   10 ar   
    20    9   14 ar   
    21   10   11 ar   
    22   10  136 1    
    23   11   12 ar   
    24   11  126 1    
    25   12   13 ar   
    26   12  137 1    
    27   13   14 ar   
    28   13   15 1    
    29   14  138 1    
    30   15   16 1    
    31   15  139 1    
    32   15  140 1    
    33   16   17 1    
    34   17   18 1    
    35   17  141 1    
    36   17  142 1    
    37   18   19 1    
    38   18   67 1    
    39   18  143 1    
    40   19   20 am   BACKBONE|DICT|INTERRES
    41   19  144 1    
    42   20   21 2    
    43   20   22 1    
    44   22   23 1    
    45   22   24 1    
    46   22  145 1    
    47   23  146 1    
    48   23  147 1    
    49   23  148 1    
    50   24   25 am   BACKBONE|DICT|INTERRES
    51   24  149 1    
    52   25   26 2    
    53   25   27 1    
    54   27   28 1    
    55   27   29 1    
    56   27  150 1    
    57   28  151 1    
    58   28  152 1    
    59   28  153 1    
    60   29   30 am   BACKBONE|DICT|INTERRES
    61   29  154 1    
    62   30   31 2    
    63   30   32 1    
    64   32   33 1    
    65   32   34 1    
    66   32  155 1    
    67   33  156 1    
    68   33  157 1    
    69   33  158 1    
    70   34   35 am   BACKBONE|DICT|INTERRES
    71   34  159 1    
    72   35   36 2    
    73   35   37 1    
    74   37   38 1    
    75   37   39 1    
    76   37  160 1    
    77   38  161 1    
    78   38  162 1    
    79   38  163 1    
    80   39   40 am   BACKBONE|DICT|INTERRES
    81   39  164 1    
    82   40   41 2    
    83   40   42 1    
    84   42   43 1    
    85   42   44 1    
    86   42  165 1    
    87   43  166 1    
    88   43  167 1    
    89   43  168 1    
    90   44   45 am   BACKBONE|DICT|INTERRES
    91   44  169 1    
    92   45   46 2    
    93   45   47 1    
    94   47   48 1    
    95   47   49 1    
    96   47  170 1    
    97   48  171 1    
    98   48  172 1    
    99   48  173 1    
   100   49   50 am   BACKBONE|DICT|INTERRES
   101   49  174 1    
   102   50   51 2    
   103   50   52 1    
   104   52   53 1    
   105   52   54 1    
   106   52  175 1    
   107   53  176 1    
   108   53  177 1    
   109   53  178 1    
   110   54   55 am   BACKBONE|DICT|INTERRES
   111   54  179 1    
   112   55   56 2    
   113   55   57 1    
   114   57   58 1    
   115   57   59 1    
   116   57  180 1    
   117   58  181 1    
   118   58  182 1    
   119   58  183 1    
   120   59   60 am   BACKBONE|DICT|INTERRES
   121   59  184 1    
   122   60   61 2    
   123   60   62 1    
   124   62   63 1    
   125   62   64 1    
   126   62  185 1    
   127   63  186 1    
   128   63  187 1    
   129   63  188 1    
   130   64   65 am   BACKBONE|DICT|INTERRES
   131   64  189 1    
   132   65   66 2    
   133   67   68 2    
   134   67   69 am   BACKBONE|DICT|INTERRES
   135   69   70 1    
   136   69  190 1    
   137   70   71 1    
   138   70   72 1    
   139   70  191 1    
   140   71  192 1    
   141   71  193 1    
   142   71  194 1    
   143   72   73 2    
   144   72   74 am   BACKBONE|DICT|INTERRES
   145   74   75 1    
   146   74  195 1    
   147   75   76 1    
   148   75   77 1    
   149   75  196 1    
   150   76  197 1    
   151   76  198 1    
   152   76  199 1    
   153   77   78 2    
   154   77   79 am   BACKBONE|DICT|INTERRES
   155   79   80 1    
   156   79  200 1    
   157   80   81 1    
   158   80   82 1    
   159   80  201 1    
   160   81  202 1    
   161   81  203 1    
   162   81  204 1    
   163   82   83 2    
   164   82   84 am   BACKBONE|DICT|INTERRES
   165   84   85 1    
   166   84  205 1    
   167   85   86 1    
   168   85   87 1    
   169   85  206 1    
   170   86  207 1    
   171   86  208 1    
   172   86  209 1    
   173   87   88 2    
   174   87   89 am   BACKBONE|DICT|INTERRES
   175   89   90 1    
   176   89  210 1    
   177   90   91 1    
   178   90   92 1    
   179   90  211 1    
   180   91  212 1    
   181   91  213 1    
   182   91  214 1    
   183   92   93 2    
   184   92   94 am   BACKBONE|DICT|INTERRES
   185   94   95 1    
   186   94  215 1    
   187   95   96 1    
   188   95   97 1    
   189   95  216 1    
   190   96  217 1    
   191   96  218 1    
   192   96  219 1    
   193   97   98 2    
   194   97   99 am   BACKBONE|DICT|INTERRES
   195   99  100 1    
   196   99  220 1    
   197  100  101 1    
   198  100  102 1    
   199  100  221 1    
   200  101  222 1    
   201  101  223 1    
   202  101  224 1    
   203  102  103 2    
   204  102  104 am   BACKBONE|DICT|INTERRES
   205  104  105 1    
   206  104  225 1    
   207  105  106 1    
   208  105  107 1    
   209  105  226 1    
   210  106  227 1    
   211  106  228 1    
   212  106  229 1    
   213  107  108 2    
   214  107  109 am   BACKBONE|DICT|INTERRES
   215  109  110 1    
   216  109  230 1    
   217  110  111 1    
   218  110  112 1    
   219  110  231 1    
   220  111  232 1    
   221  111  233 1    
   222  111  234 1    
   223  112  113 2    
   224  112  114 am   BACKBONE|DICT|INTERRES
   225  114  115 1    
   226  114  235 1    
   227  115  116 1    
   228  115  117 1    
   229  115  236 1    
   230  116  237 1    
   231  116  238 1    
   232  116  239 1    
   233  117  118 2    
   234  117  119 am   BACKBONE|DICT|INTERRES
   235  119  120 1    
   236  119  240 1    
   237  120  121 1    
   238  120  124 1    
   239  120  241 1    
   240  121  122 am   BACKBONE|DICT|INTERRES
   241  121  123 2    
   242  122  242 1    
   243  122  243 1    
   244  124  125 1    
   245  124  244 1    
   246  124  245 1    
   247  125  126 1    
   248  126  246 1    
   249  126  247 1    
@<TRIPOS>SUBSTRUCTURE
     1 UNK         1 GROUP             0       ****    0 ROOT    
