@<TRIPOS>MOLECULE
3R540
247   249    1
SMALL
USER_CHARGES


@<TRIPOS>ATOM
      1 CA         -2.3848  -11.7653  -45.2257 C.3       0 UNK        -0.1800 
      2 C          -1.7492  -11.6970  -46.6072 C.2       0 UNK         0.5000 
      3 O          -1.1594  -10.6764  -46.9611 O.2       0 UNK        -0.5000 
      4 N          -1.8601  -12.7850  -47.3832 N.am      1 UNK        -0.5000 
      5 CA         -1.2451  -12.9551  -48.7092 C.3       1 UNK         0.1400 
      6 C6         -1.7815  -14.2330  -49.3981 C.3       23 UNK        -0.0398 
      7 S7         -1.5470  -14.2362  -51.2072 S.3       23 UNK        -0.2404 
      8 C8         -1.4237  -16.0187  -51.5465 C.3       23 UNK        -0.0205 
      9 C9         -0.0043  -16.5427  -51.3909 C.ar      23 UNK        -0.0193 
     10 C10         0.8623  -16.5358  -52.4880 C.ar      23 UNK        -0.1150 
     11 C11         2.1608  -17.0376  -52.3702 C.ar      23 UNK        -0.0193 
     12 C12         2.5980  -17.5268  -51.1363 C.ar      23 UNK        -0.1150 
     13 C13         1.7421  -17.5429  -50.0329 C.ar      23 UNK        -0.0193 
     14 C14         0.4383  -17.0561  -50.1671 C.ar      23 UNK        -0.1150 
     15 C15         2.2370  -18.0825  -48.6996 C.3       23 UNK        -0.0205 
     16 S16         2.1422  -19.8978  -48.6251 S.3       23 UNK        -0.2404 
     17 C17         0.3399  -20.1582  -48.5591 C.3       23 UNK        -0.0398 
     18 CA         -0.0326  -21.4774  -47.8459 C.3       11 UNK         0.1400 
     19 N           0.2300  -21.4447  -46.4040 N.am      11 UNK        -0.5000 
     20 C           0.1462  -22.5089  -45.5928 C.2       10 UNK         0.5000 
     21 O          -0.1038  -23.6482  -45.9863 O.2       10 UNK        -0.5000 
     22 CA          0.3117  -22.2531  -44.0835 C.3       10 UNK         0.1400 
     23 CB          1.7939  -22.1256  -43.7022 C.3       10 UNK        -0.1800 
     24 N          -0.4262  -21.0717  -43.6322 N.am      10 UNK        -0.5000 
     25 C          -1.7621  -20.9588  -43.6641 C.2       9 UNK         0.5000 
     26 O          -2.5123  -21.8664  -44.0227 O.2       9 UNK        -0.5000 
     27 CA         -2.3611  -19.5925  -43.2779 C.3       9 UNK         0.1400 
     28 CB         -2.4698  -19.4476  -41.7529 C.3       9 UNK        -0.1800 
     29 N          -1.6027  -18.4676  -43.8255 N.am      9 UNK        -0.5000 
     30 C          -1.4542  -18.2150  -45.1338 C.2       8 UNK         0.5000 
     31 O          -1.9889  -18.8698  -46.0273 O.2       8 UNK        -0.5000 
     32 CA         -0.4906  -17.0767  -45.5082 C.3       8 UNK         0.1400 
     33 CB         -1.1792  -15.7080  -45.3968 C.3       8 UNK        -0.1800 
     34 N           0.7256  -17.1013  -44.6920 N.am      8 UNK        -0.5000 
     35 C           1.6330  -18.0894  -44.7301 C.2       7 UNK         0.5000 
     36 O           1.5459  -19.0598  -45.4776 O.2       7 UNK        -0.5000 
     37 CA          2.8040  -18.0094  -43.7355 C.3       7 UNK         0.1400 
     38 CB          3.9183  -17.1032  -44.2774 C.3       7 UNK        -0.1800 
     39 N           2.3810  -17.5314  -42.4207 N.am      7 UNK        -0.5000 
     40 C           1.5585  -18.1985  -41.5979 C.2       6 UNK         0.5000 
     41 O           1.1323  -19.3298  -41.8263 O.2       6 UNK        -0.5000 
     42 CA          1.0844  -17.4398  -40.3443 C.3       6 UNK         0.1400 
     43 CB          2.0807  -17.6207  -39.1902 C.3       6 UNK        -0.1800 
     44 N           0.8990  -16.0106  -40.6052 N.am      6 UNK        -0.5000 
     45 C           0.0072  -15.4941  -41.4588 C.2       5 UNK         0.5000 
     46 O          -0.8252  -16.1783  -42.0538 O.2       5 UNK        -0.5000 
     47 CA          0.1036  -13.9855  -41.7616 C.3       5 UNK         0.1400 
     48 CB         -0.6112  -13.1488  -40.6852 C.3       5 UNK        -0.1800 
     49 N           1.4719  -13.5028  -42.0098 N.am      5 UNK        -0.5000 
     50 C           2.5052  -13.4060  -41.1552 C.2       4 UNK         0.5000 
     51 O           2.4485  -13.7539  -39.9752 O.2       4 UNK        -0.5000 
     52 CA          3.8444  -12.8699  -41.7038 C.3       4 UNK         0.1400 
     53 CB          4.8625  -14.0124  -41.8433 C.3       4 UNK        -0.1800 
     54 N           3.7234  -12.1862  -42.9922 N.am      4 UNK        -0.5000 
     55 C           3.1691  -10.9792  -43.1649 C.2       3 UNK         0.5000 
     56 O           2.7546  -10.2816  -42.2384 O.2       3 UNK        -0.5000 
     57 CA          3.0402  -10.4645  -44.6124 C.3       3 UNK         0.1400 
     58 CB          4.1468   -9.4419  -44.9147 C.3       3 UNK        -0.1800 
     59 N           3.0520  -11.4953  -45.6591 N.am      3 UNK        -0.5000 
     60 C           2.1674  -12.4930  -45.7839 C.2       2 UNK         0.5000 
     61 O           1.3307  -12.7887  -44.9250 O.2       2 UNK        -0.5000 
     62 CA          2.2167  -13.2944  -47.0924 C.3       2 UNK         0.1400 
     63 CB          2.8429  -14.6788  -46.8754 C.3       2 UNK        -0.1800 
     64 N           0.8380  -13.4573  -47.5277 N.am      2 UNK        -0.5000 
     65 C           0.3012  -12.9429  -48.6394 C.2       1 UNK         0.5000 
     66 O           0.9572  -12.4286  -49.5464 O.2       1 UNK        -0.5000 
     67 C          -1.4889  -21.8773  -48.1530 C.2       11 UNK         0.5000 
     68 O          -1.7010  -22.7112  -49.0301 O.2       11 UNK        -0.5000 
     69 N          -2.4599  -21.3299  -47.4063 N.am      12 UNK        -0.5000 
     70 CA         -3.8772  -21.6919  -47.4940 C.3       12 UNK         0.1400 
     71 CB         -4.7124  -20.7707  -46.5923 C.3       12 UNK        -0.1800 
     72 C          -4.1392  -23.1723  -47.1662 C.2       12 UNK         0.5000 
     73 O          -4.8752  -23.8317  -47.8996 O.2       12 UNK        -0.5000 
     74 N          -3.5016  -23.6793  -46.1024 N.am      13 UNK        -0.5000 
     75 CA         -3.5606  -25.0843  -45.6975 C.3       13 UNK         0.1400 
     76 CB         -2.8856  -25.2542  -44.3281 C.3       13 UNK        -0.1800 
     77 C          -2.9418  -26.0364  -46.7392 C.2       13 UNK         0.5000 
     78 O          -3.5065  -27.1006  -46.9942 O.2       13 UNK        -0.5000 
     79 N          -1.8105  -25.6312  -47.3327 N.am      14 UNK        -0.5000 
     80 CA         -1.1175  -26.3682  -48.3896 C.3       14 UNK         0.1400 
     81 CB          0.2877  -25.7784  -48.5868 C.3       14 UNK        -0.1800 
     82 C          -1.8960  -26.3802  -49.7186 C.2       14 UNK         0.5000 
     83 O          -1.9893  -27.4288  -50.3581 O.2       14 UNK        -0.5000 
     84 N          -2.4379  -25.2185  -50.1078 N.am      15 UNK        -0.5000 
     85 CA         -3.2228  -25.0234  -51.3275 C.3       15 UNK         0.1400 
     86 CB         -3.3600  -23.5187  -51.5854 C.3       15 UNK        -0.1800 
     87 C          -4.6075  -25.6956  -51.2681 C.2       15 UNK         0.5000 
     88 O          -5.0974  -26.1542  -52.3017 O.2       15 UNK        -0.5000 
     89 N          -5.1903  -25.7618  -50.0617 N.am      16 UNK        -0.5000 
     90 CA         -6.4408  -26.4259  -49.6930 C.3       16 UNK         0.1400 
     91 CB         -6.2871  -27.9592  -49.7878 C.3       16 UNK        -0.1800 
     92 C          -7.6543  -25.8817  -50.4710 C.2       16 UNK         0.5000 
     93 O          -8.2768  -24.9172  -50.0252 O.2       16 UNK        -0.5000 
     94 N          -7.9752  -26.5129  -51.6080 N.am      17 UNK        -0.5000 
     95 CA         -9.0480  -26.1084  -52.5154 C.3       17 UNK         0.1400 
     96 CB         -9.3571  -27.2692  -53.4730 C.3       17 UNK        -0.1800 
     97 C          -8.7154  -24.8287  -53.3063 C.2       17 UNK         0.5000 
     98 O          -9.6327  -24.0851  -53.6581 O.2       17 UNK        -0.5000 
     99 N          -7.4236  -24.5904  -53.5727 N.am      18 UNK        -0.5000 
    100 CA        -6.9305  -23.3647  -54.1977 C.3       18 UNK         0.1400 
    101 CB        -5.6024  -23.6563  -54.9133 C.3       18 UNK        -0.1800 
    102 C         -6.7859  -22.2431  -53.1529 C.2       18 UNK         0.5000 
    103 O         -6.4844  -22.5150  -51.9883 O.2       18 UNK        -0.5000 
    104 N         -6.9974  -20.9955  -53.5874 N.am      19 UNK        -0.5000 
    105 CA        -7.0357  -19.7947  -52.7489 C.3       19 UNK         0.1400 
    106 CB        -7.8556  -18.7161  -53.4806 C.3       19 UNK        -0.1800 
    107 C         -5.6332  -19.2953  -52.3393 C.2       19 UNK         0.5000 
    108 O         -5.2553  -18.1720  -52.6769 O.2       19 UNK        -0.5000 
    109 N         -4.8820  -20.1482  -51.6297 N.am      20 UNK        -0.5000 
    110 CA        -3.5522  -19.9475  -51.0319 C.3       20 UNK         0.1400 
    111 CB        -3.5818  -18.8353  -49.9676 C.3       20 UNK        -0.1800 
    112 C         -2.3894  -19.7515  -52.0247 C.2       20 UNK         0.5000 
    113 O         -1.3044  -20.2758  -51.7751 O.2       20 UNK        -0.5000 
    114 N         -2.6266  -19.0251  -53.1223 N.am      21 UNK        -0.5000 
    115 CA        -1.7038  -18.7938  -54.2313 C.3       21 UNK         0.1400 
    116 CB        -2.3677  -17.8275  -55.2267 C.3       21 UNK        -0.1800 
    117 C         -1.3215  -20.1207  -54.9260 C.2       21 UNK         0.5000 
    118 O         -2.1912  -20.7172  -55.5614 O.2       21 UNK        -0.5000 
    119 N         -0.0817  -20.6162  -54.8358 N.am      22 UNK        -0.5000 
    120 CA         1.0604  -20.1458  -54.0417 C.3       22 UNK         0.1400 
    121 C          1.6722  -21.3887  -53.3458 C.2       22 UNK         0.5000 
    122 N          1.0959  -21.8034  -52.2259 N.am      22 UNK        -0.7600 
    123 O          2.6210  -22.0008  -53.8295 O.2       22 UNK        -0.5000 
    124 C124        2.0400  -19.3194  -54.9202 C.3       23 UNK        -0.0398 
    125 S125        3.5505  -18.7350  -54.0721 S.3       23 UNK        -0.2404 
    126 C126        3.0993  -17.0438  -53.5673 C.3       23 UNK        -0.0205 
    127 H127       -3.1085  -10.9595  -45.1033 H         1 UNK         0.0600 
    128 H128       -1.6178  -11.6577  -44.4582 H         1 UNK         0.0600 
    129 H129       -2.8980  -12.7129  -45.0604 H         1 UNK         0.0600 
    130 H130       -2.3971  -13.5692  -47.0437 H         1 UNK         0.3000 
    131 H131       -1.5487  -12.0927  -49.3068 H         1 UNK         0.0600 
    132 H132       -2.8560  -14.3207  -49.2301 H         1 UNK         0.0800 
    133 H133       -1.3393  -15.1234  -48.9517 H         1 UNK         0.0800 
    134 H134       -1.7739  -16.2007  -52.5625 H         1 UNK         0.0800 
    135 H135       -2.1022  -16.5639  -50.8936 H         1 UNK         0.0800 
    136 H136        0.5211  -16.1437  -53.4358 H         1 UNK         0.1150 
    137 H137        3.6040  -17.9106  -51.0392 H         1 UNK         0.1150 
    138 H138       -0.2294  -17.0812  -49.3189 H         1 UNK         0.1150 
    139 H139        3.2744  -17.7815  -48.5478 H         1 UNK         0.0800 
    140 H140        1.6761  -17.6463  -47.8739 H         1 UNK         0.0800 
    141 H141       -0.0140  -20.1570  -49.5895 H         1 UNK         0.0800 
    142 H142       -0.1407  -19.3123  -48.0665 H         1 UNK         0.0800 
    143 H143        0.5953  -22.2669  -48.2648 H         1 UNK         0.0600 
    144 H144        0.5144  -20.5490  -46.0152 H         1 UNK         0.3000 
    145 H145       -0.0961  -23.1177  -43.5557 H         1 UNK         0.0600 
    146 H146        1.9145  -21.9946  -42.6267 H         1 UNK         0.0600 
    147 H147        2.3461  -23.0225  -43.9853 H         1 UNK         0.0600 
    148 H148        2.2692  -21.2797  -44.1975 H         1 UNK         0.0600 
    149 H149        0.1231  -20.3010  -43.2661 H         1 UNK         0.3000 
    150 H150       -3.3694  -19.5439  -43.6937 H         1 UNK         0.0600 
    151 H151       -3.0780  -20.2474  -41.3287 H         1 UNK         0.0600 
    152 H152       -2.9374  -18.5016  -41.4791 H         1 UNK         0.0600 
    153 H153       -1.4931  -19.4886  -41.2713 H         1 UNK         0.0600 
    154 H154       -1.1597  -17.8431  -43.1595 H         1 UNK         0.3000 
    155 H155       -0.1967  -17.2170  -46.5494 H         1 UNK         0.0600 
    156 H156       -1.6415  -15.5582  -44.4217 H         1 UNK         0.0600 
    157 H157       -1.9686  -15.6166  -46.1432 H         1 UNK         0.0600 
    158 H158       -0.4750  -14.8937  -45.5551 H         1 UNK         0.0600 
    159 H159        0.8319  -16.3666  -44.0102 H         1 UNK         0.3000 
    160 H160        3.2103  -19.0161  -43.6181 H         1 UNK         0.0600 
    161 H161        3.5955  -16.0648  -44.3458 H         1 UNK         0.0600 
    162 H162        4.2292  -17.4182  -45.2746 H         1 UNK         0.0600 
    163 H163        4.7997  -17.1388  -43.6370 H         1 UNK         0.0600 
    164 H164        2.6862  -16.6106  -42.1463 H         1 UNK         0.3000 
    165 H165        0.1226  -17.8587  -40.0418 H         1 UNK         0.0600 
    166 H166        1.7189  -17.1426  -38.2798 H         1 UNK         0.0600 
    167 H167        2.2298  -18.6776  -38.9651 H         1 UNK         0.0600 
    168 H168        3.0557  -17.1933  -39.4281 H         1 UNK         0.0600 
    169 H169        1.5435  -15.3632  -40.1576 H         1 UNK         0.3000 
    170 H170       -0.4305  -13.8251  -42.6999 H         1 UNK         0.0600 
    171 H171       -1.6576  -13.4436  -40.5973 H         1 UNK         0.0600 
    172 H172       -0.1568  -13.2695  -39.7016 H         1 UNK         0.0600 
    173 H173       -0.5922  -12.0881  -40.9359 H         1 UNK         0.0600 
    174 H174        1.6311  -13.1970  -42.9654 H         1 UNK         0.3000 
    175 H175        4.2316  -12.1582  -40.9716 H         1 UNK         0.0600 
    176 H176        5.8383  -13.6350  -42.1496 H         1 UNK         0.0600 
    177 H177        5.0017  -14.5335  -40.8951 H         1 UNK         0.0600 
    178 H178        4.5426  -14.7491  -42.5788 H         1 UNK         0.0600 
    179 H179        4.0444  -12.6848  -43.8087 H         1 UNK         0.3000 
    180 H180        2.0782   -9.9518  -44.6785 H         1 UNK         0.0600 
    181 H181        5.1346   -9.9045  -44.9030 H         1 UNK         0.0600 
    182 H182        4.1519   -8.6387  -44.1765 H         1 UNK         0.0600 
    183 H183        4.0026   -8.9797  -45.8915 H         1 UNK         0.0600 
    184 H184        3.7172  -11.3488  -46.4048 H         1 UNK         0.3000 
    185 H185        2.8037  -12.7475  -47.8331 H         1 UNK         0.0600 
    186 H186        3.8595  -14.5957  -46.4897 H         1 UNK         0.0600 
    187 H187        2.2641  -15.2732  -46.1698 H         1 UNK         0.0600 
    188 H188        2.8937  -15.2327  -47.8127 H         1 UNK         0.0600 
    189 H189        0.2058  -13.7516  -46.7978 H         1 UNK         0.3000 
    190 H190       -2.2169  -20.6066  -46.7340 H         1 UNK         0.3000 
    191 H191       -4.2008  -21.5304  -48.5221 H         1 UNK         0.0600 
    192 H192       -4.4594  -20.8953  -45.5402 H         1 UNK         0.0600 
    193 H193       -5.7767  -20.9833  -46.6998 H         1 UNK         0.0600 
    194 H194       -4.5626  -19.7219  -46.8475 H         1 UNK         0.0600 
    195 H195       -2.9494  -23.0570  -45.5190 H         1 UNK         0.3000 
    196 H196       -4.6135  -25.3534  -45.5897 H         1 UNK         0.0600 
    197 H197       -2.9429  -26.2896  -43.9902 H         1 UNK         0.0600 
    198 H198       -3.3699  -24.6369  -43.5713 H         1 UNK         0.0600 
    199 H199       -1.8319  -24.9767  -44.3600 H         1 UNK         0.0600 
    200 H200       -1.3790  -24.7662  -47.0209 H         1 UNK         0.3000 
    201 H201       -1.0048  -27.4034  -48.0607 H         1 UNK         0.0600 
    202 H202        0.8708  -25.8349  -47.6674 H         1 UNK         0.0600 
    203 H203        0.2468  -24.7323  -48.8915 H         1 UNK         0.0600 
    204 H204        0.8365  -26.3240  -49.3553 H         1 UNK         0.0600 
    205 H205       -2.2610  -24.3843  -49.5516 H         1 UNK         0.3000 
    206 H206       -2.6717  -25.4643  -52.1606 H         1 UNK         0.0600 
    207 H207       -2.3846  -23.0343  -51.6364 H         1 UNK         0.0600 
    208 H208       -3.8648  -23.3155  -52.5266 H         1 UNK         0.0600 
    209 H209       -3.9381  -23.0432  -50.7932 H         1 UNK         0.0600 
    210 H210       -4.7499  -25.2515  -49.3025 H         1 UNK         0.3000 
    211 H211       -6.6131  -26.1820  -48.6434 H         1 UNK         0.0600 
    212 H212       -6.0122  -28.2911  -50.7892 H         1 UNK         0.0600 
    213 H213       -7.2146  -28.4636  -49.5139 H         1 UNK         0.0600 
    214 H214       -5.5143  -28.3111  -49.1038 H         1 UNK         0.0600 
    215 H215       -7.3778  -27.2663  -51.9173 H         1 UNK         0.3000 
    216 H216       -9.9429  -25.9084  -51.9223 H         1 UNK         0.0600 
    217 H217      -10.1724  -27.0103  -54.1499 H         1 UNK         0.0600 
    218 H218       -9.6613  -28.1618  -52.9260 H         1 UNK         0.0600 
    219 H219       -8.4918  -27.5276  -54.0847 H         1 UNK         0.0600 
    220 H220       -6.7234  -25.2150  -53.1869 H         1 UNK         0.3000 
    221 H221       -7.6478  -23.0338  -54.9521 H         1 UNK         0.0600 
    222 H222       -4.9017  -24.1913  -54.2749 H         1 UNK         0.0600 
    223 H223       -5.7685  -24.2726  -55.7969 H         1 UNK         0.0600 
    224 H224       -5.1168  -22.7377  -55.2460 H         1 UNK         0.0600 
    225 H225       -7.1962  -20.8517  -54.5670 H         1 UNK         0.3000 
    226 H226       -7.5664  -20.0355  -51.8251 H         1 UNK         0.0600 
    227 H227       -8.8666  -19.0649  -53.6921 H         1 UNK         0.0600 
    228 H228       -7.9471  -17.8142  -52.8738 H         1 UNK         0.0600 
    229 H229       -7.3939  -18.4308  -54.4267 H         1 UNK         0.0600 
    230 H230       -5.2873  -21.0696  -51.4856 H         1 UNK         0.3000 
    231 H231       -3.3231  -20.8727  -50.5082 H         1 UNK         0.0600 
    232 H232       -2.6030  -18.7080  -49.5028 H         1 UNK         0.0600 
    233 H233       -4.2877  -19.0742  -49.1735 H         1 UNK         0.0600 
    234 H234       -3.8795  -17.8758  -50.3885 H         1 UNK         0.0600 
    235 H235       -3.5590  -18.6304  -53.2139 H         1 UNK         0.3000 
    236 H236       -0.8285  -18.2800  -53.8462 H         1 UNK         0.0600 
    237 H237       -3.2995  -18.2320  -55.6242 H         1 UNK         0.0600 
    238 H238       -2.5963  -16.8701  -54.7587 H         1 UNK         0.0600 
    239 H239       -1.7086  -17.6261  -56.0721 H         1 UNK         0.0600 
    240 H240        0.0918  -21.5023  -55.2879 H         1 UNK         0.3000 
    241 H241        0.7393  -19.5019  -53.2251 H         1 UNK         0.0600 
    242 H242        1.4498  -22.6168  -51.7502 H         1 UNK         0.3800 
    243 H243        0.2637  -21.3280  -51.8840 H         1 UNK         0.3800 
    244 H244        1.5185  -18.4592  -55.3412 H         1 UNK         0.0800 
    245 H245        2.3588  -19.9170  -55.7756 H         1 UNK         0.0800 
    246 H246        4.0093  -16.5050  -53.2997 H         1 UNK         0.0800 
    247 H247        2.6670  -16.5087  -54.4142 H         1 UNK         0.0800 
@<TRIPOS>BOND
     1    1    2 1    
     2    1  127 1    
     3    1  128 1    
     4    1  129 1    
     5    2    3 2    
     6    2    4 am   BACKBONE|DICT|INTERRES
     7    4    5 1    
     8    4  130 1    
     9    5    6 1    
    10    5   65 1    
    11    5  131 1    
    12    6    7 1    
    13    6  132 1    
    14    6  133 1    
    15    7    8 1    
    16    8    9 1    
    17    8  134 1    
    18    8  135 1    
    19    9   10 ar   
    20    9   14 ar   
    21   10   11 ar   
    22   10  136 1    
    23   11   12 ar   
    24   11  126 1    
    25   12   13 ar   
    26   12  137 1    
    27   13   14 ar   
    28   13   15 1    
    29   14  138 1    
    30   15   16 1    
    31   15  139 1    
    32   15  140 1    
    33   16   17 1    
    34   17   18 1    
    35   17  141 1    
    36   17  142 1    
    37   18   19 1    
    38   18   67 1    
    39   18  143 1    
    40   19   20 am   BACKBONE|DICT|INTERRES
    41   19  144 1    
    42   20   21 2    
    43   20   22 1    
    44   22   23 1    
    45   22   24 1    
    46   22  145 1    
    47   23  146 1    
    48   23  147 1    
    49   23  148 1    
    50   24   25 am   BACKBONE|DICT|INTERRES
    51   24  149 1    
    52   25   26 2    
    53   25   27 1    
    54   27   28 1    
    55   27   29 1    
    56   27  150 1    
    57   28  151 1    
    58   28  152 1    
    59   28  153 1    
    60   29   30 am   BACKBONE|DICT|INTERRES
    61   29  154 1    
    62   30   31 2    
    63   30   32 1    
    64   32   33 1    
    65   32   34 1    
    66   32  155 1    
    67   33  156 1    
    68   33  157 1    
    69   33  158 1    
    70   34   35 am   BACKBONE|DICT|INTERRES
    71   34  159 1    
    72   35   36 2    
    73   35   37 1    
    74   37   38 1    
    75   37   39 1    
    76   37  160 1    
    77   38  161 1    
    78   38  162 1    
    79   38  163 1    
    80   39   40 am   BACKBONE|DICT|INTERRES
    81   39  164 1    
    82   40   41 2    
    83   40   42 1    
    84   42   43 1    
    85   42   44 1    
    86   42  165 1    
    87   43  166 1    
    88   43  167 1    
    89   43  168 1    
    90   44   45 am   BACKBONE|DICT|INTERRES
    91   44  169 1    
    92   45   46 2    
    93   45   47 1    
    94   47   48 1    
    95   47   49 1    
    96   47  170 1    
    97   48  171 1    
    98   48  172 1    
    99   48  173 1    
   100   49   50 am   BACKBONE|DICT|INTERRES
   101   49  174 1    
   102   50   51 2    
   103   50   52 1    
   104   52   53 1    
   105   52   54 1    
   106   52  175 1    
   107   53  176 1    
   108   53  177 1    
   109   53  178 1    
   110   54   55 am   BACKBONE|DICT|INTERRES
   111   54  179 1    
   112   55   56 2    
   113   55   57 1    
   114   57   58 1    
   115   57   59 1    
   116   57  180 1    
   117   58  181 1    
   118   58  182 1    
   119   58  183 1    
   120   59   60 am   BACKBONE|DICT|INTERRES
   121   59  184 1    
   122   60   61 2    
   123   60   62 1    
   124   62   63 1    
   125   62   64 1    
   126   62  185 1    
   127   63  186 1    
   128   63  187 1    
   129   63  188 1    
   130   64   65 am   BACKBONE|DICT|INTERRES
   131   64  189 1    
   132   65   66 2    
   133   67   68 2    
   134   67   69 am   BACKBONE|DICT|INTERRES
   135   69   70 1    
   136   69  190 1    
   137   70   71 1    
   138   70   72 1    
   139   70  191 1    
   140   71  192 1    
   141   71  193 1    
   142   71  194 1    
   143   72   73 2    
   144   72   74 am   BACKBONE|DICT|INTERRES
   145   74   75 1    
   146   74  195 1    
   147   75   76 1    
   148   75   77 1    
   149   75  196 1    
   150   76  197 1    
   151   76  198 1    
   152   76  199 1    
   153   77   78 2    
   154   77   79 am   BACKBONE|DICT|INTERRES
   155   79   80 1    
   156   79  200 1    
   157   80   81 1    
   158   80   82 1    
   159   80  201 1    
   160   81  202 1    
   161   81  203 1    
   162   81  204 1    
   163   82   83 2    
   164   82   84 am   BACKBONE|DICT|INTERRES
   165   84   85 1    
   166   84  205 1    
   167   85   86 1    
   168   85   87 1    
   169   85  206 1    
   170   86  207 1    
   171   86  208 1    
   172   86  209 1    
   173   87   88 2    
   174   87   89 am   BACKBONE|DICT|INTERRES
   175   89   90 1    
   176   89  210 1    
   177   90   91 1    
   178   90   92 1    
   179   90  211 1    
   180   91  212 1    
   181   91  213 1    
   182   91  214 1    
   183   92   93 2    
   184   92   94 am   BACKBONE|DICT|INTERRES
   185   94   95 1    
   186   94  215 1    
   187   95   96 1    
   188   95   97 1    
   189   95  216 1    
   190   96  217 1    
   191   96  218 1    
   192   96  219 1    
   193   97   98 2    
   194   97   99 am   BACKBONE|DICT|INTERRES
   195   99  100 1    
   196   99  220 1    
   197  100  101 1    
   198  100  102 1    
   199  100  221 1    
   200  101  222 1    
   201  101  223 1    
   202  101  224 1    
   203  102  103 2    
   204  102  104 am   BACKBONE|DICT|INTERRES
   205  104  105 1    
   206  104  225 1    
   207  105  106 1    
   208  105  107 1    
   209  105  226 1    
   210  106  227 1    
   211  106  228 1    
   212  106  229 1    
   213  107  108 2    
   214  107  109 am   BACKBONE|DICT|INTERRES
   215  109  110 1    
   216  109  230 1    
   217  110  111 1    
   218  110  112 1    
   219  110  231 1    
   220  111  232 1    
   221  111  233 1    
   222  111  234 1    
   223  112  113 2    
   224  112  114 am   BACKBONE|DICT|INTERRES
   225  114  115 1    
   226  114  235 1    
   227  115  116 1    
   228  115  117 1    
   229  115  236 1    
   230  116  237 1    
   231  116  238 1    
   232  116  239 1    
   233  117  118 2    
   234  117  119 am   BACKBONE|DICT|INTERRES
   235  119  120 1    
   236  119  240 1    
   237  120  121 1    
   238  120  124 1    
   239  120  241 1    
   240  121  122 am   BACKBONE|DICT|INTERRES
   241  121  123 2    
   242  122  242 1    
   243  122  243 1    
   244  124  125 1    
   245  124  244 1    
   246  124  245 1    
   247  125  126 1    
   248  126  246 1    
   249  126  247 1    
@<TRIPOS>SUBSTRUCTURE
     1 UNK         1 GROUP             0       ****    0 ROOT    
