@<TRIPOS>MOLECULE
3R540
247   249    1
SMALL
USER_CHARGES


@<TRIPOS>ATOM
      1 CA         -1.6335  -14.6167  -50.8848 C.3       0 UNK        -0.1800 
      2 C          -0.5381  -13.6774  -50.4038 C.2       0 UNK         0.5000 
      3 O          -0.7531  -12.4662  -50.3543 O.2       0 UNK        -0.5000 
      4 N           0.6315  -14.2298  -50.0512 N.am      1 UNK        -0.5000 
      5 CA          1.7783  -13.4861  -49.5124 C.3       1 UNK         0.1400 
      6 C6          3.0709  -14.3365  -49.4426 C.3       23 UNK        -0.0398 
      7 S7          3.6858  -14.8186  -51.0910 S.3       23 UNK        -0.2404 
      8 C8          3.5000  -16.6301  -51.0603 C.3       23 UNK        -0.0205 
      9 C9          2.0493  -17.0548  -51.2253 C.ar      23 UNK        -0.0193 
     10 C10         1.4392  -16.9654  -52.4777 C.ar      23 UNK        -0.1150 
     11 C11         0.1073  -17.3463  -52.6471 C.ar      23 UNK        -0.0193 
     12 C12        -0.6084  -17.8405  -51.5523 C.ar      23 UNK        -0.1150 
     13 C13        -0.0176  -17.9351  -50.2873 C.ar      23 UNK        -0.0193 
     14 C14         1.3184  -17.5345  -50.1347 C.ar      23 UNK        -0.1150 
     15 C15        -0.8793  -18.4522  -49.1304 C.3       23 UNK        -0.0205 
     16 S16        -0.0588  -18.5868  -47.5024 S.3       23 UNK        -0.2404 
     17 C17         0.9899  -20.0626  -47.7459 C.3       23 UNK        -0.0398 
     18 CA          0.5028  -21.3672  -47.0656 C.3       11 UNK         0.1400 
     19 N           0.6587  -21.3802  -45.6077 N.am      11 UNK        -0.5000 
     20 C           0.6451  -22.5127  -44.8863 C.2       10 UNK         0.5000 
     21 O           0.5003  -23.6314  -45.3805 O.2       10 UNK        -0.5000 
     22 CA          0.7801  -22.3892  -43.3605 C.3       10 UNK         0.1400 
     23 CB          2.2326  -22.0911  -42.9604 C.3       10 UNK        -0.1800 
     24 N          -0.1176  -21.3889  -42.7867 N.am      10 UNK        -0.5000 
     25 C          -1.4561  -21.4518  -42.8348 C.2       9 UNK         0.5000 
     26 O          -2.0806  -22.3680  -43.3699 O.2       9 UNK        -0.5000 
     27 CA         -2.2288  -20.2762  -42.2103 C.3       9 UNK         0.1400 
     28 CB         -2.2852  -20.4066  -40.6810 C.3       9 UNK        -0.1800 
     29 N          -1.6635  -18.9775  -42.5742 N.am      9 UNK        -0.5000 
     30 C          -1.6119  -18.5034  -43.8275 C.2       8 UNK         0.5000 
     31 O          -2.0822  -19.0908  -44.8004 O.2       8 UNK        -0.5000 
     32 CA         -0.8670  -17.1732  -44.0316 C.3       8 UNK         0.1400 
     33 CB         -1.7349  -15.9872  -43.5817 C.3       8 UNK        -0.1800 
     34 N           0.4138  -17.1436  -43.3265 N.am      8 UNK        -0.5000 
     35 C           1.4357  -17.9857  -43.5420 C.2       7 UNK         0.5000 
     36 O           1.4419  -18.8604  -44.4075 O.2       7 UNK        -0.5000 
     37 CA          2.6361  -17.8611  -42.5892 C.3       7 UNK         0.1400 
     38 CB          3.5632  -16.7132  -43.0183 C.3       7 UNK        -0.1800 
     39 N           2.2142  -17.6714  -41.2001 N.am      7 UNK        -0.5000 
     40 C           1.5981  -18.6080  -40.4637 C.2       6 UNK         0.5000 
     41 O           1.3423  -19.7396  -40.8719 O.2       6 UNK        -0.5000 
     42 CA          1.1610  -18.2001  -39.0457 C.3       6 UNK         0.1400 
     43 CB          2.3335  -18.3205  -38.0610 C.3       6 UNK        -0.1800 
     44 N           0.6230  -16.8409  -38.9969 N.am      6 UNK        -0.5000 
     45 C          -0.5247  -16.4590  -39.5750 C.2       5 UNK         0.5000 
     46 O          -1.2768  -17.2250  -40.1775 O.2       5 UNK        -0.5000 
     47 CA         -0.8496  -14.9534  -39.5179 C.3       5 UNK         0.1400 
     48 CB         -1.5436  -14.5971  -38.1949 C.3       5 UNK        -0.1800 
     49 N           0.3361  -14.1061  -39.6942 N.am      5 UNK        -0.5000 
     50 C           1.0904  -14.1006  -40.8000 C.2       4 UNK         0.5000 
     51 O           0.8544  -14.8053  -41.7865 O.2       4 UNK        -0.5000 
     52 CA          2.3363  -13.2049  -40.7977 C.3       4 UNK         0.1400 
     53 CB          3.4576  -13.8172  -39.9390 C.3       4 UNK        -0.1800 
     54 N           2.7731  -13.0963  -42.1808 N.am      4 UNK        -0.5000 
     55 C           3.5444  -12.1540  -42.7257 C.2       3 UNK         0.5000 
     56 O           4.0818  -11.2495  -42.0855 O.2       3 UNK        -0.5000 
     57 CA          3.7357  -12.2338  -44.2556 C.3       3 UNK         0.1400 
     58 CB          5.0740  -12.9098  -44.5917 C.3       3 UNK        -0.1800 
     59 N           2.6600  -12.9438  -44.9615 N.am      3 UNK        -0.5000 
     60 C           1.3835  -12.5372  -45.0304 C.2       2 UNK         0.5000 
     61 O           0.9616  -11.5211  -44.4749 O.2       2 UNK        -0.5000 
     62 CA          0.4367  -13.4137  -45.8812 C.3       2 UNK         0.1400 
     63 CB         -0.9828  -12.8243  -45.9990 C.3       2 UNK        -0.1800 
     64 N           0.9500  -13.7323  -47.2202 N.am      2 UNK        -0.5000 
     65 C           1.4528  -12.8812  -48.1315 C.2       1 UNK         0.5000 
     66 O           1.6375  -11.6785  -47.9407 O.2       1 UNK        -0.5000 
     67 C          -0.9118  -21.7999  -47.5011 C.2       11 UNK         0.5000 
     68 O          -1.0331  -22.5312  -48.4834 O.2       11 UNK        -0.5000 
     69 N          -1.9450  -21.4007  -46.7415 N.am      12 UNK        -0.5000 
     70 CA         -3.3285  -21.8279  -46.9492 C.3       12 UNK         0.1400 
     71 CB         -4.2762  -21.0490  -46.0268 C.3       12 UNK        -0.1800 
     72 C          -3.5136  -23.3438  -46.7779 C.2       12 UNK         0.5000 
     73 O          -4.1671  -23.9665  -47.6135 O.2       12 UNK        -0.5000 
     74 N          -2.9026  -23.9141  -45.7305 N.am      13 UNK        -0.5000 
     75 CA         -2.8894  -25.3523  -45.4669 C.3       13 UNK         0.1400 
     76 CB         -2.3083  -25.6151  -44.0694 C.3       13 UNK        -0.1800 
     77 C          -2.1201  -26.1468  -46.5381 C.2       13 UNK         0.5000 
     78 O          -2.6003  -27.1945  -46.9713 O.2       13 UNK        -0.5000 
     79 N          -0.9553  -25.6303  -46.9555 N.am      14 UNK        -0.5000 
     80 CA         -0.0937  -26.2389  -47.9701 C.3       14 UNK         0.1400 
     81 CB          1.2667  -25.5251  -47.9860 C.3       14 UNK        -0.1800 
     82 C          -0.7229  -26.2397  -49.3748 C.2       14 UNK         0.5000 
     83 O          -0.6819  -27.2641  -50.0574 O.2       14 UNK        -0.5000 
     84 N          -1.2961  -25.0984  -49.7795 N.am      15 UNK        -0.5000 
     85 CA         -1.9468  -24.9207  -51.0790 C.3       15 UNK         0.1400 
     86 CB         -1.9990  -23.4219  -51.4032 C.3       15 UNK        -0.1800 
     87 C          -3.3615  -25.5257  -51.1421 C.2       15 UNK         0.5000 
     88 O          -3.8697  -25.7491  -52.2412 O.2       15 UNK        -0.5000 
     89 N          -3.9870  -25.7368  -49.9749 N.am      16 UNK        -0.5000 
     90 CA         -5.3433  -26.2378  -49.7141 C.3       16 UNK         0.1400 
     91 CB         -5.5633  -27.6376  -50.3178 C.3       16 UNK        -0.1800 
     92 C          -6.4591  -25.2585  -50.1290 C.2       16 UNK         0.5000 
     93 O          -7.3674  -25.0028  -49.3381 O.2       16 UNK        -0.5000 
     94 N          -6.3598  -24.7080  -51.3440 N.am      17 UNK        -0.5000 
     95 CA         -7.2488  -23.6809  -51.8909 C.3       17 UNK         0.1400 
     96 CB         -7.3873  -23.9115  -53.4046 C.3       17 UNK        -0.1800 
     97 C          -6.7517  -22.2499  -51.5944 C.2       17 UNK         0.5000 
     98 O          -7.4092  -21.2897  -51.9979 O.2       17 UNK        -0.5000 
     99 N          -5.6010  -22.1253  -50.9145 N.am      18 UNK        -0.5000 
    100 CA        -4.9000  -20.8806  -50.5891 C.3       18 UNK         0.1400 
    101 CB        -5.6917  -20.0637  -49.5432 C.3       18 UNK        -0.1800 
    102 C         -4.5155  -20.0987  -51.8609 C.2       18 UNK         0.5000 
    103 O         -3.9722  -20.6980  -52.7897 O.2       18 UNK        -0.5000 
    104 N         -4.8045  -18.7915  -51.8995 N.am      19 UNK        -0.5000 
    105 CA        -4.4715  -17.8908  -53.0056 C.3       19 UNK         0.1400 
    106 CB        -4.7956  -16.4470  -52.5957 C.3       19 UNK        -0.1800 
    107 C         -5.1310  -18.2453  -54.3529 C.2       19 UNK         0.5000 
    108 O         -4.6148  -17.8375  -55.3928 O.2       19 UNK        -0.5000 
    109 N         -6.2212  -19.0264  -54.3313 N.am      20 UNK        -0.5000 
    110 CA        -6.8764  -19.5477  -55.5328 C.3       20 UNK         0.1400 
    111 CB        -8.2490  -20.1258  -55.1615 C.3       20 UNK        -0.1800 
    112 C         -6.0256  -20.5918  -56.2851 C.2       20 UNK         0.5000 
    113 O         -6.2054  -20.7491  -57.4933 O.2       20 UNK        -0.5000 
    114 N         -5.0910  -21.2578  -55.5869 N.am      21 UNK        -0.5000 
    115 CA        -4.1282  -22.1872  -56.1865 C.3       21 UNK         0.1400 
    116 CB        -3.4616  -23.0181  -55.0807 C.3       21 UNK        -0.1800 
    117 C         -3.0477  -21.4703  -57.0204 C.2       21 UNK         0.5000 
    118 O         -2.4576  -22.0903  -57.9059 O.2       21 UNK        -0.5000 
    119 N         -2.8077  -20.1866  -56.7237 N.am      22 UNK        -0.5000 
    120 CA        -1.8308  -19.3266  -57.4083 C.3       22 UNK         0.1400 
    121 C         -2.3177  -18.7757  -58.7823 C.2       22 UNK         0.5000 
    122 N         -3.5629  -18.9924  -59.1914 N.am      22 UNK        -0.7600 
    123 O         -1.5448  -18.1463  -59.4996 O.2       22 UNK        -0.5000 
    124 C124       -1.3377  -18.1755  -56.4930 C.3       23 UNK        -0.0398 
    125 S125       -0.6395  -18.7588  -54.9096 S.3       23 UNK        -0.2404 
    126 C126       -0.5614  -17.1855  -54.0037 C.3       23 UNK        -0.0205 
    127 H127       -1.4544  -14.9103  -51.9187 H         1 UNK         0.0600 
    128 H128       -1.6769  -15.5116  -50.2655 H         1 UNK         0.0600 
    129 H129       -2.6075  -14.1298  -50.8335 H         1 UNK         0.0600 
    130 H130        0.7634  -15.2254  -50.1675 H         1 UNK         0.3000 
    131 H131        1.9693  -12.6497  -50.1887 H         1 UNK         0.0600 
    132 H132        2.9212  -15.2238  -48.8257 H         1 UNK         0.0800 
    133 H133        3.8711  -13.7697  -48.9626 H         1 UNK         0.0800 
    134 H134        3.9263  -17.0318  -50.1397 H         1 UNK         0.0800 
    135 H135        4.0885  -17.0549  -51.8749 H         1 UNK         0.0800 
    136 H136        2.0015  -16.5838  -53.3186 H         1 UNK         0.1150 
    137 H137       -1.6384  -18.1394  -51.6813 H         1 UNK         0.1150 
    138 H138        1.8046  -17.5912  -49.1725 H         1 UNK         0.1150 
    139 H139       -1.7316  -17.7816  -49.0139 H         1 UNK         0.0800 
    140 H140       -1.2932  -19.4253  -49.3992 H         1 UNK         0.0800 
    141 H141        1.9888  -19.8190  -47.3817 H         1 UNK         0.0800 
    142 H142        1.1108  -20.2378  -48.8162 H         1 UNK         0.0800 
    143 H143        1.1724  -22.1454  -47.4386 H         1 UNK         0.0600 
    144 H144        0.7918  -20.4822  -45.1469 H         1 UNK         0.3000 
    145 H145        0.5084  -23.3552  -42.9297 H         1 UNK         0.0600 
    146 H146        2.3544  -22.1100  -41.8774 H         1 UNK         0.0600 
    147 H147        2.9128  -22.8355  -43.3760 H         1 UNK         0.0600 
    148 H148        2.5578  -21.1141  -43.3171 H         1 UNK         0.0600 
    149 H149        0.3215  -20.6206  -42.2885 H         1 UNK         0.3000 
    150 H150       -3.2516  -20.3126  -42.5909 H         1 UNK         0.0600 
    151 H151       -2.7174  -21.3636  -40.3862 H         1 UNK         0.0600 
    152 H152       -2.9014  -19.6217  -40.2419 H         1 UNK         0.0600 
    153 H153       -1.2934  -20.3412  -40.2330 H         1 UNK         0.0600 
    154 H154       -1.2909  -18.4126  -41.8179 H         1 UNK         0.3000 
    155 H155       -0.6614  -17.0566  -45.0962 H         1 UNK         0.0600 
    156 H156       -2.0017  -16.0583  -42.5274 H         1 UNK         0.0600 
    157 H157       -2.6632  -15.9472  -44.1527 H         1 UNK         0.0600 
    158 H158       -1.2221  -15.0374  -43.7268 H         1 UNK         0.0600 
    159 H159        0.5194  -16.4246  -42.6152 H         1 UNK         0.3000 
    160 H160        3.2054  -18.7913  -42.6438 H         1 UNK         0.0600 
    161 H161        4.4247  -16.6303  -42.3556 H         1 UNK         0.0600 
    162 H162        3.0479  -15.7544  -43.0210 H         1 UNK         0.0600 
    163 H163        3.9439  -16.8798  -44.0267 H         1 UNK         0.0600 
    164 H164        2.3443  -16.7534  -40.8048 H         1 UNK         0.3000 
    165 H165        0.3755  -18.8891  -38.7277 H         1 UNK         0.0600 
    166 H166        2.0146  -18.1067  -37.0407 H         1 UNK         0.0600 
    167 H167        2.7448  -19.3308  -38.0667 H         1 UNK         0.0600 
    168 H168        3.1440  -17.6344  -38.3105 H         1 UNK         0.0600 
    169 H169        1.1780  -16.1450  -38.5215 H         1 UNK         0.3000 
    170 H170       -1.5409  -14.7352  -40.3346 H         1 UNK         0.0600 
    171 H171       -2.4385  -15.2035  -38.0485 H         1 UNK         0.0600 
    172 H172       -0.8900  -14.7637  -37.3378 H         1 UNK         0.0600 
    173 H173       -1.8551  -13.5525  -38.1821 H         1 UNK         0.0600 
    174 H174        0.5854  -13.5065  -38.9206 H         1 UNK         0.3000 
    175 H175        2.0630  -12.2175  -40.4206 H         1 UNK         0.0600 
    176 H176        3.7485  -14.8041  -40.3007 H         1 UNK         0.0600 
    177 H177        4.3470  -13.1870  -39.9437 H         1 UNK         0.0600 
    178 H178        3.1456  -13.9244  -38.8997 H         1 UNK         0.0600 
    179 H179        2.3222  -13.7673  -42.7897 H         1 UNK         0.3000 
    180 H180        3.7636  -11.2099  -44.6340 H         1 UNK         0.0600 
    181 H181        5.0950  -13.9479  -44.2571 H         1 UNK         0.0600 
    182 H182        5.9051  -12.3931  -44.1098 H         1 UNK         0.0600 
    183 H183        5.2647  -12.8975  -45.6650 H         1 UNK         0.0600 
    184 H184        2.9263  -13.7777  -45.4638 H         1 UNK         0.3000 
    185 H185        0.3565  -14.3646  -45.3533 H         1 UNK         0.0600 
    186 H186       -1.4239  -12.6592  -45.0152 H         1 UNK         0.0600 
    187 H187       -0.9780  -11.8685  -46.5242 H         1 UNK         0.0600 
    188 H188       -1.6454  -13.4997  -46.5404 H         1 UNK         0.0600 
    189 H189        0.8393  -14.6961  -47.5006 H         1 UNK         0.3000 
    190 H190       -1.7768  -20.7625  -45.9698 H         1 UNK         0.3000 
    191 H191       -3.5921  -21.5844  -47.9766 H         1 UNK         0.0600 
    192 H192       -4.0254  -21.1930  -44.9757 H         1 UNK         0.0600 
    193 H193       -5.3093  -21.3699  -46.1657 H         1 UNK         0.0600 
    194 H194       -4.2383  -19.9803  -46.2380 H         1 UNK         0.0600 
    195 H195       -2.4189  -23.3236  -45.0597 H         1 UNK         0.3000 
    196 H196       -3.9237  -25.7025  -45.4738 H         1 UNK         0.0600 
    197 H197       -2.2955  -26.6823  -43.8448 H         1 UNK         0.0600 
    198 H198       -2.9044  -25.1273  -43.2979 H         1 UNK         0.0600 
    199 H199       -1.2854  -25.2474  -43.9819 H         1 UNK         0.0600 
    200 H200       -0.6051  -24.7881  -46.5075 H         1 UNK         0.3000 
    201 H201        0.0762  -27.2786  -47.6827 H         1 UNK         0.0600 
    202 H202        1.7575  -25.5908  -47.0148 H         1 UNK         0.0600 
    203 H203        1.1640  -24.4695  -48.2382 H         1 UNK         0.0600 
    204 H204        1.9362  -25.9753  -48.7200 H         1 UNK         0.0600 
    205 H205       -1.2535  -24.2783  -49.1784 H         1 UNK         0.3000 
    206 H206       -1.3456  -25.4125  -51.8466 H         1 UNK         0.0600 
    207 H207       -0.9984  -22.9945  -51.4681 H         1 UNK         0.0600 
    208 H208       -2.4948  -23.2408  -52.3553 H         1 UNK         0.0600 
    209 H209       -2.5479  -22.8724  -50.6409 H         1 UNK         0.0600 
    210 H210       -3.4995  -25.4367  -49.1395 H         1 UNK         0.3000 
    211 H211       -5.4067  -26.3405  -48.6295 H         1 UNK         0.0600 
    212 H212       -5.5473  -27.6234  -51.4077 H         1 UNK         0.0600 
    213 H213       -6.5294  -28.0421  -50.0137 H         1 UNK         0.0600 
    214 H214       -4.7973  -28.3355  -49.9795 H         1 UNK         0.0600 
    215 H215       -5.5739  -24.9955  -51.9223 H         1 UNK         0.3000 
    216 H216       -8.2394  -23.7804  -51.4427 H         1 UNK         0.0600 
    217 H217       -8.1348  -23.2453  -53.8348 H         1 UNK         0.0600 
    218 H218       -7.7057  -24.9314  -53.6211 H         1 UNK         0.0600 
    219 H219       -6.4486  -23.7350  -53.9288 H         1 UNK         0.0600 
    220 H220       -5.1365  -22.9779  -50.6407 H         1 UNK         0.3000 
    221 H221       -3.9536  -21.1660  -50.1346 H         1 UNK         0.0600 
    222 H222       -6.6301  -19.6791  -49.9444 H         1 UNK         0.0600 
    223 H223       -5.9362  -20.6777  -48.6764 H         1 UNK         0.0600 
    224 H224       -5.1093  -19.2171  -49.1774 H         1 UNK         0.0600 
    225 H225       -5.2804  -18.3788  -51.1106 H         1 UNK         0.3000 
    226 H226       -3.3964  -17.9659  -53.1655 H         1 UNK         0.0600 
    227 H227       -5.8596  -16.3159  -52.3952 H         1 UNK         0.0600 
    228 H228       -4.2449  -16.1580  -51.7004 H         1 UNK         0.0600 
    229 H229       -4.5201  -15.7450  -53.3841 H         1 UNK         0.0600 
    230 H230       -6.5758  -19.3501  -53.4411 H         1 UNK         0.3000 
    231 H231       -7.0403  -18.7105  -56.2147 H         1 UNK         0.0600 
    232 H232       -8.8710  -19.3820  -54.6634 H         1 UNK         0.0600 
    233 H233       -8.1569  -20.9848  -54.4992 H         1 UNK         0.0600 
    234 H234       -8.7863  -20.4562  -56.0514 H         1 UNK         0.0600 
    235 H235       -4.9623  -21.0509  -54.6021 H         1 UNK         0.3000 
    236 H236       -4.6711  -22.8669  -56.8466 H         1 UNK         0.0600 
    237 H237       -2.8490  -23.8130  -55.5075 H         1 UNK         0.0600 
    238 H238       -2.8067  -22.3996  -54.4669 H         1 UNK         0.0600 
    239 H239       -4.1936  -23.4886  -54.4257 H         1 UNK         0.0600 
    240 H240       -3.3513  -19.7431  -55.9967 H         1 UNK         0.3000 
    241 H241       -0.9595  -19.9434  -57.6370 H         1 UNK         0.0600 
    242 H242       -3.8607  -18.6340  -60.0852 H         1 UNK         0.3800 
    243 H243       -4.2097  -19.5140  -58.6193 H         1 UNK         0.3800 
    244 H244       -0.5652  -17.5932  -56.9983 H         1 UNK         0.0800 
    245 H245       -2.1542  -17.4824  -56.2861 H         1 UNK         0.0800 
    246 H246       -0.0163  -16.4560  -54.6050 H         1 UNK         0.0800 
    247 H247       -1.5648  -16.7794  -53.8761 H         1 UNK         0.0800 
@<TRIPOS>BOND
     1    1    2 1    
     2    1  127 1    
     3    1  128 1    
     4    1  129 1    
     5    2    3 2    
     6    2    4 am   BACKBONE|DICT|INTERRES
     7    4    5 1    
     8    4  130 1    
     9    5    6 1    
    10    5   65 1    
    11    5  131 1    
    12    6    7 1    
    13    6  132 1    
    14    6  133 1    
    15    7    8 1    
    16    8    9 1    
    17    8  134 1    
    18    8  135 1    
    19    9   10 ar   
    20    9   14 ar   
    21   10   11 ar   
    22   10  136 1    
    23   11   12 ar   
    24   11  126 1    
    25   12   13 ar   
    26   12  137 1    
    27   13   14 ar   
    28   13   15 1    
    29   14  138 1    
    30   15   16 1    
    31   15  139 1    
    32   15  140 1    
    33   16   17 1    
    34   17   18 1    
    35   17  141 1    
    36   17  142 1    
    37   18   19 1    
    38   18   67 1    
    39   18  143 1    
    40   19   20 am   BACKBONE|DICT|INTERRES
    41   19  144 1    
    42   20   21 2    
    43   20   22 1    
    44   22   23 1    
    45   22   24 1    
    46   22  145 1    
    47   23  146 1    
    48   23  147 1    
    49   23  148 1    
    50   24   25 am   BACKBONE|DICT|INTERRES
    51   24  149 1    
    52   25   26 2    
    53   25   27 1    
    54   27   28 1    
    55   27   29 1    
    56   27  150 1    
    57   28  151 1    
    58   28  152 1    
    59   28  153 1    
    60   29   30 am   BACKBONE|DICT|INTERRES
    61   29  154 1    
    62   30   31 2    
    63   30   32 1    
    64   32   33 1    
    65   32   34 1    
    66   32  155 1    
    67   33  156 1    
    68   33  157 1    
    69   33  158 1    
    70   34   35 am   BACKBONE|DICT|INTERRES
    71   34  159 1    
    72   35   36 2    
    73   35   37 1    
    74   37   38 1    
    75   37   39 1    
    76   37  160 1    
    77   38  161 1    
    78   38  162 1    
    79   38  163 1    
    80   39   40 am   BACKBONE|DICT|INTERRES
    81   39  164 1    
    82   40   41 2    
    83   40   42 1    
    84   42   43 1    
    85   42   44 1    
    86   42  165 1    
    87   43  166 1    
    88   43  167 1    
    89   43  168 1    
    90   44   45 am   BACKBONE|DICT|INTERRES
    91   44  169 1    
    92   45   46 2    
    93   45   47 1    
    94   47   48 1    
    95   47   49 1    
    96   47  170 1    
    97   48  171 1    
    98   48  172 1    
    99   48  173 1    
   100   49   50 am   BACKBONE|DICT|INTERRES
   101   49  174 1    
   102   50   51 2    
   103   50   52 1    
   104   52   53 1    
   105   52   54 1    
   106   52  175 1    
   107   53  176 1    
   108   53  177 1    
   109   53  178 1    
   110   54   55 am   BACKBONE|DICT|INTERRES
   111   54  179 1    
   112   55   56 2    
   113   55   57 1    
   114   57   58 1    
   115   57   59 1    
   116   57  180 1    
   117   58  181 1    
   118   58  182 1    
   119   58  183 1    
   120   59   60 am   BACKBONE|DICT|INTERRES
   121   59  184 1    
   122   60   61 2    
   123   60   62 1    
   124   62   63 1    
   125   62   64 1    
   126   62  185 1    
   127   63  186 1    
   128   63  187 1    
   129   63  188 1    
   130   64   65 am   BACKBONE|DICT|INTERRES
   131   64  189 1    
   132   65   66 2    
   133   67   68 2    
   134   67   69 am   BACKBONE|DICT|INTERRES
   135   69   70 1    
   136   69  190 1    
   137   70   71 1    
   138   70   72 1    
   139   70  191 1    
   140   71  192 1    
   141   71  193 1    
   142   71  194 1    
   143   72   73 2    
   144   72   74 am   BACKBONE|DICT|INTERRES
   145   74   75 1    
   146   74  195 1    
   147   75   76 1    
   148   75   77 1    
   149   75  196 1    
   150   76  197 1    
   151   76  198 1    
   152   76  199 1    
   153   77   78 2    
   154   77   79 am   BACKBONE|DICT|INTERRES
   155   79   80 1    
   156   79  200 1    
   157   80   81 1    
   158   80   82 1    
   159   80  201 1    
   160   81  202 1    
   161   81  203 1    
   162   81  204 1    
   163   82   83 2    
   164   82   84 am   BACKBONE|DICT|INTERRES
   165   84   85 1    
   166   84  205 1    
   167   85   86 1    
   168   85   87 1    
   169   85  206 1    
   170   86  207 1    
   171   86  208 1    
   172   86  209 1    
   173   87   88 2    
   174   87   89 am   BACKBONE|DICT|INTERRES
   175   89   90 1    
   176   89  210 1    
   177   90   91 1    
   178   90   92 1    
   179   90  211 1    
   180   91  212 1    
   181   91  213 1    
   182   91  214 1    
   183   92   93 2    
   184   92   94 am   BACKBONE|DICT|INTERRES
   185   94   95 1    
   186   94  215 1    
   187   95   96 1    
   188   95   97 1    
   189   95  216 1    
   190   96  217 1    
   191   96  218 1    
   192   96  219 1    
   193   97   98 2    
   194   97   99 am   BACKBONE|DICT|INTERRES
   195   99  100 1    
   196   99  220 1    
   197  100  101 1    
   198  100  102 1    
   199  100  221 1    
   200  101  222 1    
   201  101  223 1    
   202  101  224 1    
   203  102  103 2    
   204  102  104 am   BACKBONE|DICT|INTERRES
   205  104  105 1    
   206  104  225 1    
   207  105  106 1    
   208  105  107 1    
   209  105  226 1    
   210  106  227 1    
   211  106  228 1    
   212  106  229 1    
   213  107  108 2    
   214  107  109 am   BACKBONE|DICT|INTERRES
   215  109  110 1    
   216  109  230 1    
   217  110  111 1    
   218  110  112 1    
   219  110  231 1    
   220  111  232 1    
   221  111  233 1    
   222  111  234 1    
   223  112  113 2    
   224  112  114 am   BACKBONE|DICT|INTERRES
   225  114  115 1    
   226  114  235 1    
   227  115  116 1    
   228  115  117 1    
   229  115  236 1    
   230  116  237 1    
   231  116  238 1    
   232  116  239 1    
   233  117  118 2    
   234  117  119 am   BACKBONE|DICT|INTERRES
   235  119  120 1    
   236  119  240 1    
   237  120  121 1    
   238  120  124 1    
   239  120  241 1    
   240  121  122 am   BACKBONE|DICT|INTERRES
   241  121  123 2    
   242  122  242 1    
   243  122  243 1    
   244  124  125 1    
   245  124  244 1    
   246  124  245 1    
   247  125  126 1    
   248  126  246 1    
   249  126  247 1    
@<TRIPOS>SUBSTRUCTURE
     1 UNK         1 GROUP             0       ****    0 ROOT    
