@<TRIPOS>MOLECULE
3R540
247   249    1
SMALL
USER_CHARGES


@<TRIPOS>ATOM
      1 CA          3.2921   -8.8057  -51.6833 C.3       0 UNK        -0.1800 
      2 C           2.8835   -9.6093  -50.4563 C.2       0 UNK         0.5000 
      3 O           2.9580   -9.0989  -49.3379 O.2       0 UNK        -0.5000 
      4 N           2.4617  -10.8633  -50.6609 N.am      1 UNK        -0.5000 
      5 CA          1.9608  -11.7597  -49.6134 C.3       1 UNK         0.1400 
      6 C6          2.0609  -13.2467  -50.0462 C.3       23 UNK        -0.0398 
      7 S7          2.3279  -14.3639  -48.6232 S.3       23 UNK        -0.2404 
      8 C8          3.6377  -15.4705  -49.2327 C.3       23 UNK        -0.0205 
      9 C9          3.0619  -16.6379  -50.0203 C.ar      23 UNK        -0.0193 
     10 C10         2.5712  -16.4460  -51.3155 C.ar      23 UNK        -0.1150 
     11 C11         2.0272  -17.5079  -52.0438 C.ar      23 UNK        -0.0193 
     12 C12         1.9960  -18.7811  -51.4607 C.ar      23 UNK        -0.1150 
     13 C13         2.5055  -18.9922  -50.1761 C.ar      23 UNK        -0.0193 
     14 C14         3.0257  -17.9154  -49.4550 C.ar      23 UNK        -0.1150 
     15 C15         2.5032  -20.3879  -49.5776 C.3       23 UNK        -0.0205 
     16 S16         0.9128  -20.7509  -48.7853 S.3       23 UNK        -0.2404 
     17 C17         0.9898  -22.5730  -48.6873 C.3       23 UNK        -0.0398 
     18 CA          0.1310  -23.2081  -47.5708 C.3       11 UNK         0.1400 
     19 N           0.6317  -22.9125  -46.2284 N.am      11 UNK        -0.5000 
     20 C           0.2747  -23.5837  -45.1257 C.2       10 UNK         0.5000 
     21 O          -0.5735  -24.4778  -45.1337 O.2       10 UNK        -0.5000 
     22 CA          0.9205  -23.1846  -43.7850 C.3       10 UNK         0.1400 
     23 CB          1.5907  -24.3887  -43.0949 C.3       10 UNK        -0.1800 
     24 N           1.8268  -22.0314  -43.8488 N.am      10 UNK        -0.5000 
     25 C           3.0423  -21.9280  -44.4072 C.2       9 UNK         0.5000 
     26 O           3.6059  -22.8492  -44.9976 O.2       9 UNK        -0.5000 
     27 CA          3.7411  -20.5522  -44.3200 C.3       9 UNK         0.1400 
     28 CB          3.8207  -19.9067  -45.7137 C.3       9 UNK        -0.1800 
     29 N           3.0782  -19.6171  -43.4061 N.am      9 UNK        -0.5000 
     30 C           3.1078  -19.6851  -42.0673 C.2       8 UNK         0.5000 
     31 O           3.7956  -20.4896  -41.4385 O.2       8 UNK        -0.5000 
     32 CA          2.1568  -18.7364  -41.3086 C.3       8 UNK         0.1400 
     33 CB          2.8194  -17.3751  -41.0501 C.3       8 UNK        -0.1800 
     34 N           0.8824  -18.5474  -42.0104 N.am      8 UNK        -0.5000 
     35 C          -0.0248  -19.5178  -42.1946 C.2       7 UNK         0.5000 
     36 O           0.0850  -20.6457  -41.7168 O.2       7 UNK        -0.5000 
     37 CA         -1.2220  -19.2126  -43.1087 C.3       7 UNK         0.1400 
     38 CB         -2.3711  -18.5707  -42.3192 C.3       7 UNK        -0.1800 
     39 N          -0.8528  -18.3656  -44.2437 N.am      7 UNK        -0.5000 
     40 C          -0.1501  -18.7804  -45.3076 C.2       6 UNK         0.5000 
     41 O           0.1503  -19.9597  -45.4949 O.2       6 UNK        -0.5000 
     42 CA          0.3177  -17.7063  -46.3136 C.3       6 UNK         0.1400 
     43 CB         -0.6937  -17.5245  -47.4486 C.3       6 UNK        -0.1800 
     44 N           0.5678  -16.4089  -45.6874 N.am      6 UNK        -0.5000 
     45 C           1.5570  -16.1700  -44.8182 C.2       5 UNK         0.5000 
     46 O           2.4015  -17.0078  -44.5054 O.2       5 UNK        -0.5000 
     47 CA          1.5590  -14.7942  -44.1296 C.3       5 UNK         0.1400 
     48 CB          2.2693  -13.7338  -44.9825 C.3       5 UNK        -0.1800 
     49 N           0.2029  -14.3447  -43.8132 N.am      5 UNK        -0.5000 
     50 C          -0.5442  -14.8519  -42.8236 C.2       4 UNK         0.5000 
     51 O          -0.1476  -15.7278  -42.0553 O.2       4 UNK        -0.5000 
     52 CA         -1.9834  -14.3171  -42.6931 C.3       4 UNK         0.1400 
     53 CB         -2.0022  -13.0072  -41.8916 C.3       4 UNK        -0.1800 
     54 N          -2.6278  -14.1004  -43.9900 N.am      4 UNK        -0.5000 
     55 C          -2.9728  -15.0809  -44.8370 C.2       3 UNK         0.5000 
     56 O          -2.8250  -16.2749  -44.5884 O.2       3 UNK        -0.5000 
     57 CA         -3.5296  -14.6598  -46.2113 C.3       3 UNK         0.1400 
     58 CB         -5.0603  -14.5449  -46.1635 C.3       3 UNK        -0.1800 
     59 N          -2.9602  -13.4092  -46.7253 N.am      3 UNK        -0.5000 
     60 C          -1.6566  -13.2077  -46.9556 C.2       2 UNK         0.5000 
     61 O          -0.7812  -14.0410  -46.7051 O.2       2 UNK        -0.5000 
     62 CA         -1.2595  -11.8344  -47.5113 C.3       2 UNK         0.1400 
     63 CB         -1.2662  -10.7709  -46.4006 C.3       2 UNK        -0.1800 
     64 N           0.0854  -11.9423  -48.0612 N.am      2 UNK        -0.5000 
     65 C           0.5213  -11.3835  -49.1914 C.2       1 UNK         0.5000 
     66 O          -0.1653  -10.6342  -49.8924 O.2       1 UNK        -0.5000 
     67 C          -1.3685  -22.8873  -47.7219 C.2       11 UNK         0.5000 
     68 O          -2.0773  -23.6320  -48.3985 O.2       11 UNK        -0.5000 
     69 N          -1.8312  -21.8227  -47.0477 N.am      12 UNK        -0.5000 
     70 CA         -3.2374  -21.4217  -47.0081 C.3       12 UNK         0.1400 
     71 CB         -3.3777  -20.0888  -46.2623 C.3       12 UNK        -0.1800 
     72 C          -4.1376  -22.4793  -46.3544 C.2       12 UNK         0.5000 
     73 O          -5.2435  -22.7127  -46.8400 O.2       12 UNK        -0.5000 
     74 N          -3.6323  -23.1055  -45.2837 N.am      13 UNK        -0.5000 
     75 CA         -4.3041  -24.1792  -44.5578 C.3       13 UNK         0.1400 
     76 CB         -3.6621  -24.3325  -43.1700 C.3       13 UNK        -0.1800 
     77 C          -4.2630  -25.5069  -45.3318 C.2       13 UNK         0.5000 
     78 O          -5.2693  -26.2147  -45.3686 O.2       13 UNK        -0.5000 
     79 N          -3.1090  -25.8112  -45.9436 N.am      14 UNK        -0.5000 
     80 CA         -2.8802  -27.0233  -46.7301 C.3       14 UNK         0.1400 
     81 CB         -1.3844  -27.1482  -47.0574 C.3       14 UNK        -0.1800 
     82 C          -3.7258  -27.0742  -48.0149 C.2       14 UNK         0.5000 
     83 O          -4.3353  -28.1065  -48.2983 O.2       14 UNK        -0.5000 
     84 N          -3.7544  -25.9629  -48.7629 N.am      15 UNK        -0.5000 
     85 CA         -4.5236  -25.8342  -50.0014 C.3       15 UNK         0.1400 
     86 CB         -3.9041  -24.7241  -50.8603 C.3       15 UNK        -0.1800 
     87 C          -6.0142  -25.5413  -49.7547 C.2       15 UNK         0.5000 
     88 O          -6.8352  -25.8624  -50.6143 O.2       15 UNK        -0.5000 
     89 N          -6.3295  -24.9204  -48.6060 N.am      16 UNK        -0.5000 
     90 CA         -7.6533  -24.4378  -48.1895 C.3       16 UNK         0.1400 
     91 CB         -8.6238  -25.6163  -47.9653 C.3       16 UNK        -0.1800 
     92 C          -8.2166  -23.3554  -49.1388 C.2       16 UNK         0.5000 
     93 O          -9.4284  -23.2904  -49.3539 O.2       16 UNK        -0.5000 
     94 N          -7.3171  -22.5390  -49.7047 N.am      17 UNK        -0.5000 
     95 CA         -7.6016  -21.5771  -50.7730 C.3       17 UNK         0.1400 
     96 CB         -7.1300  -22.1781  -52.1105 C.3       17 UNK        -0.1800 
     97 C          -6.9720  -20.1959  -50.5055 C.2       17 UNK         0.5000 
     98 O          -6.8212  -19.4105  -51.4411 O.2       17 UNK        -0.5000 
     99 N          -6.5991  -19.9262  -49.2438 N.am      18 UNK        -0.5000 
    100 CA        -5.9734  -18.6951  -48.7261 C.3       18 UNK         0.1400 
    101 CB        -6.8558  -17.4566  -48.9850 C.3       18 UNK        -0.1800 
    102 C         -4.5116  -18.4612  -49.1743 C.2       18 UNK         0.5000 
    103 O         -3.8907  -17.5040  -48.7145 O.2       18 UNK        -0.5000 
    104 N         -3.9771  -19.3572  -50.0081 N.am      19 UNK        -0.5000 
    105 CA        -2.6091  -19.4456  -50.5052 C.3       19 UNK         0.1400 
    106 CB        -2.2654  -18.2425  -51.4033 C.3       19 UNK        -0.1800 
    107 C         -2.4920  -20.7726  -51.2719 C.2       19 UNK         0.5000 
    108 O         -3.5053  -21.4499  -51.4648 O.2       19 UNK        -0.5000 
    109 N         -1.2677  -21.1238  -51.6887 N.am      20 UNK        -0.5000 
    110 CA        -0.9404  -22.3725  -52.3878 C.3       20 UNK         0.1400 
    111 CB         0.5725  -22.4148  -52.6620 C.3       20 UNK        -0.1800 
    112 C         -1.7052  -22.5775  -53.7106 C.2       20 UNK         0.5000 
    113 O         -2.1529  -23.6901  -53.9878 O.2       20 UNK        -0.5000 
    114 N         -1.8235  -21.4933  -54.4860 N.am      21 UNK        -0.5000 
    115 CA        -2.4700  -21.3858  -55.7978 C.3       21 UNK         0.1400 
    116 CB        -1.9305  -22.4226  -56.8070 C.3       21 UNK        -0.1800 
    117 C         -2.2399  -19.9715  -56.3517 C.2       21 UNK         0.5000 
    118 O         -3.1410  -19.3961  -56.9626 O.2       21 UNK        -0.5000 
    119 N         -1.0328  -19.4427  -56.1118 N.am      22 UNK        -0.5000 
    120 CA        -0.6084  -18.0641  -56.3890 C.3       22 UNK         0.1400 
    121 C         -1.4429  -16.9787  -55.6489 C.2       22 UNK         0.5000 
    122 N         -1.4740  -15.7577  -56.1657 N.am      22 UNK        -0.7600 
    123 O         -2.0342  -17.2183  -54.5998 O.2       22 UNK        -0.5000 
    124 C124        0.9164  -17.8872  -56.1389 C.3       23 UNK        -0.0398 
    125 S125        1.5433  -18.6386  -54.5899 S.3       23 UNK        -0.2404 
    126 C126        1.4536  -17.2298  -53.4336 C.3       23 UNK        -0.0205 
    127 H127        2.6707   -7.9146  -51.7717 H         1 UNK         0.0600 
    128 H128        4.3320   -8.4905  -51.5966 H         1 UNK         0.0600 
    129 H129        3.1881   -9.3850  -52.6011 H         1 UNK         0.0600 
    130 H130        2.3870  -11.2076  -51.6072 H         1 UNK         0.3000 
    131 H131        2.6022  -11.6136  -48.7409 H         1 UNK         0.0600 
    132 H132        2.9018  -13.3669  -50.7296 H         1 UNK         0.0800 
    133 H133        1.1796  -13.5714  -50.6029 H         1 UNK         0.0800 
    134 H134        4.1970  -15.8400  -48.3718 H         1 UNK         0.0800 
    135 H135        4.3563  -14.9212  -49.8420 H         1 UNK         0.0800 
    136 H136        2.6002  -15.4608  -51.7565 H         1 UNK         0.1150 
    137 H137        1.5804  -19.6163  -52.0033 H         1 UNK         0.1150 
    138 H138        3.4069  -18.0745  -48.4559 H         1 UNK         0.1150 
    139 H139        2.7064  -21.1193  -50.3606 H         1 UNK         0.0800 
    140 H140        3.3039  -20.4926  -48.8441 H         1 UNK         0.0800 
    141 H141        2.0294  -22.8773  -48.5566 H         1 UNK         0.0800 
    142 H142        0.6817  -22.9808  -49.6496 H         1 UNK         0.0800 
    143 H143        0.2225  -24.2886  -47.6976 H         1 UNK         0.0600 
    144 H144        1.2652  -22.1310  -46.1372 H         1 UNK         0.3000 
    145 H145        0.0916  -22.8719  -43.1497 H         1 UNK         0.0600 
    146 H146        2.0132  -24.1051  -42.1309 H         1 UNK         0.0600 
    147 H147        0.8675  -25.1838  -42.9098 H         1 UNK         0.0600 
    148 H148        2.3899  -24.8143  -43.7019 H         1 UNK         0.0600 
    149 H149        1.4614  -21.1981  -43.4077 H         1 UNK         0.3000 
    150 H150        4.7583  -20.7216  -43.9614 H         1 UNK         0.0600 
    151 H151        4.3880  -20.5328  -46.4032 H         1 UNK         0.0600 
    152 H152        4.3156  -18.9361  -45.6743 H         1 UNK         0.0600 
    153 H153        2.8310  -19.7605  -46.1461 H         1 UNK         0.0600 
    154 H154        2.5605  -18.8557  -43.8349 H         1 UNK         0.3000 
    155 H155        1.9389  -19.1916  -40.3402 H         1 UNK         0.0600 
    156 H156        3.0984  -16.8753  -41.9769 H         1 UNK         0.0600 
    157 H157        3.7276  -17.4926  -40.4579 H         1 UNK         0.0600 
    158 H158        2.1543  -16.7106  -40.4982 H         1 UNK         0.0600 
    159 H159        0.6918  -17.6214  -42.3759 H         1 UNK         0.3000 
    160 H160       -1.5769  -20.1705  -43.4922 H         1 UNK         0.0600 
    161 H161       -3.2543  -18.4444  -42.9455 H         1 UNK         0.0600 
    162 H162       -2.0960  -17.5924  -41.9263 H         1 UNK         0.0600 
    163 H163       -2.6605  -19.1951  -41.4731 H         1 UNK         0.0600 
    164 H164       -1.1740  -17.4044  -44.2164 H         1 UNK         0.3000 
    165 H165        1.2536  -18.0536  -46.7552 H         1 UNK         0.0600 
    166 H166       -0.3267  -16.8221  -48.1977 H         1 UNK         0.0600 
    167 H167       -0.8774  -18.4708  -47.9529 H         1 UNK         0.0600 
    168 H168       -1.6494  -17.1548  -47.0792 H         1 UNK         0.0600 
    169 H169       -0.0518  -15.6451  -45.9436 H         1 UNK         0.3000 
    170 H170        2.1167  -14.8960  -43.1962 H         1 UNK         0.0600 
    171 H171        3.2608  -14.0728  -45.2856 H         1 UNK         0.0600 
    172 H172        1.7094  -13.5028  -45.8868 H         1 UNK         0.0600 
    173 H173        2.3978  -12.8054  -44.4260 H         1 UNK         0.0600 
    174 H174       -0.2173  -13.6868  -44.4535 H         1 UNK         0.3000 
    175 H175       -2.5655  -15.0603  -42.1441 H         1 UNK         0.0600 
    176 H176       -3.0227  -12.6617  -41.7251 H         1 UNK         0.0600 
    177 H177       -1.5423  -13.1430  -40.9118 H         1 UNK         0.0600 
    178 H178       -1.4574  -12.2124  -42.4028 H         1 UNK         0.0600 
    179 H179       -2.7861  -13.1441  -44.2706 H         1 UNK         0.3000 
    180 H180       -3.2751  -15.4489  -46.9209 H         1 UNK         0.0600 
    181 H181       -5.3844  -13.7468  -45.4946 H         1 UNK         0.0600 
    182 H182       -5.5094  -15.4743  -45.8105 H         1 UNK         0.0600 
    183 H183       -5.4714  -14.3445  -47.1531 H         1 UNK         0.0600 
    184 H184       -3.6167  -12.6731  -46.9418 H         1 UNK         0.3000 
    185 H185       -1.9717  -11.5611  -48.2927 H         1 UNK         0.0600 
    186 H186       -0.5826  -11.0301  -45.5909 H         1 UNK         0.0600 
    187 H187       -0.9681   -9.7969  -46.7891 H         1 UNK         0.0600 
    188 H188       -2.2612  -10.6560  -45.9691 H         1 UNK         0.0600 
    189 H189        0.6577  -12.6450  -47.6084 H         1 UNK         0.3000 
    190 H190       -1.1682  -21.2610  -46.5233 H         1 UNK         0.3000 
    191 H191       -3.5779  -21.2882  -48.0359 H         1 UNK         0.0600 
    192 H192       -2.8325  -19.2926  -46.7647 H         1 UNK         0.0600 
    193 H193       -3.0073  -20.1598  -45.2422 H         1 UNK         0.0600 
    194 H194       -4.4204  -19.7800  -46.1977 H         1 UNK         0.0600 
    195 H195       -2.6959  -22.8744  -44.9880 H         1 UNK         0.3000 
    196 H196       -5.3517  -23.9025  -44.4193 H         1 UNK         0.0600 
    197 H197       -4.1605  -25.1140  -42.5950 H         1 UNK         0.0600 
    198 H198       -3.7385  -23.4087  -42.5964 H         1 UNK         0.0600 
    199 H199       -2.6066  -24.5985  -43.2379 H         1 UNK         0.0600 
    200 H200       -2.3101  -25.1984  -45.8148 H         1 UNK         0.3000 
    201 H201       -3.1619  -27.8785  -46.1122 H         1 UNK         0.0600 
    202 H202       -0.7817  -27.1697  -46.1492 H         1 UNK         0.0600 
    203 H203       -1.0364  -26.3173  -47.6708 H         1 UNK         0.0600 
    204 H204       -1.1805  -28.0688  -47.6056 H         1 UNK         0.0600 
    205 H205       -3.1950  -25.1583  -48.4890 H         1 UNK         0.3000 
    206 H206       -4.4559  -26.7697  -50.5609 H         1 UNK         0.0600 
    207 H207       -2.8606  -24.9379  -51.0908 H         1 UNK         0.0600 
    208 H208       -4.4313  -24.6144  -51.8090 H         1 UNK         0.0600 
    209 H209       -3.9444  -23.7620  -50.3503 H         1 UNK         0.0600 
    210 H210       -5.5749  -24.6806  -47.9766 H         1 UNK         0.3000 
    211 H211       -7.5151  -23.9505  -47.2241 H         1 UNK         0.0600 
    212 H212       -8.8796  -26.1173  -48.8992 H         1 UNK         0.0600 
    213 H213       -9.5554  -25.2744  -47.5131 H         1 UNK         0.0600 
    214 H214       -8.1914  -26.3579  -47.2935 H         1 UNK         0.0600 
    215 H215       -6.3450  -22.6659  -49.4597 H         1 UNK         0.3000 
    216 H216       -8.6768  -21.4013  -50.8421 H         1 UNK         0.0600 
    217 H217       -7.6079  -23.1396  -52.2996 H         1 UNK         0.0600 
    218 H218       -6.0509  -22.3358  -52.1201 H         1 UNK         0.0600 
    219 H219       -7.3761  -21.5256  -52.9490 H         1 UNK         0.0600 
    220 H220       -6.7741  -20.6426  -48.5524 H         1 UNK         0.3000 
    221 H221       -5.9334  -18.8268  -47.6451 H         1 UNK         0.0600 
    222 H222       -6.8891  -17.1918  -50.0419 H         1 UNK         0.0600 
    223 H223       -7.8783  -17.6210  -48.6455 H         1 UNK         0.0600 
    224 H224       -6.4726  -16.5879  -48.4481 H         1 UNK         0.0600 
    225 H225       -4.5616  -20.1077  -50.3566 H         1 UNK         0.3000 
    226 H226       -1.9282  -19.4874  -49.6557 H         1 UNK         0.0600 
    227 H227       -2.2828  -17.3072  -50.8443 H         1 UNK         0.0600 
    228 H228       -1.2669  -18.3339  -51.8320 H         1 UNK         0.0600 
    229 H229       -2.9717  -18.1513  -52.2289 H         1 UNK         0.0600 
    230 H230       -0.4914  -20.5182  -51.4675 H         1 UNK         0.3000 
    231 H231       -1.1949  -23.1977  -51.7198 H         1 UNK         0.0600 
    232 H232        1.1544  -22.3089  -51.7496 H         1 UNK         0.0600 
    233 H233        0.8819  -21.6212  -53.3433 H         1 UNK         0.0600 
    234 H234        0.8581  -23.3638  -53.1176 H         1 UNK         0.0600 
    235 H235       -1.4808  -20.6186  -54.1133 H         1 UNK         0.3000 
    236 H236       -3.5436  -21.5319  -55.6660 H         1 UNK         0.0600 
    237 H237       -2.3108  -22.2262  -57.8105 H         1 UNK         0.0600 
    238 H238       -0.8415  -22.4041  -56.8600 H         1 UNK         0.0600 
    239 H239       -2.2378  -23.4359  -56.5513 H         1 UNK         0.0600 
    240 H240       -0.3451  -20.0064  -55.6347 H         1 UNK         0.3000 
    241 H241       -0.7850  -17.9044  -57.4544 H         1 UNK         0.0600 
    242 H242       -2.0036  -15.0432  -55.6910 H         1 UNK         0.3800 
    243 H243       -1.0001  -15.5300  -57.0262 H         1 UNK         0.3800 
    244 H244        1.4565  -18.3686  -56.9552 H         1 UNK         0.0800 
    245 H245        1.2119  -16.8377  -56.1884 H         1 UNK         0.0800 
    246 H246        0.4130  -16.9272  -53.3165 H         1 UNK         0.0800 
    247 H247        1.9773  -16.3848  -53.8832 H         1 UNK         0.0800 
@<TRIPOS>BOND
     1    1    2 1    
     2    1  127 1    
     3    1  128 1    
     4    1  129 1    
     5    2    3 2    
     6    2    4 am   BACKBONE|DICT|INTERRES
     7    4    5 1    
     8    4  130 1    
     9    5    6 1    
    10    5   65 1    
    11    5  131 1    
    12    6    7 1    
    13    6  132 1    
    14    6  133 1    
    15    7    8 1    
    16    8    9 1    
    17    8  134 1    
    18    8  135 1    
    19    9   10 ar   
    20    9   14 ar   
    21   10   11 ar   
    22   10  136 1    
    23   11   12 ar   
    24   11  126 1    
    25   12   13 ar   
    26   12  137 1    
    27   13   14 ar   
    28   13   15 1    
    29   14  138 1    
    30   15   16 1    
    31   15  139 1    
    32   15  140 1    
    33   16   17 1    
    34   17   18 1    
    35   17  141 1    
    36   17  142 1    
    37   18   19 1    
    38   18   67 1    
    39   18  143 1    
    40   19   20 am   BACKBONE|DICT|INTERRES
    41   19  144 1    
    42   20   21 2    
    43   20   22 1    
    44   22   23 1    
    45   22   24 1    
    46   22  145 1    
    47   23  146 1    
    48   23  147 1    
    49   23  148 1    
    50   24   25 am   BACKBONE|DICT|INTERRES
    51   24  149 1    
    52   25   26 2    
    53   25   27 1    
    54   27   28 1    
    55   27   29 1    
    56   27  150 1    
    57   28  151 1    
    58   28  152 1    
    59   28  153 1    
    60   29   30 am   BACKBONE|DICT|INTERRES
    61   29  154 1    
    62   30   31 2    
    63   30   32 1    
    64   32   33 1    
    65   32   34 1    
    66   32  155 1    
    67   33  156 1    
    68   33  157 1    
    69   33  158 1    
    70   34   35 am   BACKBONE|DICT|INTERRES
    71   34  159 1    
    72   35   36 2    
    73   35   37 1    
    74   37   38 1    
    75   37   39 1    
    76   37  160 1    
    77   38  161 1    
    78   38  162 1    
    79   38  163 1    
    80   39   40 am   BACKBONE|DICT|INTERRES
    81   39  164 1    
    82   40   41 2    
    83   40   42 1    
    84   42   43 1    
    85   42   44 1    
    86   42  165 1    
    87   43  166 1    
    88   43  167 1    
    89   43  168 1    
    90   44   45 am   BACKBONE|DICT|INTERRES
    91   44  169 1    
    92   45   46 2    
    93   45   47 1    
    94   47   48 1    
    95   47   49 1    
    96   47  170 1    
    97   48  171 1    
    98   48  172 1    
    99   48  173 1    
   100   49   50 am   BACKBONE|DICT|INTERRES
   101   49  174 1    
   102   50   51 2    
   103   50   52 1    
   104   52   53 1    
   105   52   54 1    
   106   52  175 1    
   107   53  176 1    
   108   53  177 1    
   109   53  178 1    
   110   54   55 am   BACKBONE|DICT|INTERRES
   111   54  179 1    
   112   55   56 2    
   113   55   57 1    
   114   57   58 1    
   115   57   59 1    
   116   57  180 1    
   117   58  181 1    
   118   58  182 1    
   119   58  183 1    
   120   59   60 am   BACKBONE|DICT|INTERRES
   121   59  184 1    
   122   60   61 2    
   123   60   62 1    
   124   62   63 1    
   125   62   64 1    
   126   62  185 1    
   127   63  186 1    
   128   63  187 1    
   129   63  188 1    
   130   64   65 am   BACKBONE|DICT|INTERRES
   131   64  189 1    
   132   65   66 2    
   133   67   68 2    
   134   67   69 am   BACKBONE|DICT|INTERRES
   135   69   70 1    
   136   69  190 1    
   137   70   71 1    
   138   70   72 1    
   139   70  191 1    
   140   71  192 1    
   141   71  193 1    
   142   71  194 1    
   143   72   73 2    
   144   72   74 am   BACKBONE|DICT|INTERRES
   145   74   75 1    
   146   74  195 1    
   147   75   76 1    
   148   75   77 1    
   149   75  196 1    
   150   76  197 1    
   151   76  198 1    
   152   76  199 1    
   153   77   78 2    
   154   77   79 am   BACKBONE|DICT|INTERRES
   155   79   80 1    
   156   79  200 1    
   157   80   81 1    
   158   80   82 1    
   159   80  201 1    
   160   81  202 1    
   161   81  203 1    
   162   81  204 1    
   163   82   83 2    
   164   82   84 am   BACKBONE|DICT|INTERRES
   165   84   85 1    
   166   84  205 1    
   167   85   86 1    
   168   85   87 1    
   169   85  206 1    
   170   86  207 1    
   171   86  208 1    
   172   86  209 1    
   173   87   88 2    
   174   87   89 am   BACKBONE|DICT|INTERRES
   175   89   90 1    
   176   89  210 1    
   177   90   91 1    
   178   90   92 1    
   179   90  211 1    
   180   91  212 1    
   181   91  213 1    
   182   91  214 1    
   183   92   93 2    
   184   92   94 am   BACKBONE|DICT|INTERRES
   185   94   95 1    
   186   94  215 1    
   187   95   96 1    
   188   95   97 1    
   189   95  216 1    
   190   96  217 1    
   191   96  218 1    
   192   96  219 1    
   193   97   98 2    
   194   97   99 am   BACKBONE|DICT|INTERRES
   195   99  100 1    
   196   99  220 1    
   197  100  101 1    
   198  100  102 1    
   199  100  221 1    
   200  101  222 1    
   201  101  223 1    
   202  101  224 1    
   203  102  103 2    
   204  102  104 am   BACKBONE|DICT|INTERRES
   205  104  105 1    
   206  104  225 1    
   207  105  106 1    
   208  105  107 1    
   209  105  226 1    
   210  106  227 1    
   211  106  228 1    
   212  106  229 1    
   213  107  108 2    
   214  107  109 am   BACKBONE|DICT|INTERRES
   215  109  110 1    
   216  109  230 1    
   217  110  111 1    
   218  110  112 1    
   219  110  231 1    
   220  111  232 1    
   221  111  233 1    
   222  111  234 1    
   223  112  113 2    
   224  112  114 am   BACKBONE|DICT|INTERRES
   225  114  115 1    
   226  114  235 1    
   227  115  116 1    
   228  115  117 1    
   229  115  236 1    
   230  116  237 1    
   231  116  238 1    
   232  116  239 1    
   233  117  118 2    
   234  117  119 am   BACKBONE|DICT|INTERRES
   235  119  120 1    
   236  119  240 1    
   237  120  121 1    
   238  120  124 1    
   239  120  241 1    
   240  121  122 am   BACKBONE|DICT|INTERRES
   241  121  123 2    
   242  122  242 1    
   243  122  243 1    
   244  124  125 1    
   245  124  244 1    
   246  124  245 1    
   247  125  126 1    
   248  126  246 1    
   249  126  247 1    
@<TRIPOS>SUBSTRUCTURE
     1 UNK         1 GROUP             0       ****    0 ROOT    
