@<TRIPOS>MOLECULE
3R540
247   249    1
SMALL
USER_CHARGES


@<TRIPOS>ATOM
      1 CA          8.1959  -12.9231  -49.2166 C.3       0 UNK        -0.1800 
      2 C           7.1258  -12.5275  -48.2085 C.2       0 UNK         0.5000 
      3 O           6.9539  -11.3387  -47.9387 O.2       0 UNK        -0.5000 
      4 N           6.4149  -13.5215  -47.6565 N.am      1 UNK        -0.5000 
      5 CA          5.3329  -13.3849  -46.6692 C.3       1 UNK         0.1400 
      6 C6          4.0662  -12.6626  -47.2075 C.3       23 UNK        -0.0398 
      7 S7          3.3913  -13.4464  -48.7081 S.3       23 UNK        -0.2404 
      8 C8          2.0518  -14.4585  -48.0113 C.3       23 UNK        -0.0205 
      9 C9          1.3911  -15.2800  -49.1046 C.ar      23 UNK        -0.0193 
     10 C10         0.2734  -14.7852  -49.7837 C.ar      23 UNK        -0.1150 
     11 C11        -0.2999  -15.5165  -50.8282 C.ar      23 UNK        -0.0193 
     12 C12         0.2511  -16.7496  -51.1879 C.ar      23 UNK        -0.1150 
     13 C13         1.3524  -17.2653  -50.5002 C.ar      23 UNK        -0.0193 
     14 C14         1.9176  -16.5260  -49.4571 C.ar      23 UNK        -0.1150 
     15 C15         1.9339  -18.6175  -50.8899 C.3       23 UNK        -0.0205 
     16 S16         0.7693  -19.9820  -50.5747 S.3       23 UNK        -0.2404 
     17 C17         0.4395  -19.7533  -48.7956 C.3       23 UNK        -0.0398 
     18 CA          0.1130  -21.0716  -48.0594 C.3       11 UNK         0.1400 
     19 N           0.2435  -20.9185  -46.6096 N.am      11 UNK        -0.5000 
     20 C           0.1757  -21.9187  -45.7211 C.2       10 UNK         0.5000 
     21 O           0.0624  -23.1040  -46.0327 O.2       10 UNK        -0.5000 
     22 CA          0.1762  -21.5200  -44.2340 C.3       10 UNK         0.1400 
     23 CB          1.6066  -21.2719  -43.7336 C.3       10 UNK        -0.1800 
     24 N          -0.6550  -20.3425  -43.9716 N.am      10 UNK        -0.5000 
     25 C          -1.9826  -20.3019  -44.1585 C.2       9 UNK         0.5000 
     26 O          -2.6485  -21.2736  -44.5125 O.2       9 UNK        -0.5000 
     27 CA         -2.6816  -18.9447  -43.9645 C.3       9 UNK         0.1400 
     28 CB         -2.9486  -18.6797  -42.4761 C.3       9 UNK        -0.1800 
     29 N          -1.9316  -17.8298  -44.5461 N.am      9 UNK        -0.5000 
     30 C          -1.6731  -17.6874  -45.8545 C.2       8 UNK         0.5000 
     31 O          -2.0772  -18.4672  -46.7157 O.2       8 UNK        -0.5000 
     32 CA         -0.7635  -16.5141  -46.2667 C.3       8 UNK         0.1400 
     33 CB         -1.5515  -15.1982  -46.3355 C.3       8 UNK        -0.1800 
     34 N           0.3849  -16.3604  -45.3721 N.am      8 UNK        -0.5000 
     35 C           1.3446  -17.2842  -45.2176 C.2       7 UNK         0.5000 
     36 O           1.4001  -18.3289  -45.8657 O.2       7 UNK        -0.5000 
     37 CA          2.3808  -17.0245  -44.1118 C.3       7 UNK         0.1400 
     38 CB          3.4986  -16.0920  -44.6048 C.3       7 UNK        -0.1800 
     39 N           1.7512  -16.4803  -42.9068 N.am      7 UNK        -0.5000 
     40 C           0.9618  -17.1983  -42.0928 C.2       6 UNK         0.5000 
     41 O           0.7509  -18.4017  -42.2398 O.2       6 UNK        -0.5000 
     42 CA          0.2426  -16.4443  -40.9597 C.3       6 UNK         0.1400 
     43 CB          1.0741  -16.4518  -39.6706 C.3       6 UNK        -0.1800 
     44 N          -0.0923  -15.0692  -41.3321 N.am      6 UNK        -0.5000 
     45 C          -1.0702  -14.7593  -42.1961 C.2       5 UNK         0.5000 
     46 O          -1.7906  -15.5999  -42.7316 O.2       5 UNK        -0.5000 
     47 CA         -1.2546  -13.2759  -42.5637 C.3       5 UNK         0.1400 
     48 CB         -2.2644  -12.6094  -41.6179 C.3       5 UNK        -0.1800 
     49 N          -0.0091  -12.5097  -42.5557 N.am      5 UNK        -0.5000 
     50 C           1.0537  -12.7527  -43.3337 C.2       4 UNK         0.5000 
     51 O           1.0992  -13.6694  -44.1571 O.2       4 UNK        -0.5000 
     52 CA          2.2845  -11.8430  -43.1460 C.3       4 UNK         0.1400 
     53 CB          2.0255  -10.5996  -42.2658 C.3       4 UNK        -0.1800 
     54 N           3.4482  -12.5778  -42.6421 N.am      4 UNK        -0.5000 
     55 C           3.5306  -13.3227  -41.5275 C.2       3 UNK         0.5000 
     56 O           2.5704  -13.5386  -40.7864 O.2       3 UNK        -0.5000 
     57 CA          4.9055  -13.9356  -41.1770 C.3       3 UNK         0.1400 
     58 CB          4.7912  -15.4216  -40.7966 C.3       3 UNK        -0.1800 
     59 N           5.8751  -13.7995  -42.2676 N.am      3 UNK        -0.5000 
     60 C           6.8095  -12.8426  -42.3505 C.2       2 UNK         0.5000 
     61 O           6.9980  -11.9891  -41.4831 O.2       2 UNK        -0.5000 
     62 CA          7.6599  -12.8148  -43.6377 C.3       2 UNK         0.1400 
     63 CB          8.9512  -13.6248  -43.4459 C.3       2 UNK        -0.1800 
     64 N           6.9646  -13.2997  -44.8368 N.am      2 UNK        -0.5000 
     65 C           5.8449  -12.7673  -45.3493 C.2       1 UNK         0.5000 
     66 O           5.2358  -11.8366  -44.8202 O.2       1 UNK        -0.5000 
     67 C          -1.2739  -21.6260  -48.4502 C.2       11 UNK         0.5000 
     68 O          -1.3485  -22.5758  -49.2282 O.2       11 UNK        -0.5000 
     69 N          -2.3429  -21.0664  -47.8665 N.am      12 UNK        -0.5000 
     70 CA         -3.7220  -21.5132  -48.0659 C.3       12 UNK         0.1400 
     71 CB         -4.6887  -20.5095  -47.4209 C.3       12 UNK        -0.1800 
     72 C          -3.9837  -22.9412  -47.5507 C.2       12 UNK         0.5000 
     73 O          -4.7419  -23.6769  -48.1800 O.2       12 UNK        -0.5000 
     74 N          -3.3393  -23.3177  -46.4377 N.am      13 UNK        -0.5000 
     75 CA         -3.3691  -24.6711  -45.8832 C.3       13 UNK         0.1400 
     76 CB         -2.7937  -24.6594  -44.4588 C.3       13 UNK        -0.1800 
     77 C          -2.6244  -25.6867  -46.7700 C.2       13 UNK         0.5000 
     78 O          -3.1128  -26.8031  -46.9496 O.2       13 UNK        -0.5000 
     79 N          -1.4705  -25.2804  -47.3209 N.am      14 UNK        -0.5000 
     80 CA         -0.6798  -26.0672  -48.2701 C.3       14 UNK         0.1400 
     81 CB          0.6941  -25.4095  -48.4696 C.3       14 UNK        -0.1800 
     82 C          -1.4006  -26.2592  -49.6177 C.2       14 UNK         0.5000 
     83 O          -1.3739  -27.3585  -50.1745 O.2       14 UNK        -0.5000 
     84 N          -2.0729  -25.2040  -50.0960 N.am      15 UNK        -0.5000 
     85 CA         -2.9485  -25.1950  -51.2678 C.3       15 UNK         0.1400 
     86 CB         -3.1183  -23.7410  -51.7434 C.3       15 UNK        -0.1800 
     87 C          -4.3003  -25.8790  -50.9668 C.2       15 UNK         0.5000 
     88 O          -5.3518  -25.2388  -51.0274 O.2       15 UNK        -0.5000 
     89 N          -4.2434  -27.1813  -50.6510 N.am      16 UNK        -0.5000 
     90 CA         -5.3440  -28.0308  -50.1755 C.3       16 UNK         0.1400 
     91 CB         -4.7845  -29.4298  -49.8713 C.3       16 UNK        -0.1800 
     92 C          -6.5701  -28.1304  -51.1085 C.2       16 UNK         0.5000 
     93 O          -7.6452  -28.5209  -50.6501 O.2       16 UNK        -0.5000 
     94 N          -6.4053  -27.7508  -52.3839 N.am      17 UNK        -0.5000 
     95 CA         -7.4827  -27.5788  -53.3615 C.3       17 UNK         0.1400 
     96 CB         -6.8578  -27.4081  -54.7560 C.3       17 UNK        -0.1800 
     97 C          -8.4225  -26.3923  -53.0478 C.2       17 UNK         0.5000 
     98 O          -9.5011  -26.3147  -53.6374 O.2       17 UNK        -0.5000 
     99 N          -7.9949  -25.4808  -52.1578 N.am      18 UNK        -0.5000 
    100 CA        -8.6709  -24.2818  -51.6446 C.3       18 UNK         0.1400 
    101 CB       -10.0271  -24.6178  -50.9948 C.3       18 UNK        -0.1800 
    102 C         -8.8016  -23.1500  -52.6783 C.2       18 UNK         0.5000 
    103 O         -8.4737  -22.0063  -52.3658 O.2       18 UNK        -0.5000 
    104 N         -9.2221  -23.4839  -53.9042 N.am      19 UNK        -0.5000 
    105 CA        -9.3053  -22.5689  -55.0461 C.3       19 UNK         0.1400 
    106 CB       -10.0814  -23.2598  -56.1780 C.3       19 UNK        -0.1800 
    107 C         -7.9240  -22.0982  -55.5473 C.2       19 UNK         0.5000 
    108 O         -7.8284  -21.0380  -56.1662 O.2       19 UNK        -0.5000 
    109 N         -6.8829  -22.8939  -55.2672 N.am      20 UNK        -0.5000 
    110 CA        -5.4906  -22.6161  -55.6161 C.3       20 UNK         0.1400 
    111 CB        -4.7172  -23.9447  -55.6254 C.3       20 UNK        -0.1800 
    112 C         -4.8076  -21.6005  -54.6776 C.2       20 UNK         0.5000 
    113 O         -3.7618  -21.0629  -55.0477 O.2       20 UNK        -0.5000 
    114 N         -5.3802  -21.3617  -53.4863 N.am      21 UNK        -0.5000 
    115 CA        -4.8503  -20.4547  -52.4653 C.3       21 UNK         0.1400 
    116 CB        -5.7100  -20.5528  -51.1952 C.3       21 UNK        -0.1800 
    117 C         -4.7798  -19.0058  -52.9812 C.2       21 UNK         0.5000 
    118 O         -5.8221  -18.4009  -53.2410 O.2       21 UNK        -0.5000 
    119 N         -3.5501  -18.5066  -53.1578 N.am      22 UNK        -0.5000 
    120 CA        -3.2245  -17.2090  -53.7777 C.3       22 UNK         0.1400 
    121 C         -3.5833  -17.1153  -55.2945 C.2       22 UNK         0.5000 
    122 N         -3.7571  -18.2258  -56.0030 N.am      22 UNK        -0.7600 
    123 O         -3.6720  -16.0246  -55.8527 O.2       22 UNK        -0.5000 
    124 C124       -3.7249  -15.9865  -52.9528 C.3       23 UNK        -0.0398 
    125 S125       -2.9986  -15.9415  -51.2779 S.3       23 UNK        -0.2404 
    126 C126       -1.4912  -14.9691  -51.5972 C.3       23 UNK        -0.0205 
    127 H127        7.9926  -12.4574  -50.1809 H         1 UNK         0.0600 
    128 H128        8.2372  -14.0029  -49.3630 H         1 UNK         0.0600 
    129 H129        9.1755  -12.5886  -48.8748 H         1 UNK         0.0600 
    130 H130        6.6136  -14.4701  -47.9428 H         1 UNK         0.3000 
    131 H131        5.0363  -14.4034  -46.4182 H         1 UNK         0.0600 
    132 H132        3.2847  -12.6372  -46.4454 H         1 UNK         0.0800 
    133 H133        4.2896  -11.6207  -47.4424 H         1 UNK         0.0800 
    134 H134        2.4532  -15.1186  -47.2425 H         1 UNK         0.0800 
    135 H135        1.3201  -13.8151  -47.5203 H         1 UNK         0.0800 
    136 H136       -0.1350  -13.8218  -49.5122 H         1 UNK         0.1150 
    137 H137       -0.1866  -17.3168  -51.9975 H         1 UNK         0.1150 
    138 H138        2.7784  -16.9107  -48.9280 H         1 UNK         0.1150 
    139 H139        2.1884  -18.6058  -51.9506 H         1 UNK         0.0800 
    140 H140        2.8641  -18.8110  -50.3531 H         1 UNK         0.0800 
    141 H141       -0.3569  -19.0176  -48.6741 H         1 UNK         0.0800 
    142 H142        1.3297  -19.3077  -48.3501 H         1 UNK         0.0800 
    143 H143        0.8556  -21.8147  -48.3583 H         1 UNK         0.0600 
    144 H144        0.3886  -19.9738  -46.2661 H         1 UNK         0.3000 
    145 H145       -0.2402  -22.3551  -43.6671 H         1 UNK         0.0600 
    146 H146        1.6188  -21.0663  -42.6631 H         1 UNK         0.0600 
    147 H147        2.0718  -20.4269  -44.2413 H         1 UNK         0.0600 
    148 H148        2.2368  -22.1456  -43.9043 H         1 UNK         0.0600 
    149 H149       -0.1796  -19.5180  -43.6190 H         1 UNK         0.3000 
    150 H150       -3.6456  -18.9935  -44.4747 H         1 UNK         0.0600 
    151 H151       -3.5405  -19.4840  -42.0375 H         1 UNK         0.0600 
    152 H152       -3.5042  -17.7528  -42.3330 H         1 UNK         0.0600 
    153 H153       -2.0219  -18.6079  -41.9076 H         1 UNK         0.0600 
    154 H154       -1.6280  -17.1036  -43.9035 H         1 UNK         0.3000 
    155 H155       -0.3800  -16.7302  -47.2659 H         1 UNK         0.0600 
    156 H156       -2.3660  -15.2730  -47.0570 H         1 UNK         0.0600 
    157 H157       -0.9153  -14.3709  -46.6490 H         1 UNK         0.0600 
    158 H158       -1.9893  -14.9374  -45.3723 H         1 UNK         0.0600 
    159 H159        0.4359  -15.5081  -44.8246 H         1 UNK         0.3000 
    160 H160        2.8376  -17.9834  -43.8571 H         1 UNK         0.0600 
    161 H161        3.1337  -15.0880  -44.8166 H         1 UNK         0.0600 
    162 H162        3.9451  -16.4792  -45.5216 H         1 UNK         0.0600 
    163 H163        4.2986  -16.0108  -43.8713 H         1 UNK         0.0600 
    164 H164        1.8144  -15.4822  -42.7645 H         1 UNK         0.3000 
    165 H165       -0.6873  -16.9765  -40.7499 H         1 UNK         0.0600 
    166 H166        0.5305  -15.9856  -38.8488 H         1 UNK         0.0600 
    167 H167        1.3135  -17.4716  -39.3663 H         1 UNK         0.0600 
    168 H168        2.0134  -15.9179  -39.7946 H         1 UNK         0.0600 
    169 H169        0.5046  -14.3350  -40.9688 H         1 UNK         0.3000 
    170 H170       -1.6589  -13.2368  -43.5770 H         1 UNK         0.0600 
    171 H171       -1.9007  -12.5898  -40.5898 H         1 UNK         0.0600 
    172 H172       -2.4720  -11.5830  -41.9214 H         1 UNK         0.0600 
    173 H173       -3.2144  -13.1459  -41.6202 H         1 UNK         0.0600 
    174 H174        0.0511  -11.7545  -41.8885 H         1 UNK         0.3000 
    175 H175        2.5491  -11.4890  -44.1432 H         1 UNK         0.0600 
    176 H176        1.7924  -10.8640  -41.2336 H         1 UNK         0.0600 
    177 H177        2.9028   -9.9527  -42.2462 H         1 UNK         0.0600 
    178 H178        1.2001  -10.0025  -42.6558 H         1 UNK         0.0600 
    179 H179        4.2862  -12.4569  -43.2007 H         1 UNK         0.3000 
    180 H180        5.2683  -13.4028  -40.2958 H         1 UNK         0.0600 
    181 H181        5.7745  -15.8728  -40.6626 H         1 UNK         0.0600 
    182 H182        4.2563  -16.0007  -41.5482 H         1 UNK         0.0600 
    183 H183        4.2611  -15.5369  -39.8516 H         1 UNK         0.0600 
    184 H184        5.8004  -14.4597  -43.0270 H         1 UNK         0.3000 
    185 H185        7.9355  -11.7738  -43.8199 H         1 UNK         0.0600 
    186 H186        9.6087  -13.5310  -44.3105 H         1 UNK         0.0600 
    187 H187        9.5085  -13.2724  -42.5768 H         1 UNK         0.0600 
    188 H188        8.7426  -14.6847  -43.2945 H         1 UNK         0.0600 
    189 H189        7.4137  -14.0506  -45.3413 H         1 UNK         0.3000 
    190 H190       -2.2096  -20.2525  -47.2708 H         1 UNK         0.3000 
    191 H191       -3.9063  -21.5182  -49.1406 H         1 UNK         0.0600 
    192 H192       -4.5513  -19.5094  -47.8324 H         1 UNK         0.0600 
    193 H193       -4.5459  -20.4501  -46.3420 H         1 UNK         0.0600 
    194 H194       -5.7254  -20.7964  -47.6008 H         1 UNK         0.0600 
    195 H195       -2.8036  -22.6234  -45.9256 H         1 UNK         0.3000 
    196 H196       -4.4127  -24.9866  -45.8213 H         1 UNK         0.0600 
    197 H197       -3.3586  -23.9884  -43.8116 H         1 UNK         0.0600 
    198 H198       -1.7525  -24.3375  -44.4455 H         1 UNK         0.0600 
    199 H199       -2.8356  -25.6540  -44.0133 H         1 UNK         0.0600 
    200 H200       -1.1061  -24.3658  -47.0729 H         1 UNK         0.3000 
    201 H201       -0.5206  -27.0561  -47.8354 H         1 UNK         0.0600 
    202 H202        1.2329  -25.3296  -47.5252 H         1 UNK         0.0600 
    203 H203        0.6064  -24.4071  -48.8888 H         1 UNK         0.0600 
    204 H204        1.3127  -25.9967  -49.1493 H         1 UNK         0.0600 
    205 H205       -1.9929  -24.3215  -49.5969 H         1 UNK         0.3000 
    206 H206       -2.4664  -25.7559  -52.0716 H         1 UNK         0.0600 
    207 H207       -3.5928  -23.1237  -50.9798 H         1 UNK         0.0600 
    208 H208       -2.1567  -23.2886  -51.9881 H         1 UNK         0.0600 
    209 H209       -3.7382  -23.6910  -52.6372 H         1 UNK         0.0600 
    210 H210       -3.3163  -27.5929  -50.6045 H         1 UNK         0.3000 
    211 H211       -5.6973  -27.5949  -49.2376 H         1 UNK         0.0600 
    212 H212       -4.3770  -29.9024  -50.7672 H         1 UNK         0.0600 
    213 H213       -5.5605  -30.0879  -49.4750 H         1 UNK         0.0600 
    214 H214       -3.9906  -29.3815  -49.1251 H         1 UNK         0.0600 
    215 H215       -5.4834  -27.4548  -52.6695 H         1 UNK         0.3000 
    216 H216       -8.0912  -28.4858  -53.3641 H         1 UNK         0.0600 
    217 H217       -7.6280  -27.3036  -55.5216 H         1 UNK         0.0600 
    218 H218       -6.2513  -28.2733  -55.0254 H         1 UNK         0.0600 
    219 H219       -6.2223  -26.5232  -54.8067 H         1 UNK         0.0600 
    220 H220       -7.0593  -25.6067  -51.7772 H         1 UNK         0.3000 
    221 H221       -8.0197  -23.9041  -50.8538 H         1 UNK         0.0600 
    222 H222      -10.7569  -24.9709  -51.7242 H         1 UNK         0.0600 
    223 H223       -9.9171  -25.3874  -50.2304 H         1 UNK         0.0600 
    224 H224      -10.4525  -23.7373  -50.5112 H         1 UNK         0.0600 
    225 H225       -9.4740  -24.4562  -54.0631 H         1 UNK         0.3000 
    226 H226       -9.8631  -21.6831  -54.7342 H         1 UNK         0.0600 
    227 H227      -11.0866  -23.5337  -55.8563 H         1 UNK         0.0600 
    228 H228      -10.1849  -22.6005  -57.0411 H         1 UNK         0.0600 
    229 H229       -9.5779  -24.1672  -56.5151 H         1 UNK         0.0600 
    230 H230       -7.0633  -23.7462  -54.7584 H         1 UNK         0.3000 
    231 H231       -5.4585  -22.1977  -56.6244 H         1 UNK         0.0600 
    232 H232       -3.6665  -23.7866  -55.8736 H         1 UNK         0.0600 
    233 H233       -5.1241  -24.6309  -56.3687 H         1 UNK         0.0600 
    234 H234       -4.7552  -24.4413  -54.6556 H         1 UNK         0.0600 
    235 H235       -6.2744  -21.7868  -53.2836 H         1 UNK         0.3000 
    236 H236       -3.8426  -20.7917  -52.2128 H         1 UNK         0.0600 
    237 H237       -6.7348  -20.2269  -51.3764 H         1 UNK         0.0600 
    238 H238       -5.7465  -21.5751  -50.8172 H         1 UNK         0.0600 
    239 H239       -5.3053  -19.9207  -50.4039 H         1 UNK         0.0600 
    240 H240       -2.7560  -19.0928  -52.9452 H         1 UNK         0.3000 
    241 H241       -2.1352  -17.1626  -53.7738 H         1 UNK         0.0600 
    242 H242       -3.6771  -19.1417  -55.5724 H         1 UNK         0.3800 
    243 H243       -3.9752  -18.1550  -56.9842 H         1 UNK         0.3800 
    244 H244       -4.8113  -16.0010  -52.8610 H         1 UNK         0.0800 
    245 H245       -3.4867  -15.0475  -53.4549 H         1 UNK         0.0800 
    246 H246       -1.2457  -14.9813  -52.6601 H         1 UNK         0.0800 
    247 H247       -1.6799  -13.9260  -51.3386 H         1 UNK         0.0800 
@<TRIPOS>BOND
     1    1    2 1    
     2    1  127 1    
     3    1  128 1    
     4    1  129 1    
     5    2    3 2    
     6    2    4 am   BACKBONE|DICT|INTERRES
     7    4    5 1    
     8    4  130 1    
     9    5    6 1    
    10    5   65 1    
    11    5  131 1    
    12    6    7 1    
    13    6  132 1    
    14    6  133 1    
    15    7    8 1    
    16    8    9 1    
    17    8  134 1    
    18    8  135 1    
    19    9   10 ar   
    20    9   14 ar   
    21   10   11 ar   
    22   10  136 1    
    23   11   12 ar   
    24   11  126 1    
    25   12   13 ar   
    26   12  137 1    
    27   13   14 ar   
    28   13   15 1    
    29   14  138 1    
    30   15   16 1    
    31   15  139 1    
    32   15  140 1    
    33   16   17 1    
    34   17   18 1    
    35   17  141 1    
    36   17  142 1    
    37   18   19 1    
    38   18   67 1    
    39   18  143 1    
    40   19   20 am   BACKBONE|DICT|INTERRES
    41   19  144 1    
    42   20   21 2    
    43   20   22 1    
    44   22   23 1    
    45   22   24 1    
    46   22  145 1    
    47   23  146 1    
    48   23  147 1    
    49   23  148 1    
    50   24   25 am   BACKBONE|DICT|INTERRES
    51   24  149 1    
    52   25   26 2    
    53   25   27 1    
    54   27   28 1    
    55   27   29 1    
    56   27  150 1    
    57   28  151 1    
    58   28  152 1    
    59   28  153 1    
    60   29   30 am   BACKBONE|DICT|INTERRES
    61   29  154 1    
    62   30   31 2    
    63   30   32 1    
    64   32   33 1    
    65   32   34 1    
    66   32  155 1    
    67   33  156 1    
    68   33  157 1    
    69   33  158 1    
    70   34   35 am   BACKBONE|DICT|INTERRES
    71   34  159 1    
    72   35   36 2    
    73   35   37 1    
    74   37   38 1    
    75   37   39 1    
    76   37  160 1    
    77   38  161 1    
    78   38  162 1    
    79   38  163 1    
    80   39   40 am   BACKBONE|DICT|INTERRES
    81   39  164 1    
    82   40   41 2    
    83   40   42 1    
    84   42   43 1    
    85   42   44 1    
    86   42  165 1    
    87   43  166 1    
    88   43  167 1    
    89   43  168 1    
    90   44   45 am   BACKBONE|DICT|INTERRES
    91   44  169 1    
    92   45   46 2    
    93   45   47 1    
    94   47   48 1    
    95   47   49 1    
    96   47  170 1    
    97   48  171 1    
    98   48  172 1    
    99   48  173 1    
   100   49   50 am   BACKBONE|DICT|INTERRES
   101   49  174 1    
   102   50   51 2    
   103   50   52 1    
   104   52   53 1    
   105   52   54 1    
   106   52  175 1    
   107   53  176 1    
   108   53  177 1    
   109   53  178 1    
   110   54   55 am   BACKBONE|DICT|INTERRES
   111   54  179 1    
   112   55   56 2    
   113   55   57 1    
   114   57   58 1    
   115   57   59 1    
   116   57  180 1    
   117   58  181 1    
   118   58  182 1    
   119   58  183 1    
   120   59   60 am   BACKBONE|DICT|INTERRES
   121   59  184 1    
   122   60   61 2    
   123   60   62 1    
   124   62   63 1    
   125   62   64 1    
   126   62  185 1    
   127   63  186 1    
   128   63  187 1    
   129   63  188 1    
   130   64   65 am   BACKBONE|DICT|INTERRES
   131   64  189 1    
   132   65   66 2    
   133   67   68 2    
   134   67   69 am   BACKBONE|DICT|INTERRES
   135   69   70 1    
   136   69  190 1    
   137   70   71 1    
   138   70   72 1    
   139   70  191 1    
   140   71  192 1    
   141   71  193 1    
   142   71  194 1    
   143   72   73 2    
   144   72   74 am   BACKBONE|DICT|INTERRES
   145   74   75 1    
   146   74  195 1    
   147   75   76 1    
   148   75   77 1    
   149   75  196 1    
   150   76  197 1    
   151   76  198 1    
   152   76  199 1    
   153   77   78 2    
   154   77   79 am   BACKBONE|DICT|INTERRES
   155   79   80 1    
   156   79  200 1    
   157   80   81 1    
   158   80   82 1    
   159   80  201 1    
   160   81  202 1    
   161   81  203 1    
   162   81  204 1    
   163   82   83 2    
   164   82   84 am   BACKBONE|DICT|INTERRES
   165   84   85 1    
   166   84  205 1    
   167   85   86 1    
   168   85   87 1    
   169   85  206 1    
   170   86  207 1    
   171   86  208 1    
   172   86  209 1    
   173   87   88 2    
   174   87   89 am   BACKBONE|DICT|INTERRES
   175   89   90 1    
   176   89  210 1    
   177   90   91 1    
   178   90   92 1    
   179   90  211 1    
   180   91  212 1    
   181   91  213 1    
   182   91  214 1    
   183   92   93 2    
   184   92   94 am   BACKBONE|DICT|INTERRES
   185   94   95 1    
   186   94  215 1    
   187   95   96 1    
   188   95   97 1    
   189   95  216 1    
   190   96  217 1    
   191   96  218 1    
   192   96  219 1    
   193   97   98 2    
   194   97   99 am   BACKBONE|DICT|INTERRES
   195   99  100 1    
   196   99  220 1    
   197  100  101 1    
   198  100  102 1    
   199  100  221 1    
   200  101  222 1    
   201  101  223 1    
   202  101  224 1    
   203  102  103 2    
   204  102  104 am   BACKBONE|DICT|INTERRES
   205  104  105 1    
   206  104  225 1    
   207  105  106 1    
   208  105  107 1    
   209  105  226 1    
   210  106  227 1    
   211  106  228 1    
   212  106  229 1    
   213  107  108 2    
   214  107  109 am   BACKBONE|DICT|INTERRES
   215  109  110 1    
   216  109  230 1    
   217  110  111 1    
   218  110  112 1    
   219  110  231 1    
   220  111  232 1    
   221  111  233 1    
   222  111  234 1    
   223  112  113 2    
   224  112  114 am   BACKBONE|DICT|INTERRES
   225  114  115 1    
   226  114  235 1    
   227  115  116 1    
   228  115  117 1    
   229  115  236 1    
   230  116  237 1    
   231  116  238 1    
   232  116  239 1    
   233  117  118 2    
   234  117  119 am   BACKBONE|DICT|INTERRES
   235  119  120 1    
   236  119  240 1    
   237  120  121 1    
   238  120  124 1    
   239  120  241 1    
   240  121  122 am   BACKBONE|DICT|INTERRES
   241  121  123 2    
   242  122  242 1    
   243  122  243 1    
   244  124  125 1    
   245  124  244 1    
   246  124  245 1    
   247  125  126 1    
   248  126  246 1    
   249  126  247 1    
@<TRIPOS>SUBSTRUCTURE
     1 UNK         1 GROUP             0       ****    0 ROOT    
