@<TRIPOS>MOLECULE
3R540
247   249    1
SMALL
USER_CHARGES


@<TRIPOS>ATOM
      1 CA          3.7129  -14.9076  -48.3610 C.3       0 UNK        -0.1800 
      2 C           2.3116  -14.6681  -47.8201 C.2       0 UNK         0.5000 
      3 O           2.1206  -14.5983  -46.6073 O.2       0 UNK        -0.5000 
      4 N           1.3302  -14.5252  -48.7193 N.am      1 UNK        -0.5000 
      5 CA         -0.1037  -14.3958  -48.4160 C.3       1 UNK         0.1400 
      6 C6         -0.9509  -14.5815  -49.7040 C.3       23 UNK        -0.0398 
      7 S7         -2.5969  -15.3359  -49.4547 S.3       23 UNK        -0.2404 
      8 C8         -2.2434  -16.9761  -48.7345 C.3       23 UNK        -0.0205 
      9 C9         -1.2648  -17.8048  -49.5565 C.ar      23 UNK        -0.0193 
     10 C10        -1.7231  -18.6323  -50.5850 C.ar      23 UNK        -0.1150 
     11 C11        -0.8244  -19.3950  -51.3374 C.ar      23 UNK        -0.0193 
     12 C12         0.5429  -19.3188  -51.0593 C.ar      23 UNK        -0.1150 
     13 C13         1.0104  -18.5200  -50.0150 C.ar      23 UNK        -0.0193 
     14 C14         0.1011  -17.7740  -49.2633 C.ar      23 UNK        -0.1150 
     15 C15         2.4959  -18.4703  -49.6937 C.3       23 UNK        -0.0205 
     16 S16         3.0857  -20.0037  -48.9103 S.3       23 UNK        -0.2404 
     17 C17         2.1617  -20.0010  -47.3366 C.3       23 UNK        -0.0398 
     18 CA          1.4905  -21.3585  -47.0231 C.3       11 UNK         0.1400 
     19 N           1.1340  -21.4504  -45.6066 N.am      11 UNK        -0.5000 
     20 C           0.7479  -22.5716  -44.9837 C.2       10 UNK         0.5000 
     21 O           0.6892  -23.6744  -45.5284 O.2       10 UNK        -0.5000 
     22 CA          0.3093  -22.4210  -43.5160 C.3       10 UNK         0.1400 
     23 CB          1.5284  -22.3687  -42.5833 C.3       10 UNK        -0.1800 
     24 N          -0.5215  -21.2348  -43.3033 N.am      10 UNK        -0.5000 
     25 C          -1.7318  -21.0503  -43.8479 C.2       9 UNK         0.5000 
     26 O          -2.2991  -21.8894  -44.5449 O.2       9 UNK        -0.5000 
     27 CA         -2.4059  -19.6879  -43.6143 C.3       9 UNK         0.1400 
     28 CB         -3.0925  -19.6415  -42.2414 C.3       9 UNK        -0.1800 
     29 N          -1.4721  -18.5686  -43.7401 N.am      9 UNK        -0.5000 
     30 C          -0.8804  -18.1977  -44.8847 C.2       8 UNK         0.5000 
     31 O          -1.0495  -18.7683  -45.9609 O.2       8 UNK        -0.5000 
     32 CA          0.0950  -17.0097  -44.7991 C.3       8 UNK         0.1400 
     33 CB         -0.6799  -15.6837  -44.7736 C.3       8 UNK        -0.1800 
     34 N           0.9674  -17.0802  -43.6265 N.am      8 UNK        -0.5000 
     35 C           1.8284  -18.0778  -43.3754 C.2       7 UNK         0.5000 
     36 O           2.0196  -19.0293  -44.1336 O.2       7 UNK        -0.5000 
     37 CA          2.5404  -18.0374  -42.0122 C.3       7 UNK         0.1400 
     38 CB          3.6660  -16.9923  -42.0149 C.3       7 UNK        -0.1800 
     39 N           1.6136  -17.7555  -40.9144 N.am      7 UNK        -0.5000 
     40 C           0.5733  -18.5209  -40.5587 C.2       6 UNK         0.5000 
     41 O           0.3088  -19.5937  -41.0988 O.2       6 UNK        -0.5000 
     42 CA         -0.3706  -17.9848  -39.4630 C.3       6 UNK         0.1400 
     43 CB          0.1554  -18.3159  -38.0534 C.3       6 UNK        -0.1800 
     44 N          -0.7042  -16.5601  -39.6136 N.am      6 UNK        -0.5000 
     45 C           0.0994  -15.4997  -39.4631 C.2       5 UNK         0.5000 
     46 O           1.2704  -15.5711  -39.0805 O.2       5 UNK        -0.5000 
     47 CA         -0.5020  -14.1322  -39.8371 C.3       5 UNK         0.1400 
     48 CB         -1.1976  -13.4976  -38.6234 C.3       5 UNK        -0.1800 
     49 N           0.5265  -13.2164  -40.3302 N.am      5 UNK        -0.5000 
     50 C           1.2376  -13.3964  -41.4502 C.2       4 UNK         0.5000 
     51 O           1.0276  -14.2967  -42.2698 O.2       4 UNK        -0.5000 
     52 CA          2.4122  -12.4327  -41.6520 C.3       4 UNK         0.1400 
     53 CB          3.6464  -12.9292  -40.8714 C.3       4 UNK        -0.1800 
     54 N           2.7140  -12.3245  -43.0752 N.am      4 UNK        -0.5000 
     55 C           3.5110  -11.4013  -43.6252 C.2       3 UNK         0.5000 
     56 O           4.0766  -10.5124  -42.9867 O.2       3 UNK        -0.5000 
     57 CA          3.7024  -11.4755  -45.1482 C.3       3 UNK         0.1400 
     58 CB          4.6556  -12.6212  -45.5210 C.3       3 UNK        -0.1800 
     59 N           2.4338  -11.6155  -45.8687 N.am      3 UNK        -0.5000 
     60 C           1.5642  -10.6058  -46.0424 C.2       2 UNK         0.5000 
     61 O           1.7469   -9.4776  -45.5822 O.2       2 UNK        -0.5000 
     62 CA          0.2970  -10.8730  -46.8809 C.3       2 UNK         0.1400 
     63 CB         -0.0072   -9.7149  -47.8487 C.3       2 UNK        -0.1800 
     64 N           0.4087  -12.1105  -47.6524 N.am      2 UNK        -0.5000 
     65 C          -0.4779  -13.1129  -47.6370 C.2       1 UNK         0.5000 
     66 O          -1.5403  -13.0705  -47.0163 O.2       1 UNK        -0.5000 
     67 C           0.2869  -21.6759  -47.9421 C.2       11 UNK         0.5000 
     68 O           0.4498  -22.4115  -48.9164 O.2       11 UNK        -0.5000 
     69 N          -0.9083  -21.1856  -47.5784 N.am      12 UNK        -0.5000 
     70 CA         -2.1710  -21.5187  -48.2387 C.3       12 UNK         0.1400 
     71 CB         -3.3003  -20.6326  -47.6941 C.3       12 UNK        -0.1800 
     72 C          -2.5350  -23.0046  -48.0851 C.2       12 UNK         0.5000 
     73 O          -2.8649  -23.6512  -49.0770 O.2       12 UNK        -0.5000 
     74 N          -2.4473  -23.5371  -46.8569 N.am      13 UNK        -0.5000 
     75 CA         -2.7311  -24.9369  -46.5218 C.3       13 UNK         0.1400 
     76 CB         -2.6095  -25.1444  -45.0056 C.3       13 UNK        -0.1800 
     77 C          -1.8437  -25.9385  -47.2830 C.2       13 UNK         0.5000 
     78 O          -2.3430  -26.9686  -47.7372 O.2       13 UNK        -0.5000 
     79 N          -0.5643  -25.5857  -47.4695 N.am      14 UNK        -0.5000 
     80 CA          0.4000  -26.3216  -48.2916 C.3       14 UNK         0.1400 
     81 CB          1.8003  -25.7319  -48.0646 C.3       14 UNK        -0.1800 
     82 C           0.0542  -26.3367  -49.7973 C.2       14 UNK         0.5000 
     83 O           0.5281  -27.2179  -50.5147 O.2       14 UNK        -0.5000 
     84 N          -0.7778  -25.3874  -50.2426 N.am      15 UNK        -0.5000 
     85 CA         -1.2877  -25.2458  -51.6044 C.3       15 UNK         0.1400 
     86 CB         -1.0341  -23.8040  -52.0643 C.3       15 UNK        -0.1800 
     87 C          -2.7821  -25.6239  -51.6779 C.2       15 UNK         0.5000 
     88 O          -3.5348  -25.0176  -52.4445 O.2       15 UNK        -0.5000 
     89 N          -3.1797  -26.6202  -50.8715 N.am      16 UNK        -0.5000 
     90 CA         -4.5100  -27.2347  -50.7873 C.3       16 UNK         0.1400 
     91 CB         -4.8958  -27.8975  -52.1270 C.3       16 UNK        -0.1800 
     92 C          -5.6100  -26.2984  -50.2428 C.2       16 UNK         0.5000 
     93 O          -6.7847  -26.4874  -50.5622 O.2       16 UNK        -0.5000 
     94 N          -5.2125  -25.3179  -49.4185 N.am      17 UNK        -0.5000 
     95 CA         -6.0476  -24.3043  -48.7589 C.3       17 UNK         0.1400 
     96 CB         -7.1021  -24.9508  -47.8364 C.3       17 UNK        -0.1800 
     97 C          -6.6479  -23.2626  -49.7257 C.2       17 UNK         0.5000 
     98 O          -7.5643  -22.5329  -49.3426 O.2       17 UNK        -0.5000 
     99 N          -6.1105  -23.1890  -50.9484 N.am      18 UNK        -0.5000 
    100 CA        -6.4336  -22.1707  -51.9416 C.3       18 UNK         0.1400 
    101 CB        -6.2071  -22.7707  -53.3369 C.3       18 UNK        -0.1800 
    102 C         -5.5650  -20.9169  -51.7357 C.2       18 UNK         0.5000 
    103 O         -4.5560  -20.9676  -51.0294 O.2       18 UNK        -0.5000 
    104 N         -5.9567  -19.8179  -52.3845 N.am      19 UNK        -0.5000 
    105 CA        -5.2068  -18.5694  -52.4447 C.3       19 UNK         0.1400 
    106 CB        -5.5357  -17.6863  -51.2291 C.3       19 UNK        -0.1800 
    107 C         -5.5355  -17.8680  -53.7654 C.2       19 UNK         0.5000 
    108 O         -6.6151  -18.0950  -54.3203 O.2       19 UNK        -0.5000 
    109 N         -4.5858  -17.0582  -54.2549 N.am      20 UNK        -0.5000 
    110 CA        -4.5383  -16.3901  -55.5640 C.3       20 UNK         0.1400 
    111 CB        -5.7177  -15.4177  -55.7651 C.3       20 UNK        -0.1800 
    112 C         -4.4059  -17.3947  -56.7246 C.2       20 UNK         0.5000 
    113 O         -3.3879  -17.4006  -57.4167 O.2       20 UNK        -0.5000 
    114 N         -5.4017  -18.2750  -56.8637 N.am      21 UNK        -0.5000 
    115 CA        -5.3838  -19.4678  -57.7038 C.3       21 UNK         0.1400 
    116 CB        -6.7878  -19.6724  -58.3008 C.3       21 UNK        -0.1800 
    117 C         -4.9108  -20.6651  -56.8553 C.2       21 UNK         0.5000 
    118 O         -5.6585  -21.6246  -56.6624 O.2       21 UNK        -0.5000 
    119 N         -3.6882  -20.5492  -56.3214 N.am      22 UNK        -0.5000 
    120 CA        -2.9953  -21.5387  -55.4814 C.3       22 UNK         0.1400 
    121 C         -2.8841  -22.9441  -56.1414 C.2       22 UNK         0.5000 
    122 N         -3.0770  -24.0205  -55.3889 N.am      22 UNK        -0.7600 
    123 O         -2.5734  -23.0663  -57.3244 O.2       22 UNK        -0.5000 
    124 C124       -1.5840  -21.0253  -55.1004 C.3       23 UNK        -0.0398 
    125 S125       -1.6131  -19.5578  -54.0094 S.3       23 UNK        -0.2404 
    126 C126       -1.3178  -20.3579  -52.4033 C.3       23 UNK        -0.0205 
    127 H127        3.6873  -15.3067  -49.3751 H         1 UNK         0.0600 
    128 H128        4.2443  -15.6207  -47.7306 H         1 UNK         0.0600 
    129 H129        4.2763  -13.9759  -48.3777 H         1 UNK         0.0600 
    130 H130        1.5650  -14.5565  -49.7015 H         1 UNK         0.3000 
    131 H131       -0.3286  -15.2112  -47.7312 H         1 UNK         0.0600 
    132 H132       -0.4279  -15.2195  -50.4176 H         1 UNK         0.0800 
    133 H133       -1.0807  -13.6301  -50.2229 H         1 UNK         0.0800 
    134 H134       -3.1922  -17.5063  -48.6535 H         1 UNK         0.0800 
    135 H135       -1.8824  -16.8651  -47.7126 H         1 UNK         0.0800 
    136 H136       -2.7815  -18.7018  -50.7759 H         1 UNK         0.1150 
    137 H137        1.2440  -19.9107  -51.6308 H         1 UNK         0.1150 
    138 H138        0.4611  -17.1758  -48.4413 H         1 UNK         0.1150 
    139 H139        3.0572  -18.3038  -50.6141 H         1 UNK         0.0800 
    140 H140        2.7233  -17.6282  -49.0397 H         1 UNK         0.0800 
    141 H141        1.4304  -19.1938  -47.3050 H         1 UNK         0.0800 
    142 H142        2.8896  -19.7651  -46.5594 H         1 UNK         0.0800 
    143 H143        2.2342  -22.1391  -47.1991 H         1 UNK         0.0600 
    144 H144        1.1900  -20.5904  -45.0693 H         1 UNK         0.3000 
    145 H145       -0.2838  -23.2988  -43.2523 H         1 UNK         0.0600 
    146 H146        1.2219  -22.3399  -41.5375 H         1 UNK         0.0600 
    147 H147        2.1592  -23.2488  -42.7144 H         1 UNK         0.0600 
    148 H148        2.1446  -21.4894  -42.7737 H         1 UNK         0.0600 
    149 H149       -0.1440  -20.5186  -42.6883 H         1 UNK         0.3000 
    150 H150       -3.1756  -19.5651  -44.3794 H         1 UNK         0.0600 
    151 H151       -3.8409  -20.4304  -42.1567 H         1 UNK         0.0600 
    152 H152       -3.6038  -18.6914  -42.0860 H         1 UNK         0.0600 
    153 H153       -2.3818  -19.7798  -41.4271 H         1 UNK         0.0600 
    154 H154       -1.2418  -18.0681  -42.8961 H         1 UNK         0.3000 
    155 H155        0.7236  -17.0266  -45.6919 H         1 UNK         0.0600 
    156 H156       -1.2450  -15.5637  -43.8487 H         1 UNK         0.0600 
    157 H157       -1.3897  -15.6226  -45.5989 H         1 UNK         0.0600 
    158 H158       -0.0047  -14.8325  -44.8617 H         1 UNK         0.0600 
    159 H159        0.9111  -16.3050  -42.9749 H         1 UNK         0.3000 
    160 H160        2.9819  -19.0200  -41.8342 H         1 UNK         0.0600 
    161 H161        4.2052  -16.9895  -41.0675 H         1 UNK         0.0600 
    162 H162        3.2804  -15.9868  -42.1842 H         1 UNK         0.0600 
    163 H163        4.3909  -17.2022  -42.8024 H         1 UNK         0.0600 
    164 H164        1.7502  -16.8897  -40.4010 H         1 UNK         0.3000 
    165 H165       -1.3159  -18.5161  -39.5817 H         1 UNK         0.0600 
    166 H166       -0.5288  -17.9596  -37.2834 H         1 UNK         0.0600 
    167 H167        0.2574  -19.3941  -37.9241 H         1 UNK         0.0600 
    168 H168        1.1344  -17.8757  -37.8635 H         1 UNK         0.0600 
    169 H169       -1.6469  -16.3848  -39.9330 H         1 UNK         0.3000 
    170 H170       -1.2374  -14.2752  -40.6318 H         1 UNK         0.0600 
    171 H171       -1.9925  -14.1422  -38.2459 H         1 UNK         0.0600 
    172 H172       -0.4987  -13.3251  -37.8038 H         1 UNK         0.0600 
    173 H173       -1.6527  -12.5418  -38.8839 H         1 UNK         0.0600 
    174 H174        0.7965  -12.4761  -39.6995 H         1 UNK         0.3000 
    175 H175        2.1172  -11.4487  -41.2815 H         1 UNK         0.0600 
    176 H176        4.0212  -13.8713  -41.2718 H         1 UNK         0.0600 
    177 H177        4.4611  -12.2062  -40.9044 H         1 UNK         0.0600 
    178 H178        3.4086  -13.0932  -39.8195 H         1 UNK         0.0600 
    179 H179        2.2600  -13.0184  -43.6563 H         1 UNK         0.3000 
    180 H180        4.1753  -10.5433  -45.4656 H         1 UNK         0.0600 
    181 H181        4.2349  -13.5976  -45.2794 H         1 UNK         0.0600 
    182 H182        5.6004  -12.5318  -44.9834 H         1 UNK         0.0600 
    183 H183        4.8896  -12.6040  -46.5844 H         1 UNK         0.0600 
    184 H184        2.1996  -12.5427  -46.2049 H         1 UNK         0.3000 
    185 H185       -0.5245  -10.9424  -46.1652 H         1 UNK         0.0600 
    186 H186       -0.1586   -8.7781  -47.3109 H         1 UNK         0.0600 
    187 H187        0.8067   -9.5609  -48.5581 H         1 UNK         0.0600 
    188 H188       -0.9163   -9.9080  -48.4186 H         1 UNK         0.0600 
    189 H189        1.2551  -12.2270  -48.1915 H         1 UNK         0.3000 
    190 H190       -0.9597  -20.5334  -46.8019 H         1 UNK         0.3000 
    191 H191       -2.0573  -21.3089  -49.3041 H         1 UNK         0.0600 
    192 H192       -3.5143  -20.8381  -46.6459 H         1 UNK         0.0600 
    193 H193       -4.2221  -20.7909  -48.2550 H         1 UNK         0.0600 
    194 H194       -3.0445  -19.5793  -47.7760 H         1 UNK         0.0600 
    195 H195       -2.2121  -22.9268  -46.0769 H         1 UNK         0.3000 
    196 H196       -3.7659  -25.1380  -46.8037 H         1 UNK         0.0600 
    197 H197       -2.8391  -26.1750  -44.7322 H         1 UNK         0.0600 
    198 H198       -3.3037  -24.5026  -44.4631 H         1 UNK         0.0600 
    199 H199       -1.6030  -24.9263  -44.6490 H         1 UNK         0.0600 
    200 H200       -0.2251  -24.7409  -47.0197 H         1 UNK         0.3000 
    201 H201        0.4070  -27.3584  -47.9494 H         1 UNK         0.0600 
    202 H202        2.0842  -25.7829  -47.0133 H         1 UNK         0.0600 
    203 H203        1.8508  -24.6876  -48.3739 H         1 UNK         0.0600 
    204 H204        2.5535  -26.2798  -48.6320 H         1 UNK         0.0600 
    205 H205       -1.1517  -24.7195  -49.5775 H         1 UNK         0.3000 
    206 H206       -0.7556  -25.9157  -52.2822 H         1 UNK         0.0600 
    207 H207       -1.3235  -23.6654  -53.1052 H         1 UNK         0.0600 
    208 H208       -1.6019  -23.0964  -51.4599 H         1 UNK         0.0600 
    209 H209        0.0213  -23.5437  -51.9815 H         1 UNK         0.0600 
    210 H210       -2.4914  -27.0026  -50.2368 H         1 UNK         0.3000 
    211 H211       -4.4164  -28.0318  -50.0484 H         1 UNK         0.0600 
    212 H212       -5.0889  -27.1578  -52.9045 H         1 UNK         0.0600 
    213 H213       -5.7983  -28.5004  -52.0205 H         1 UNK         0.0600 
    214 H214       -4.1064  -28.5601  -52.4817 H         1 UNK         0.0600 
    215 H215       -4.2145  -25.1815  -49.2971 H         1 UNK         0.3000 
    216 H216       -5.3772  -23.7382  -48.1133 H         1 UNK         0.0600 
    217 H217       -7.5887  -24.1990  -47.2141 H         1 UNK         0.0600 
    218 H218       -6.6462  -25.6785  -47.1651 H         1 UNK         0.0600 
    219 H219       -7.8845  -25.4568  -48.4021 H         1 UNK         0.0600 
    220 H220       -5.3211  -23.7847  -51.1604 H         1 UNK         0.3000 
    221 H221       -7.4839  -21.8858  -51.8503 H         1 UNK         0.0600 
    222 H222       -5.1685  -23.0649  -53.4827 H         1 UNK         0.0600 
    223 H223       -6.8267  -23.6543  -53.4913 H         1 UNK         0.0600 
    224 H224       -6.4622  -22.0562  -54.1196 H         1 UNK         0.0600 
    225 H225       -6.7705  -19.8389  -52.9868 H         1 UNK         0.3000 
    226 H226       -4.1420  -18.8005  -52.4606 H         1 UNK         0.0600 
    227 H227       -4.9755  -16.7510  -51.2611 H         1 UNK         0.0600 
    228 H228       -6.5963  -17.4357  -51.1917 H         1 UNK         0.0600 
    229 H229       -5.2763  -18.1863  -50.2957 H         1 UNK         0.0600 
    230 H230       -3.7362  -16.9643  -53.7153 H         1 UNK         0.3000 
    231 H231       -3.6253  -15.7924  -55.5595 H         1 UNK         0.0600 
    232 H232       -5.7644  -14.6865  -54.9582 H         1 UNK         0.0600 
    233 H233       -6.6789  -15.9298  -55.8069 H         1 UNK         0.0600 
    234 H234       -5.6061  -14.8647  -56.6984 H         1 UNK         0.0600 
    235 H235       -6.1411  -18.2342  -56.1671 H         1 UNK         0.3000 
    236 H236       -4.6797  -19.3429  -58.5290 H         1 UNK         0.0600 
    237 H237       -6.8152  -20.5542  -58.9420 H         1 UNK         0.0600 
    238 H238       -7.5417  -19.8048  -57.5236 H         1 UNK         0.0600 
    239 H239       -7.0832  -18.8184  -58.9104 H         1 UNK         0.0600 
    240 H240       -3.1597  -19.7150  -56.5344 H         1 UNK         0.3000 
    241 H241       -3.5799  -21.6437  -54.5662 H         1 UNK         0.0600 
    242 H242       -3.3244  -23.9760  -54.4090 H         1 UNK         0.3800 
    243 H243       -2.9909  -24.9260  -55.8226 H         1 UNK         0.3800 
    244 H244       -1.0006  -21.8136  -54.6231 H         1 UNK         0.0800 
    245 H245       -1.0253  -20.7640  -56.0010 H         1 UNK         0.0800 
    246 H246       -2.2302  -20.8509  -52.0712 H         1 UNK         0.0800 
    247 H247       -0.5714  -21.1419  -52.5255 H         1 UNK         0.0800 
@<TRIPOS>BOND
     1    1    2 1    
     2    1  127 1    
     3    1  128 1    
     4    1  129 1    
     5    2    3 2    
     6    2    4 am   BACKBONE|DICT|INTERRES
     7    4    5 1    
     8    4  130 1    
     9    5    6 1    
    10    5   65 1    
    11    5  131 1    
    12    6    7 1    
    13    6  132 1    
    14    6  133 1    
    15    7    8 1    
    16    8    9 1    
    17    8  134 1    
    18    8  135 1    
    19    9   10 ar   
    20    9   14 ar   
    21   10   11 ar   
    22   10  136 1    
    23   11   12 ar   
    24   11  126 1    
    25   12   13 ar   
    26   12  137 1    
    27   13   14 ar   
    28   13   15 1    
    29   14  138 1    
    30   15   16 1    
    31   15  139 1    
    32   15  140 1    
    33   16   17 1    
    34   17   18 1    
    35   17  141 1    
    36   17  142 1    
    37   18   19 1    
    38   18   67 1    
    39   18  143 1    
    40   19   20 am   BACKBONE|DICT|INTERRES
    41   19  144 1    
    42   20   21 2    
    43   20   22 1    
    44   22   23 1    
    45   22   24 1    
    46   22  145 1    
    47   23  146 1    
    48   23  147 1    
    49   23  148 1    
    50   24   25 am   BACKBONE|DICT|INTERRES
    51   24  149 1    
    52   25   26 2    
    53   25   27 1    
    54   27   28 1    
    55   27   29 1    
    56   27  150 1    
    57   28  151 1    
    58   28  152 1    
    59   28  153 1    
    60   29   30 am   BACKBONE|DICT|INTERRES
    61   29  154 1    
    62   30   31 2    
    63   30   32 1    
    64   32   33 1    
    65   32   34 1    
    66   32  155 1    
    67   33  156 1    
    68   33  157 1    
    69   33  158 1    
    70   34   35 am   BACKBONE|DICT|INTERRES
    71   34  159 1    
    72   35   36 2    
    73   35   37 1    
    74   37   38 1    
    75   37   39 1    
    76   37  160 1    
    77   38  161 1    
    78   38  162 1    
    79   38  163 1    
    80   39   40 am   BACKBONE|DICT|INTERRES
    81   39  164 1    
    82   40   41 2    
    83   40   42 1    
    84   42   43 1    
    85   42   44 1    
    86   42  165 1    
    87   43  166 1    
    88   43  167 1    
    89   43  168 1    
    90   44   45 am   BACKBONE|DICT|INTERRES
    91   44  169 1    
    92   45   46 2    
    93   45   47 1    
    94   47   48 1    
    95   47   49 1    
    96   47  170 1    
    97   48  171 1    
    98   48  172 1    
    99   48  173 1    
   100   49   50 am   BACKBONE|DICT|INTERRES
   101   49  174 1    
   102   50   51 2    
   103   50   52 1    
   104   52   53 1    
   105   52   54 1    
   106   52  175 1    
   107   53  176 1    
   108   53  177 1    
   109   53  178 1    
   110   54   55 am   BACKBONE|DICT|INTERRES
   111   54  179 1    
   112   55   56 2    
   113   55   57 1    
   114   57   58 1    
   115   57   59 1    
   116   57  180 1    
   117   58  181 1    
   118   58  182 1    
   119   58  183 1    
   120   59   60 am   BACKBONE|DICT|INTERRES
   121   59  184 1    
   122   60   61 2    
   123   60   62 1    
   124   62   63 1    
   125   62   64 1    
   126   62  185 1    
   127   63  186 1    
   128   63  187 1    
   129   63  188 1    
   130   64   65 am   BACKBONE|DICT|INTERRES
   131   64  189 1    
   132   65   66 2    
   133   67   68 2    
   134   67   69 am   BACKBONE|DICT|INTERRES
   135   69   70 1    
   136   69  190 1    
   137   70   71 1    
   138   70   72 1    
   139   70  191 1    
   140   71  192 1    
   141   71  193 1    
   142   71  194 1    
   143   72   73 2    
   144   72   74 am   BACKBONE|DICT|INTERRES
   145   74   75 1    
   146   74  195 1    
   147   75   76 1    
   148   75   77 1    
   149   75  196 1    
   150   76  197 1    
   151   76  198 1    
   152   76  199 1    
   153   77   78 2    
   154   77   79 am   BACKBONE|DICT|INTERRES
   155   79   80 1    
   156   79  200 1    
   157   80   81 1    
   158   80   82 1    
   159   80  201 1    
   160   81  202 1    
   161   81  203 1    
   162   81  204 1    
   163   82   83 2    
   164   82   84 am   BACKBONE|DICT|INTERRES
   165   84   85 1    
   166   84  205 1    
   167   85   86 1    
   168   85   87 1    
   169   85  206 1    
   170   86  207 1    
   171   86  208 1    
   172   86  209 1    
   173   87   88 2    
   174   87   89 am   BACKBONE|DICT|INTERRES
   175   89   90 1    
   176   89  210 1    
   177   90   91 1    
   178   90   92 1    
   179   90  211 1    
   180   91  212 1    
   181   91  213 1    
   182   91  214 1    
   183   92   93 2    
   184   92   94 am   BACKBONE|DICT|INTERRES
   185   94   95 1    
   186   94  215 1    
   187   95   96 1    
   188   95   97 1    
   189   95  216 1    
   190   96  217 1    
   191   96  218 1    
   192   96  219 1    
   193   97   98 2    
   194   97   99 am   BACKBONE|DICT|INTERRES
   195   99  100 1    
   196   99  220 1    
   197  100  101 1    
   198  100  102 1    
   199  100  221 1    
   200  101  222 1    
   201  101  223 1    
   202  101  224 1    
   203  102  103 2    
   204  102  104 am   BACKBONE|DICT|INTERRES
   205  104  105 1    
   206  104  225 1    
   207  105  106 1    
   208  105  107 1    
   209  105  226 1    
   210  106  227 1    
   211  106  228 1    
   212  106  229 1    
   213  107  108 2    
   214  107  109 am   BACKBONE|DICT|INTERRES
   215  109  110 1    
   216  109  230 1    
   217  110  111 1    
   218  110  112 1    
   219  110  231 1    
   220  111  232 1    
   221  111  233 1    
   222  111  234 1    
   223  112  113 2    
   224  112  114 am   BACKBONE|DICT|INTERRES
   225  114  115 1    
   226  114  235 1    
   227  115  116 1    
   228  115  117 1    
   229  115  236 1    
   230  116  237 1    
   231  116  238 1    
   232  116  239 1    
   233  117  118 2    
   234  117  119 am   BACKBONE|DICT|INTERRES
   235  119  120 1    
   236  119  240 1    
   237  120  121 1    
   238  120  124 1    
   239  120  241 1    
   240  121  122 am   BACKBONE|DICT|INTERRES
   241  121  123 2    
   242  122  242 1    
   243  122  243 1    
   244  124  125 1    
   245  124  244 1    
   246  124  245 1    
   247  125  126 1    
   248  126  246 1    
   249  126  247 1    
@<TRIPOS>SUBSTRUCTURE
     1 UNK         1 GROUP             0       ****    0 ROOT    
