@<TRIPOS>MOLECULE
3R540
247   249    1
SMALL
USER_CHARGES


@<TRIPOS>ATOM
      1 CA          1.4668   -9.6078  -46.0655 C.3       0 UNK        -0.1800 
      2 C           0.7555  -10.9529  -46.0675 C.2       0 UNK         0.5000 
      3 O          -0.3948  -11.0371  -45.6359 O.2       0 UNK        -0.5000 
      4 N           1.4407  -12.0063  -46.5348 N.am      1 UNK        -0.5000 
      5 CA          0.9744  -13.3975  -46.5732 C.3       1 UNK         0.1400 
      6 C6         -0.1325  -13.6249  -47.6408 C.3       23 UNK        -0.0398 
      7 S7         -0.2274  -15.3673  -48.1787 S.3       23 UNK        -0.2404 
      8 C8          0.8124  -15.3163  -49.6686 C.3       23 UNK        -0.0205 
      9 C9          1.0515  -16.7011  -50.2534 C.ar      23 UNK        -0.0193 
     10 C10         0.3716  -17.1134  -51.4043 C.ar      23 UNK        -0.1150 
     11 C11         0.6530  -18.3467  -52.0038 C.ar      23 UNK        -0.0193 
     12 C12         1.6269  -19.1710  -51.4247 C.ar      23 UNK        -0.1150 
     13 C13         2.3004  -18.7805  -50.2638 C.ar      23 UNK        -0.0193 
     14 C14         2.0053  -17.5460  -49.6796 C.ar      23 UNK        -0.1150 
     15 C15         3.3906  -19.6694  -49.6833 C.3       23 UNK        -0.0205 
     16 S16         2.7260  -21.1912  -48.9405 S.3       23 UNK        -0.2404 
     17 C17         2.0549  -20.5692  -47.3649 C.3       23 UNK        -0.0398 
     18 CA          0.7591  -21.3093  -46.9529 C.3       11 UNK         0.1400 
     19 N           0.6286  -21.4179  -45.4980 N.am      11 UNK        -0.5000 
     20 C          -0.2696  -22.1862  -44.8657 C.2       10 UNK         0.5000 
     21 O          -1.0406  -22.9517  -45.4444 O.2       10 UNK        -0.5000 
     22 CA         -0.3656  -22.0182  -43.3363 C.3       10 UNK         0.1400 
     23 CB          0.6750  -22.8844  -42.6118 C.3       10 UNK        -0.1800 
     24 N          -0.2192  -20.6183  -42.9307 N.am      10 UNK        -0.5000 
     25 C          -1.0936  -19.6561  -43.2561 C.2       9 UNK         0.5000 
     26 O          -2.1603  -19.8772  -43.8280 O.2       9 UNK        -0.5000 
     27 CA         -0.6895  -18.2038  -42.9519 C.3       9 UNK         0.1400 
     28 CB         -1.0695  -17.8157  -41.5149 C.3       9 UNK        -0.1800 
     29 N           0.7355  -17.9509  -43.1875 N.am      9 UNK        -0.5000 
     30 C           1.3183  -17.9644  -44.3956 C.2       8 UNK         0.5000 
     31 O           0.6920  -18.1068  -45.4413 O.2       8 UNK        -0.5000 
     32 CA          2.8557  -17.8865  -44.4588 C.3       8 UNK         0.1400 
     33 CB          3.3608  -16.4474  -44.6049 C.3       8 UNK        -0.1800 
     34 N           3.4871  -18.5089  -43.2998 N.am      8 UNK        -0.5000 
     35 C           3.5426  -19.8312  -43.0973 C.2       7 UNK         0.5000 
     36 O           3.1160  -20.6610  -43.9001 O.2       7 UNK        -0.5000 
     37 CA          4.1232  -20.2901  -41.7472 C.3       7 UNK         0.1400 
     38 CB          5.6553  -20.3703  -41.8147 C.3       7 UNK        -0.1800 
     39 N           3.7297  -19.4019  -40.6500 N.am      7 UNK        -0.5000 
     40 C           2.4727  -19.2747  -40.2010 C.2       6 UNK         0.5000 
     41 O           1.5322  -19.9467  -40.6232 O.2       6 UNK        -0.5000 
     42 CA          2.2164  -18.1815  -39.1454 C.3       6 UNK         0.1400 
     43 CB          2.4319  -18.7378  -37.7304 C.3       6 UNK        -0.1800 
     44 N           3.0552  -16.9932  -39.3348 N.am      6 UNK        -0.5000 
     45 C           2.9611  -16.1537  -40.3747 C.2       5 UNK         0.5000 
     46 O           2.1432  -16.2829  -41.2868 O.2       5 UNK        -0.5000 
     47 CA          4.0029  -15.0309  -40.4385 C.3       5 UNK         0.1400 
     48 CB          5.3308  -15.5802  -40.9991 C.3       5 UNK        -0.1800 
     49 N           3.5185  -13.9362  -41.2791 N.am      5 UNK        -0.5000 
     50 C           4.0479  -12.7057  -41.2997 C.2       4 UNK         0.5000 
     51 O           4.9718  -12.3504  -40.5661 O.2       4 UNK        -0.5000 
     52 CA          3.4654  -11.6967  -42.3031 C.3       4 UNK         0.1400 
     53 CB          4.0821  -11.8999  -43.6965 C.3       4 UNK        -0.1800 
     54 N           2.0066  -11.7627  -42.3917 N.am      4 UNK        -0.5000 
     55 C           1.1779  -11.1182  -41.5555 C.2       3 UNK         0.5000 
     56 O           1.5708  -10.4571  -40.5932 O.2       3 UNK        -0.5000 
     57 CA         -0.3375  -11.1803  -41.8396 C.3       3 UNK         0.1400 
     58 CB         -0.8328   -9.8402  -42.4061 C.3       3 UNK        -0.1800 
     59 N          -0.7043  -12.2510  -42.7655 N.am      3 UNK        -0.5000 
     60 C          -0.8686  -13.5293  -42.3991 C.2       2 UNK         0.5000 
     61 O          -0.8172  -13.9108  -41.2297 O.2       2 UNK        -0.5000 
     62 CA         -1.1067  -14.5666  -43.5160 C.3       2 UNK         0.1400 
     63 CB         -2.5934  -14.9433  -43.6001 C.3       2 UNK        -0.1800 
     64 N          -0.6371  -14.1681  -44.8452 N.am      2 UNK        -0.5000 
     65 C           0.6357  -13.8760  -45.1427 C.2       1 UNK         0.5000 
     66 O           1.5365  -13.9033  -44.3047 O.2       1 UNK        -0.5000 
     67 C          -0.5006  -20.6928  -47.6019 C.2       11 UNK         0.5000 
     68 O          -0.9758  -21.2138  -48.6083 O.2       11 UNK        -0.5000 
     69 N          -1.0588  -19.6417  -46.9838 N.am      12 UNK        -0.5000 
     70 CA         -2.3127  -18.9983  -47.3818 C.3       12 UNK         0.1400 
     71 CB         -2.5587  -17.7498  -46.5198 C.3       12 UNK        -0.1800 
     72 C          -3.5192  -19.9500  -47.2935 C.2       12 UNK         0.5000 
     73 O          -4.3505  -19.9589  -48.1997 O.2       12 UNK        -0.5000 
     74 N          -3.5795  -20.7579  -46.2253 N.am      13 UNK        -0.5000 
     75 CA         -4.5866  -21.8028  -46.0366 C.3       13 UNK         0.1400 
     76 CB         -4.4812  -22.3767  -44.6161 C.3       13 UNK        -0.1800 
     77 C          -4.4804  -22.9155  -47.0957 C.2       13 UNK         0.5000 
     78 O          -5.5034  -23.3417  -47.6326 O.2       13 UNK        -0.5000 
     79 N          -3.2463  -23.3287  -47.4184 N.am      14 UNK        -0.5000 
     80 CA         -2.9520  -24.2687  -48.5004 C.3       14 UNK         0.1400 
     81 CB         -1.4750  -24.6864  -48.4479 C.3       14 UNK        -0.1800 
     82 C          -3.3253  -23.7060  -49.8848 C.2       14 UNK         0.5000 
     83 O          -3.9197  -24.4264  -50.6835 O.2       14 UNK        -0.5000 
     84 N          -3.0221  -22.4235  -50.1261 N.am      15 UNK        -0.5000 
     85 CA         -3.3821  -21.6856  -51.3386 C.3       15 UNK         0.1400 
     86 CB         -2.7034  -20.3086  -51.3185 C.3       15 UNK        -0.1800 
     87 C          -4.9018  -21.5210  -51.5211 C.2       15 UNK         0.5000 
     88 O          -5.3815  -21.5580  -52.6527 O.2       15 UNK        -0.5000 
     89 N          -5.6322  -21.3463  -50.4116 N.am      16 UNK        -0.5000 
     90 CA         -7.0926  -21.2848  -50.3854 C.3       16 UNK         0.1400 
     91 CB         -7.5617  -20.7287  -49.0324 C.3       16 UNK        -0.1800 
     92 C          -7.7404  -22.6512  -50.6730 C.2       16 UNK         0.5000 
     93 O          -8.7630  -22.7006  -51.3567 O.2       16 UNK        -0.5000 
     94 N          -7.1343  -23.7317  -50.1596 N.am      17 UNK        -0.5000 
     95 CA         -7.5464  -25.1115  -50.4160 C.3       17 UNK         0.1400 
     96 CB         -6.8608  -26.0525  -49.4126 C.3       17 UNK        -0.1800 
     97 C          -7.2575  -25.5312  -51.8686 C.2       17 UNK         0.5000 
     98 O          -8.1663  -25.9742  -52.5725 O.2       17 UNK        -0.5000 
     99 N          -6.0086  -25.3389  -52.3103 N.am      18 UNK        -0.5000 
    100 CA        -5.5461  -25.5649  -53.6781 C.3       18 UNK         0.1400 
    101 CB        -4.0628  -25.9719  -53.6421 C.3       18 UNK        -0.1800 
    102 C         -5.8010  -24.3094  -54.5335 C.2       18 UNK         0.5000 
    103 O         -4.8591  -23.6886  -55.0321 O.2       18 UNK        -0.5000 
    104 N         -7.0861  -23.9571  -54.6725 N.am      19 UNK        -0.5000 
    105 CA        -7.5951  -22.7267  -55.2872 C.3       19 UNK         0.1400 
    106 CB        -9.1183  -22.6787  -55.0903 C.3       19 UNK        -0.1800 
    107 C         -7.2436  -22.5281  -56.7759 C.2       19 UNK         0.5000 
    108 O         -7.3949  -21.4161  -57.2854 O.2       19 UNK        -0.5000 
    109 N         -6.7767  -23.5868  -57.4502 N.am      20 UNK        -0.5000 
    110 CA        -6.3001  -23.5972  -58.8333 C.3       20 UNK         0.1400 
    111 CB        -6.2651  -25.0559  -59.3242 C.3       20 UNK        -0.1800 
    112 C         -4.9384  -22.8817  -58.9927 C.2       20 UNK         0.5000 
    113 O         -3.9456  -23.5123  -59.3599 O.2       20 UNK        -0.5000 
    114 N         -4.9324  -21.5710  -58.7134 N.am      21 UNK        -0.5000 
    115 CA        -3.8165  -20.6278  -58.8275 C.3       21 UNK         0.1400 
    116 CB        -3.4213  -20.4332  -60.3071 C.3       21 UNK        -0.1800 
    117 C         -2.6206  -20.9856  -57.9199 C.2       21 UNK         0.5000 
    118 O         -1.4804  -21.0179  -58.3872 O.2       21 UNK        -0.5000 
    119 N         -2.9067  -21.2227  -56.6312 N.am      22 UNK        -0.5000 
    120 CA        -1.9288  -21.5758  -55.5873 C.3       22 UNK         0.1400 
    121 C         -1.3331  -22.9985  -55.8044 C.2       22 UNK         0.5000 
    122 N         -2.1732  -24.0230  -55.8379 N.am      22 UNK        -0.7600 
    123 O         -0.1287  -23.1867  -55.9577 O.2       22 UNK        -0.5000 
    124 C124       -0.8601  -20.4623  -55.3739 C.3       23 UNK        -0.0398 
    125 S125       -0.1039  -20.4937  -53.7129 S.3       23 UNK        -0.2404 
    126 C126       -0.0614  -18.7107  -53.3085 C.3       23 UNK        -0.0205 
    127 H127        0.8720   -8.8676  -46.6005 H         1 UNK         0.0600 
    128 H128        2.4459   -9.6661  -46.5414 H         1 UNK         0.0600 
    129 H129        1.6063   -9.2609  -45.0417 H         1 UNK         0.0600 
    130 H130        2.3913  -11.8670  -46.8474 H         1 UNK         0.3000 
    131 H131        1.8486  -13.9760  -46.8762 H         1 UNK         0.0600 
    132 H132        0.0776  -13.0143  -48.5201 H         1 UNK         0.0800 
    133 H133       -1.1117  -13.2896  -47.2970 H         1 UNK         0.0800 
    134 H134        1.7731  -14.8607  -49.4237 H         1 UNK         0.0800 
    135 H135        0.3449  -14.6664  -50.4100 H         1 UNK         0.0800 
    136 H136       -0.3582  -16.4555  -51.8553 H         1 UNK         0.1150 
    137 H137        1.8844  -20.1164  -51.8791 H         1 UNK         0.1150 
    138 H138        2.5364  -17.2266  -48.7938 H         1 UNK         0.1150 
    139 H139        4.0812  -19.9449  -50.4816 H         1 UNK         0.0800 
    140 H140        3.9843  -19.1313  -48.9425 H         1 UNK         0.0800 
    141 H141        1.9016  -19.4900  -47.4124 H         1 UNK         0.0800 
    142 H142        2.8345  -20.7265  -46.6185 H         1 UNK         0.0800 
    143 H143        0.8289  -22.3377  -47.3147 H         1 UNK         0.0600 
    144 H144        1.2611  -20.8586  -44.9386 H         1 UNK         0.3000 
    145 H145       -1.3574  -22.3549  -43.0271 H         1 UNK         0.0600 
    146 H146        0.5832  -22.7874  -41.5298 H         1 UNK         0.0600 
    147 H147        1.6938  -22.6125  -42.8855 H         1 UNK         0.0600 
    148 H148        0.5409  -23.9384  -42.8576 H         1 UNK         0.0600 
    149 H149        0.6016  -20.3724  -42.3876 H         1 UNK         0.3000 
    150 H150       -1.2554  -17.5706  -43.6356 H         1 UNK         0.0600 
    151 H151       -2.1516  -17.8432  -41.3830 H         1 UNK         0.0600 
    152 H152       -0.7372  -16.8074  -41.2682 H         1 UNK         0.0600 
    153 H153       -0.6381  -18.4963  -40.7825 H         1 UNK         0.0600 
    154 H154        1.3039  -17.7281  -42.3779 H         1 UNK         0.3000 
    155 H155        3.1697  -18.4318  -45.3513 H         1 UNK         0.0600 
    156 H156        2.9082  -15.9636  -45.4706 H         1 UNK         0.0600 
    157 H157        4.4409  -16.4219  -44.7489 H         1 UNK         0.0600 
    158 H158        3.1295  -15.8483  -43.7253 H         1 UNK         0.0600 
    159 H159        3.8204  -17.8909  -42.5763 H         1 UNK         0.3000 
    160 H160        3.7349  -21.2894  -41.5384 H         1 UNK         0.0600 
    161 H161        6.1041  -19.3938  -42.0012 H         1 UNK         0.0600 
    162 H162        5.9754  -21.0376  -42.6161 H         1 UNK         0.0600 
    163 H163        6.0706  -20.7589  -40.8847 H         1 UNK         0.0600 
    164 H164        4.4512  -18.8262  -40.2425 H         1 UNK         0.3000 
    165 H165        1.1726  -17.8738  -39.2339 H         1 UNK         0.0600 
    166 H166        2.1762  -17.9972  -36.9724 H         1 UNK         0.0600 
    167 H167        1.8022  -19.6111  -37.5547 H         1 UNK         0.0600 
    168 H168        3.4670  -19.0413  -37.5686 H         1 UNK         0.0600 
    169 H169        3.7580  -16.8237  -38.6294 H         1 UNK         0.3000 
    170 H170        4.1593  -14.6560  -39.4248 H         1 UNK         0.0600 
    171 H171        5.2209  -15.9192  -42.0298 H         1 UNK         0.0600 
    172 H172        6.1157  -14.8243  -40.9814 H         1 UNK         0.0600 
    173 H173        5.6919  -16.4247  -40.4110 H         1 UNK         0.0600 
    174 H174        2.7379  -14.1678  -41.8824 H         1 UNK         0.3000 
    175 H175        3.7498  -10.6963  -41.9690 H         1 UNK         0.0600 
    176 H176        3.9106  -12.9067  -44.0773 H         1 UNK         0.0600 
    177 H177        3.6738  -11.1920  -44.4174 H         1 UNK         0.0600 
    178 H178        5.1615  -11.7466  -43.6666 H         1 UNK         0.0600 
    179 H179        1.6262  -12.3565  -43.1218 H         1 UNK         0.3000 
    180 H180       -0.8431  -11.3447  -40.8856 H         1 UNK         0.0600 
    181 H181       -1.9061   -9.8634  -42.5957 H         1 UNK         0.0600 
    182 H182       -0.3322   -9.5862  -43.3404 H         1 UNK         0.0600 
    183 H183       -0.6451   -9.0267  -41.7043 H         1 UNK         0.0600 
    184 H184       -0.7522  -12.0066  -43.7488 H         1 UNK         0.3000 
    185 H185       -0.5323  -15.4467  -43.2342 H         1 UNK         0.0600 
    186 H186       -3.2077  -14.0868  -43.8801 H         1 UNK         0.0600 
    187 H187       -2.7637  -15.7311  -44.3331 H         1 UNK         0.0600 
    188 H188       -2.9584  -15.3103  -42.6399 H         1 UNK         0.0600 
    189 H189       -1.3373  -14.0975  -45.5682 H         1 UNK         0.3000 
    190 H190       -0.5541  -19.2098  -46.2139 H         1 UNK         0.3000 
    191 H191       -2.1982  -18.6805  -48.4199 H         1 UNK         0.0600 
    192 H192       -1.6680  -17.1287  -46.4466 H         1 UNK         0.0600 
    193 H193       -2.8619  -18.0071  -45.5058 H         1 UNK         0.0600 
    194 H194       -3.3519  -17.1363  -46.9482 H         1 UNK         0.0600 
    195 H195       -2.8938  -20.6383  -45.4857 H         1 UNK         0.3000 
    196 H196       -5.5697  -21.3392  -46.1408 H         1 UNK         0.0600 
    197 H197       -4.6069  -21.5958  -43.8657 H         1 UNK         0.0600 
    198 H198       -3.5174  -22.8542  -44.4418 H         1 UNK         0.0600 
    199 H199       -5.2546  -23.1255  -44.4408 H         1 UNK         0.0600 
    200 H200       -2.4546  -22.9620  -46.8999 H         1 UNK         0.3000 
    201 H201       -3.5573  -25.1623  -48.3341 H         1 UNK         0.0600 
    202 H202       -1.2247  -25.1285  -47.4833 H         1 UNK         0.0600 
    203 H203       -0.8066  -23.8416  -48.6107 H         1 UNK         0.0600 
    204 H204       -1.2545  -25.4298  -49.2148 H         1 UNK         0.0600 
    205 H205       -2.4615  -21.9208  -49.4410 H         1 UNK         0.3000 
    206 H206       -2.9994  -22.2469  -52.1935 H         1 UNK         0.0600 
    207 H207       -3.0911  -19.6757  -50.5213 H         1 UNK         0.0600 
    208 H208       -1.6271  -20.3987  -51.1733 H         1 UNK         0.0600 
    209 H209       -2.8669  -19.7836  -52.2599 H         1 UNK         0.0600 
    210 H210       -5.1506  -21.2239  -49.5265 H         1 UNK         0.3000 
    211 H211       -7.4171  -20.5923  -51.1649 H         1 UNK         0.0600 
    212 H212       -7.2584  -21.3693  -48.2044 H         1 UNK         0.0600 
    213 H213       -8.6486  -20.6445  -49.0013 H         1 UNK         0.0600 
    214 H214       -7.1526  -19.7344  -48.8523 H         1 UNK         0.0600 
    215 H215       -6.3275  -23.5978  -49.5604 H         1 UNK         0.3000 
    216 H216       -8.6245  -25.1801  -50.2561 H         1 UNK         0.0600 
    217 H217       -7.1702  -27.0859  -49.5732 H         1 UNK         0.0600 
    218 H218       -7.1215  -25.7896  -48.3872 H         1 UNK         0.0600 
    219 H219       -5.7746  -26.0180  -49.4974 H         1 UNK         0.0600 
    220 H220       -5.3172  -24.9459  -51.6724 H         1 UNK         0.3000 
    221 H221       -6.1054  -26.3908  -54.1223 H         1 UNK         0.0600 
    222 H222       -3.4311  -25.1693  -53.2589 H         1 UNK         0.0600 
    223 H223       -3.9095  -26.8465  -53.0098 H         1 UNK         0.0600 
    224 H224       -3.7054  -26.2268  -54.6400 H         1 UNK         0.0600 
    225 H225       -7.7739  -24.5360  -54.2060 H         1 UNK         0.3000 
    226 H226       -7.1550  -21.8882  -54.7445 H         1 UNK         0.0600 
    227 H227       -9.3817  -22.7180  -54.0334 H         1 UNK         0.0600 
    228 H228       -9.5388  -21.7559  -55.4923 H         1 UNK         0.0600 
    229 H229       -9.6136  -23.5117  -55.5908 H         1 UNK         0.0600 
    230 H230       -6.6588  -24.4455  -56.9341 H         1 UNK         0.3000 
    231 H231       -7.0217  -23.0581  -59.4506 H         1 UNK         0.0600 
    232 H232       -5.9455  -25.1109  -60.3657 H         1 UNK         0.0600 
    233 H233       -7.2518  -25.5157  -59.2652 H         1 UNK         0.0600 
    234 H234       -5.5761  -25.6630  -58.7354 H         1 UNK         0.0600 
    235 H235       -5.8023  -21.1844  -58.3565 H         1 UNK         0.3000 
    236 H236       -4.1918  -19.6696  -58.4653 H         1 UNK         0.0600 
    237 H237       -3.0011  -21.3421  -60.7388 H         1 UNK         0.0600 
    238 H238       -4.2817  -20.1426  -60.9099 H         1 UNK         0.0600 
    239 H239       -2.6734  -19.6462  -60.4113 H         1 UNK         0.0600 
    240 H240       -3.8750  -21.2291  -56.3444 H         1 UNK         0.3000 
    241 H241       -2.5124  -21.6392  -54.6676 H         1 UNK         0.0600 
    242 H242       -1.8156  -24.9508  -55.9938 H         1 UNK         0.3800 
    243 H243       -3.1676  -23.8823  -55.6670 H         1 UNK         0.3800 
    244 H244       -1.3260  -19.4861  -55.5135 H         1 UNK         0.0800 
    245 H245       -0.0699  -20.5211  -56.1239 H         1 UNK         0.0800 
    246 H246       -1.0878  -18.3423  -53.2744 H         1 UNK         0.0800 
    247 H247        0.4338  -18.1802  -54.1228 H         1 UNK         0.0800 
@<TRIPOS>BOND
     1    1    2 1    
     2    1  127 1    
     3    1  128 1    
     4    1  129 1    
     5    2    3 2    
     6    2    4 am   BACKBONE|DICT|INTERRES
     7    4    5 1    
     8    4  130 1    
     9    5    6 1    
    10    5   65 1    
    11    5  131 1    
    12    6    7 1    
    13    6  132 1    
    14    6  133 1    
    15    7    8 1    
    16    8    9 1    
    17    8  134 1    
    18    8  135 1    
    19    9   10 ar   
    20    9   14 ar   
    21   10   11 ar   
    22   10  136 1    
    23   11   12 ar   
    24   11  126 1    
    25   12   13 ar   
    26   12  137 1    
    27   13   14 ar   
    28   13   15 1    
    29   14  138 1    
    30   15   16 1    
    31   15  139 1    
    32   15  140 1    
    33   16   17 1    
    34   17   18 1    
    35   17  141 1    
    36   17  142 1    
    37   18   19 1    
    38   18   67 1    
    39   18  143 1    
    40   19   20 am   BACKBONE|DICT|INTERRES
    41   19  144 1    
    42   20   21 2    
    43   20   22 1    
    44   22   23 1    
    45   22   24 1    
    46   22  145 1    
    47   23  146 1    
    48   23  147 1    
    49   23  148 1    
    50   24   25 am   BACKBONE|DICT|INTERRES
    51   24  149 1    
    52   25   26 2    
    53   25   27 1    
    54   27   28 1    
    55   27   29 1    
    56   27  150 1    
    57   28  151 1    
    58   28  152 1    
    59   28  153 1    
    60   29   30 am   BACKBONE|DICT|INTERRES
    61   29  154 1    
    62   30   31 2    
    63   30   32 1    
    64   32   33 1    
    65   32   34 1    
    66   32  155 1    
    67   33  156 1    
    68   33  157 1    
    69   33  158 1    
    70   34   35 am   BACKBONE|DICT|INTERRES
    71   34  159 1    
    72   35   36 2    
    73   35   37 1    
    74   37   38 1    
    75   37   39 1    
    76   37  160 1    
    77   38  161 1    
    78   38  162 1    
    79   38  163 1    
    80   39   40 am   BACKBONE|DICT|INTERRES
    81   39  164 1    
    82   40   41 2    
    83   40   42 1    
    84   42   43 1    
    85   42   44 1    
    86   42  165 1    
    87   43  166 1    
    88   43  167 1    
    89   43  168 1    
    90   44   45 am   BACKBONE|DICT|INTERRES
    91   44  169 1    
    92   45   46 2    
    93   45   47 1    
    94   47   48 1    
    95   47   49 1    
    96   47  170 1    
    97   48  171 1    
    98   48  172 1    
    99   48  173 1    
   100   49   50 am   BACKBONE|DICT|INTERRES
   101   49  174 1    
   102   50   51 2    
   103   50   52 1    
   104   52   53 1    
   105   52   54 1    
   106   52  175 1    
   107   53  176 1    
   108   53  177 1    
   109   53  178 1    
   110   54   55 am   BACKBONE|DICT|INTERRES
   111   54  179 1    
   112   55   56 2    
   113   55   57 1    
   114   57   58 1    
   115   57   59 1    
   116   57  180 1    
   117   58  181 1    
   118   58  182 1    
   119   58  183 1    
   120   59   60 am   BACKBONE|DICT|INTERRES
   121   59  184 1    
   122   60   61 2    
   123   60   62 1    
   124   62   63 1    
   125   62   64 1    
   126   62  185 1    
   127   63  186 1    
   128   63  187 1    
   129   63  188 1    
   130   64   65 am   BACKBONE|DICT|INTERRES
   131   64  189 1    
   132   65   66 2    
   133   67   68 2    
   134   67   69 am   BACKBONE|DICT|INTERRES
   135   69   70 1    
   136   69  190 1    
   137   70   71 1    
   138   70   72 1    
   139   70  191 1    
   140   71  192 1    
   141   71  193 1    
   142   71  194 1    
   143   72   73 2    
   144   72   74 am   BACKBONE|DICT|INTERRES
   145   74   75 1    
   146   74  195 1    
   147   75   76 1    
   148   75   77 1    
   149   75  196 1    
   150   76  197 1    
   151   76  198 1    
   152   76  199 1    
   153   77   78 2    
   154   77   79 am   BACKBONE|DICT|INTERRES
   155   79   80 1    
   156   79  200 1    
   157   80   81 1    
   158   80   82 1    
   159   80  201 1    
   160   81  202 1    
   161   81  203 1    
   162   81  204 1    
   163   82   83 2    
   164   82   84 am   BACKBONE|DICT|INTERRES
   165   84   85 1    
   166   84  205 1    
   167   85   86 1    
   168   85   87 1    
   169   85  206 1    
   170   86  207 1    
   171   86  208 1    
   172   86  209 1    
   173   87   88 2    
   174   87   89 am   BACKBONE|DICT|INTERRES
   175   89   90 1    
   176   89  210 1    
   177   90   91 1    
   178   90   92 1    
   179   90  211 1    
   180   91  212 1    
   181   91  213 1    
   182   91  214 1    
   183   92   93 2    
   184   92   94 am   BACKBONE|DICT|INTERRES
   185   94   95 1    
   186   94  215 1    
   187   95   96 1    
   188   95   97 1    
   189   95  216 1    
   190   96  217 1    
   191   96  218 1    
   192   96  219 1    
   193   97   98 2    
   194   97   99 am   BACKBONE|DICT|INTERRES
   195   99  100 1    
   196   99  220 1    
   197  100  101 1    
   198  100  102 1    
   199  100  221 1    
   200  101  222 1    
   201  101  223 1    
   202  101  224 1    
   203  102  103 2    
   204  102  104 am   BACKBONE|DICT|INTERRES
   205  104  105 1    
   206  104  225 1    
   207  105  106 1    
   208  105  107 1    
   209  105  226 1    
   210  106  227 1    
   211  106  228 1    
   212  106  229 1    
   213  107  108 2    
   214  107  109 am   BACKBONE|DICT|INTERRES
   215  109  110 1    
   216  109  230 1    
   217  110  111 1    
   218  110  112 1    
   219  110  231 1    
   220  111  232 1    
   221  111  233 1    
   222  111  234 1    
   223  112  113 2    
   224  112  114 am   BACKBONE|DICT|INTERRES
   225  114  115 1    
   226  114  235 1    
   227  115  116 1    
   228  115  117 1    
   229  115  236 1    
   230  116  237 1    
   231  116  238 1    
   232  116  239 1    
   233  117  118 2    
   234  117  119 am   BACKBONE|DICT|INTERRES
   235  119  120 1    
   236  119  240 1    
   237  120  121 1    
   238  120  124 1    
   239  120  241 1    
   240  121  122 am   BACKBONE|DICT|INTERRES
   241  121  123 2    
   242  122  242 1    
   243  122  243 1    
   244  124  125 1    
   245  124  244 1    
   246  124  245 1    
   247  125  126 1    
   248  126  246 1    
   249  126  247 1    
@<TRIPOS>SUBSTRUCTURE
     1 UNK         1 GROUP             0       ****    0 ROOT    
