@<TRIPOS>MOLECULE
3R540
247   249    1
SMALL
USER_CHARGES


@<TRIPOS>ATOM
      1 CA          6.6365  -14.8729  -48.5105 C.3       0 UNK        -0.1800 
      2 C           5.8601  -14.2475  -47.3598 C.2       0 UNK         0.5000 
      3 O           6.3695  -14.1821  -46.2409 O.2       0 UNK        -0.5000 
      4 N           4.6303  -13.7962  -47.6309 N.am      1 UNK        -0.5000 
      5 CA          3.7534  -13.1208  -46.6702 C.3       1 UNK         0.1400 
      6 C6          2.2808  -13.0989  -47.1497 C.3       23 UNK        -0.0398 
      7 S7          1.5512  -14.7666  -47.2940 S.3       23 UNK        -0.2404 
      8 C8          1.6215  -15.0239  -49.0934 C.3       23 UNK        -0.0205 
      9 C9          0.9613  -16.3334  -49.4913 C.ar      23 UNK        -0.0193 
     10 C10        -0.3477  -16.3410  -49.9811 C.ar      23 UNK        -0.1150 
     11 C11        -0.9568  -17.5411  -50.3573 C.ar      23 UNK        -0.0193 
     12 C12        -0.2518  -18.7411  -50.2280 C.ar      23 UNK        -0.1150 
     13 C13         1.0621  -18.7458  -49.7494 C.ar      23 UNK        -0.0193 
     14 C14         1.6646  -17.5370  -49.3870 C.ar      23 UNK        -0.1150 
     15 C15         1.8295  -20.0574  -49.6371 C.3       23 UNK        -0.0205 
     16 S16         2.3500  -20.4423  -47.9312 S.3       23 UNK        -0.2404 
     17 C17         0.7679  -20.4055  -47.0243 C.3       23 UNK        -0.0398 
     18 CA          0.1519  -21.8020  -46.7824 C.3       11 UNK         0.1400 
     19 N          -0.8404  -21.7514  -45.7099 N.am      11 UNK        -0.5000 
     20 C          -1.4795  -22.8034  -45.1836 C.2       10 UNK         0.5000 
     21 O          -1.2482  -23.9727  -45.4891 O.2       10 UNK        -0.5000 
     22 CA         -2.6062  -22.4812  -44.1879 C.3       10 UNK         0.1400 
     23 CB         -2.0437  -22.2623  -42.7758 C.3       10 UNK        -0.1800 
     24 N          -3.3729  -21.3041  -44.6028 N.am      10 UNK        -0.5000 
     25 C          -4.2096  -21.2822  -45.6500 C.2       9 UNK         0.5000 
     26 O          -4.4507  -22.2655  -46.3495 O.2       9 UNK        -0.5000 
     27 CA         -4.8557  -19.9273  -45.9944 C.3       9 UNK         0.1400 
     28 CB         -6.0639  -19.6545  -45.0863 C.3       9 UNK        -0.1800 
     29 N          -3.9142  -18.8092  -45.9030 N.am      9 UNK        -0.5000 
     30 C          -2.8735  -18.6348  -46.7294 C.2       8 UNK         0.5000 
     31 O          -2.6078  -19.3950  -47.6579 O.2       8 UNK        -0.5000 
     32 CA         -1.9470  -17.4371  -46.4489 C.3       8 UNK         0.1400 
     33 CB         -2.4943  -16.1651  -47.1128 C.3       8 UNK        -0.1800 
     34 N          -1.7096  -17.1668  -45.0284 N.am      8 UNK        -0.5000 
     35 C          -1.2490  -18.0405  -44.1208 C.2       7 UNK         0.5000 
     36 O          -1.0716  -19.2376  -44.3505 O.2       7 UNK        -0.5000 
     37 CA         -0.9215  -17.4519  -42.7315 C.3       7 UNK         0.1400 
     38 CB         -0.1765  -18.4445  -41.8148 C.3       7 UNK        -0.1800 
     39 N          -0.1941  -16.1781  -42.8261 N.am      7 UNK        -0.5000 
     40 C           0.9876  -15.9727  -43.4306 C.2       6 UNK         0.5000 
     41 O           1.6767  -16.8598  -43.9334 O.2       6 UNK        -0.5000 
     42 CA          1.4952  -14.5277  -43.4520 C.3       6 UNK         0.1400 
     43 CB          0.4199  -13.5116  -43.8847 C.3       6 UNK        -0.1800 
     44 N           2.0094  -14.1820  -42.1322 N.am      6 UNK        -0.5000 
     45 C           3.0727  -13.4031  -41.9180 C.2       5 UNK         0.5000 
     46 O           3.7508  -12.8990  -42.8173 O.2       5 UNK        -0.5000 
     47 CA          3.4613  -13.1696  -40.4532 C.3       5 UNK         0.1400 
     48 CB          4.4505  -14.2519  -39.9800 C.3       5 UNK        -0.1800 
     49 N           4.0555  -11.8420  -40.3327 N.am      5 UNK        -0.5000 
     50 C           4.2624  -11.1790  -39.1888 C.2       4 UNK         0.5000 
     51 O           3.9621  -11.6195  -38.0783 O.2       4 UNK        -0.5000 
     52 CA          4.9142   -9.7879  -39.2973 C.3       4 UNK         0.1400 
     53 CB          6.4455   -9.9136  -39.3282 C.3       4 UNK        -0.1800 
     54 N           4.4730   -9.0357  -40.4724 N.am      4 UNK        -0.5000 
     55 C           3.2675   -8.4631  -40.6070 C.2       3 UNK         0.5000 
     56 O           2.3912   -8.5018  -39.7425 O.2       3 UNK        -0.5000 
     57 CA          2.9973   -7.7156  -41.9296 C.3       3 UNK         0.1400 
     58 CB          3.3125   -6.2196  -41.7763 C.3       3 UNK        -0.1800 
     59 N           3.7667   -8.2548  -43.0549 N.am      3 UNK        -0.5000 
     60 C           3.5278   -9.4452  -43.6188 C.2       2 UNK         0.5000 
     61 O           2.5728  -10.1600  -43.3052 O.2       2 UNK        -0.5000 
     62 CA          4.5315   -9.9119  -44.6871 C.3       2 UNK         0.1400 
     63 CB          5.9693   -9.9642  -44.1352 C.3       2 UNK        -0.1800 
     64 N           4.1616  -11.2447  -45.1512 N.am      2 UNK        -0.5000 
     65 C           4.2506  -11.6847  -46.4083 C.2       1 UNK         0.5000 
     66 O           4.6745  -11.0030  -47.3459 O.2       1 UNK        -0.5000 
     67 C          -0.4459  -22.4094  -48.0698 C.2       11 UNK         0.5000 
     68 O           0.1411  -23.3315  -48.6363 O.2       11 UNK        -0.5000 
     69 N          -1.6306  -21.9281  -48.4759 N.am      12 UNK        -0.5000 
     70 CA         -2.3934  -22.4593  -49.6037 C.3       12 UNK         0.1400 
     71 CB         -3.6064  -21.5669  -49.8927 C.3       12 UNK        -0.1800 
     72 C          -2.8397  -23.9134  -49.3916 C.2       12 UNK         0.5000 
     73 O          -2.7875  -24.6936  -50.3396 O.2       12 UNK        -0.5000 
     74 N          -3.2499  -24.2690  -48.1665 N.am      13 UNK        -0.5000 
     75 CA         -3.6229  -25.6357  -47.7954 C.3       13 UNK         0.1400 
     76 CB         -4.2602  -25.6490  -46.3988 C.3       13 UNK        -0.1800 
     77 C          -2.4365  -26.6121  -47.8788 C.2       13 UNK         0.5000 
     78 O          -2.5937  -27.7062  -48.4207 O.2       13 UNK        -0.5000 
     79 N          -1.2621  -26.1799  -47.3980 N.am      14 UNK        -0.5000 
     80 CA          0.0003  -26.9164  -47.4949 C.3       14 UNK         0.1400 
     81 CB          1.0676  -26.2146  -46.6415 C.3       14 UNK        -0.1800 
     82 C           0.4849  -27.0864  -48.9485 C.2       14 UNK         0.5000 
     83 O           0.9991  -28.1493  -49.2982 O.2       14 UNK        -0.5000 
     84 N           0.2832  -26.0507  -49.7740 N.am      15 UNK        -0.5000 
     85 CA          0.5882  -26.0438  -51.2068 C.3       15 UNK         0.1400 
     86 CB          0.6664  -24.5838  -51.6828 C.3       15 UNK        -0.1800 
     87 C          -0.4265  -26.8285  -52.0662 C.2       15 UNK         0.5000 
     88 O          -0.1528  -27.0614  -53.2441 O.2       15 UNK        -0.5000 
     89 N          -1.5799  -27.1893  -51.4816 N.am      16 UNK        -0.5000 
     90 CA         -2.7606  -27.7905  -52.1159 C.3       16 UNK         0.1400 
     91 CB         -2.4434  -29.1910  -52.6796 C.3       16 UNK        -0.1800 
     92 C          -3.4298  -26.8540  -53.1488 C.2       16 UNK         0.5000 
     93 O          -4.0302  -27.3201  -54.1183 O.2       16 UNK        -0.5000 
     94 N          -3.3204  -25.5430  -52.9057 N.am      17 UNK        -0.5000 
     95 CA         -3.8626  -24.4589  -53.7218 C.3       17 UNK         0.1400 
     96 CB         -2.7971  -23.3573  -53.8244 C.3       17 UNK        -0.1800 
     97 C          -5.1635  -23.8821  -53.1330 C.2       17 UNK         0.5000 
     98 O          -5.8335  -23.1031  -53.8105 O.2       17 UNK        -0.5000 
     99 N          -5.5140  -24.2713  -51.8959 N.am      18 UNK        -0.5000 
    100 CA        -6.6813  -23.7958  -51.1416 C.3       18 UNK         0.1400 
    101 CB        -6.6735  -24.4163  -49.7374 C.3       18 UNK        -0.1800 
    102 C         -8.0397  -24.0355  -51.8288 C.2       18 UNK         0.5000 
    103 O         -8.9831  -23.2896  -51.5675 O.2       18 UNK        -0.5000 
    104 N         -8.1048  -25.0166  -52.7399 N.am      19 UNK        -0.5000 
    105 CA        -9.2478  -25.2772  -53.6207 C.3       19 UNK         0.1400 
    106 CB        -8.9783  -26.5652  -54.4133 C.3       19 UNK        -0.1800 
    107 C         -9.5717  -24.1106  -54.5811 C.2       19 UNK         0.5000 
    108 O        -10.7200  -23.9820  -55.0065 O.2       19 UNK        -0.5000 
    109 N         -8.5681  -23.2753  -54.8812 N.am      20 UNK        -0.5000 
    110 CA        -8.6792  -22.0432  -55.6620 C.3       20 UNK         0.1400 
    111 CB        -7.7061  -22.1358  -56.8505 C.3       20 UNK        -0.1800 
    112 C         -8.3860  -20.8046  -54.7879 C.2       20 UNK         0.5000 
    113 O         -8.0998  -19.7361  -55.3284 O.2       20 UNK        -0.5000 
    114 N         -8.4264  -20.9701  -53.4559 N.am      21 UNK        -0.5000 
    115 CA        -8.0812  -20.0272  -52.3823 C.3       21 UNK         0.1400 
    116 CB        -8.9250  -18.7404  -52.4530 C.3       21 UNK        -0.1800 
    117 C         -6.5762  -19.7071  -52.2715 C.2       21 UNK         0.5000 
    118 O         -6.0643  -19.6183  -51.1561 O.2       21 UNK        -0.5000 
    119 N         -5.8924  -19.5560  -53.4072 N.am      22 UNK        -0.5000 
    120 CA        -4.4545  -19.3107  -53.5387 C.3       22 UNK         0.1400 
    121 C         -3.9716  -19.7087  -54.9632 C.2       22 UNK         0.5000 
    122 N         -2.6696  -19.8425  -55.1714 N.am      22 UNK        -0.7600 
    123 O         -4.7594  -19.8900  -55.8893 O.2       22 UNK        -0.5000 
    124 C124       -4.0817  -17.8498  -53.1561 C.3       23 UNK        -0.0398 
    125 S125       -2.3166  -17.6422  -52.7401 S.3       23 UNK        -0.2404 
    126 C126       -2.3664  -17.5424  -50.9260 C.3       23 UNK        -0.0205 
    127 H127        7.5558  -14.3154  -48.6895 H         1 UNK         0.0600 
    128 H128        6.0575  -14.8802  -49.4344 H         1 UNK         0.0600 
    129 H129        6.9019  -15.9020  -48.2683 H         1 UNK         0.0600 
    130 H130        4.2862  -13.8424  -48.5777 H         1 UNK         0.3000 
    131 H131        3.8022  -13.6721  -45.7293 H         1 UNK         0.0600 
    132 H132        2.1912  -12.5722  -48.1015 H         1 UNK         0.0800 
    133 H133        1.6634  -12.5407  -46.4440 H         1 UNK         0.0800 
    134 H134        1.1344  -14.1894  -49.6004 H         1 UNK         0.0800 
    135 H135        2.6604  -15.0248  -49.4246 H         1 UNK         0.0800 
    136 H136       -0.8903  -15.4111  -50.0768 H         1 UNK         0.1150 
    137 H137       -0.7259  -19.6692  -50.5154 H         1 UNK         0.1150 
    138 H138        2.6790  -17.5348  -49.0132 H         1 UNK         0.1150 
    139 H139        1.2374  -20.8882  -50.0237 H         1 UNK         0.0800 
    140 H140        2.7171  -19.9997  -50.2685 H         1 UNK         0.0800 
    141 H141        0.9858  -19.9344  -46.0645 H         1 UNK         0.0800 
    142 H142        0.0550  -19.7423  -47.5113 H         1 UNK         0.0800 
    143 H143        0.9448  -22.4711  -46.4413 H         1 UNK         0.0600 
    144 H144       -1.0647  -20.8286  -45.3458 H         1 UNK         0.3000 
    145 H145       -3.2827  -23.3376  -44.1544 H         1 UNK         0.0600 
    146 H146       -2.8400  -22.0575  -42.0602 H         1 UNK         0.0600 
    147 H147       -1.5137  -23.1499  -42.4279 H         1 UNK         0.0600 
    148 H148       -1.3408  -21.4298  -42.7450 H         1 UNK         0.0600 
    149 H149       -3.1729  -20.4395  -44.1212 H         1 UNK         0.3000 
    150 H150       -5.2127  -19.9848  -47.0252 H         1 UNK         0.0600 
    151 H151       -6.7890  -20.4671  -45.1481 H         1 UNK         0.0600 
    152 H152       -6.5781  -18.7390  -45.3794 H         1 UNK         0.0600 
    153 H153       -5.7701  -19.5551  -44.0406 H         1 UNK         0.0600 
    154 H154       -4.0587  -18.1431  -45.1588 H         1 UNK         0.3000 
    155 H155       -0.9794  -17.6612  -46.9022 H         1 UNK         0.0600 
    156 H156       -1.7655  -15.3551  -47.0706 H         1 UNK         0.0600 
    157 H157       -3.4109  -15.8213  -46.6324 H         1 UNK         0.0600 
    158 H158       -2.7232  -16.3382  -48.1641 H         1 UNK         0.0600 
    159 H159       -1.8211  -16.2066  -44.7391 H         1 UNK         0.3000 
    160 H160       -1.8801  -17.2282  -42.2613 H         1 UNK         0.0600 
    161 H161        0.7615  -18.7820  -42.2568 H         1 UNK         0.0600 
    162 H162       -0.7842  -19.3292  -41.6240 H         1 UNK         0.0600 
    163 H163        0.0507  -17.9947  -40.8484 H         1 UNK         0.0600 
    164 H164       -0.6740  -15.3769  -42.4405 H         1 UNK         0.3000 
    165 H165        2.3033  -14.4997  -44.1841 H         1 UNK         0.0600 
    166 H166       -0.3678  -13.4031  -43.1389 H         1 UNK         0.0600 
    167 H167        0.8597  -12.5260  -44.0398 H         1 UNK         0.0600 
    168 H168       -0.0498  -13.8095  -44.8228 H         1 UNK         0.0600 
    169 H169        1.5397  -14.6098  -41.3460 H         1 UNK         0.3000 
    170 H170        2.5576  -13.2060  -39.8411 H         1 UNK         0.0600 
    171 H171        4.0297  -15.2500  -40.1076 H         1 UNK         0.0600 
    172 H172        5.3833  -14.2141  -40.5441 H         1 UNK         0.0600 
    173 H173        4.6940  -14.1396  -38.9237 H         1 UNK         0.0600 
    174 H174        4.2871  -11.4091  -41.2172 H         1 UNK         0.3000 
    175 H175        4.6395   -9.2219  -38.4044 H         1 UNK         0.0600 
    176 H176        6.7889  -10.4517  -40.2128 H         1 UNK         0.0600 
    177 H177        6.9221   -8.9331  -39.3248 H         1 UNK         0.0600 
    178 H178        6.8103  -10.4539  -38.4535 H         1 UNK         0.0600 
    179 H179        5.1348   -8.9420  -41.2278 H         1 UNK         0.3000 
    180 H180        1.9337   -7.8177  -42.1562 H         1 UNK         0.0600 
    181 H181        2.7356   -5.7809  -40.9609 H         1 UNK         0.0600 
    182 H182        3.0616   -5.6686  -42.6829 H         1 UNK         0.0600 
    183 H183        4.3679   -6.0496  -41.5599 H         1 UNK         0.0600 
    184 H184        4.5501   -7.7028  -43.3738 H         1 UNK         0.3000 
    185 H185        4.4833   -9.1985  -45.5123 H         1 UNK         0.0600 
    186 H186        6.3207   -8.9781  -43.8306 H         1 UNK         0.0600 
    187 H187        6.0421  -10.6255  -43.2705 H         1 UNK         0.0600 
    188 H188        6.6654  -10.3301  -44.8905 H         1 UNK         0.0600 
    189 H189        3.7930  -11.8496  -44.4188 H         1 UNK         0.3000 
    190 H190       -2.0369  -21.1285  -47.9952 H         1 UNK         0.3000 
    191 H191       -1.7429  -22.4357  -50.4797 H         1 UNK         0.0600 
    192 H192       -4.1630  -21.9270  -50.7580 H         1 UNK         0.0600 
    193 H193       -3.2983  -20.5479  -50.1144 H         1 UNK         0.0600 
    194 H194       -4.2954  -21.5304  -49.0484 H         1 UNK         0.0600 
    195 H195       -3.3394  -23.5569  -47.4494 H         1 UNK         0.3000 
    196 H196       -4.3758  -25.9794  -48.5073 H         1 UNK         0.0600 
    197 H197       -4.5837  -26.6548  -46.1284 H         1 UNK         0.0600 
    198 H198       -5.1382  -25.0040  -46.3609 H         1 UNK         0.0600 
    199 H199       -3.5635  -25.3126  -45.6319 H         1 UNK         0.0600 
    200 H200       -1.2295  -25.2799  -46.9264 H         1 UNK         0.3000 
    201 H201       -0.1627  -27.9138  -47.0816 H         1 UNK         0.0600 
    202 H202        0.7606  -26.1567  -45.5971 H         1 UNK         0.0600 
    203 H203        1.2585  -25.1989  -46.9890 H         1 UNK         0.0600 
    204 H204        2.0133  -26.7569  -46.6741 H         1 UNK         0.0600 
    205 H205       -0.0750  -25.1842  -49.3840 H         1 UNK         0.3000 
    206 H206        1.5674  -26.5037  -51.3546 H         1 UNK         0.0600 
    207 H207        1.4105  -24.0224  -51.1173 H         1 UNK         0.0600 
    208 H208        0.9479  -24.5274  -52.7350 H         1 UNK         0.0600 
    209 H209       -0.2915  -24.0753  -51.5729 H         1 UNK         0.0600 
    210 H210       -1.7030  -26.9268  -50.5123 H         1 UNK         0.3000 
    211 H211       -3.4907  -27.9200  -51.3158 H         1 UNK         0.0600 
    212 H212       -1.7801  -29.1423  -53.5433 H         1 UNK         0.0600 
    213 H213       -3.3546  -29.6985  -52.9981 H         1 UNK         0.0600 
    214 H214       -1.9693  -29.8202  -51.9262 H         1 UNK         0.0600 
    215 H215       -2.8645  -25.2609  -52.0396 H         1 UNK         0.3000 
    216 H216       -4.0843  -24.8205  -54.7278 H         1 UNK         0.0600 
    217 H217       -3.1292  -22.5610  -54.4900 H         1 UNK         0.0600 
    218 H218       -1.8628  -23.7479  -54.2283 H         1 UNK         0.0600 
    219 H219       -2.5816  -22.9098  -52.8536 H         1 UNK         0.0600 
    220 H220       -4.8911  -24.9019  -51.4113 H         1 UNK         0.3000 
    221 H221       -6.5756  -22.7147  -51.0310 H         1 UNK         0.0600 
    222 H222       -6.6193  -25.5047  -49.7757 H         1 UNK         0.0600 
    223 H223       -5.8304  -24.0509  -49.1542 H         1 UNK         0.0600 
    224 H224       -7.5751  -24.1514  -49.1833 H         1 UNK         0.0600 
    225 H225       -7.2801  -25.5780  -52.8929 H         1 UNK         0.3000 
    226 H226      -10.1257  -25.4368  -52.9913 H         1 UNK         0.0600 
    227 H227       -8.8287  -27.4151  -53.7472 H         1 UNK         0.0600 
    228 H228       -9.8202  -26.8079  -55.0632 H         1 UNK         0.0600 
    229 H229       -8.0930  -26.4714  -55.0436 H         1 UNK         0.0600 
    230 H230       -7.6508  -23.4399  -54.4752 H         1 UNK         0.3000 
    231 H231       -9.6908  -21.9234  -56.0539 H         1 UNK         0.0600 
    232 H232       -7.7930  -21.2651  -57.5016 H         1 UNK         0.0600 
    233 H233       -7.9103  -23.0164  -57.4596 H         1 UNK         0.0600 
    234 H234       -6.6696  -22.1926  -56.5142 H         1 UNK         0.0600 
    235 H235       -8.6824  -21.8912  -53.1209 H         1 UNK         0.3000 
    236 H236       -8.3530  -20.5372  -51.4568 H         1 UNK         0.0600 
    237 H237       -9.9903  -18.9683  -52.4864 H         1 UNK         0.0600 
    238 H238       -8.7528  -18.1177  -51.5743 H         1 UNK         0.0600 
    239 H239       -8.6817  -18.1371  -53.3277 H         1 UNK         0.0600 
    240 H240       -6.3867  -19.6551  -54.2899 H         1 UNK         0.3000 
    241 H241       -3.9624  -19.9950  -52.8445 H         1 UNK         0.0600 
    242 H242       -2.0026  -19.6429  -54.4417 H         1 UNK         0.3800 
    243 H243       -2.3429  -20.0926  -56.0913 H         1 UNK         0.3800 
    244 H244       -4.3360  -17.1645  -53.9663 H         1 UNK         0.0800 
    245 H245       -4.6688  -17.5166  -52.2997 H         1 UNK         0.0800 
    246 H246       -2.9308  -18.3805  -50.5189 H         1 UNK         0.0800 
    247 H247       -2.9009  -16.6385  -50.6304 H         1 UNK         0.0800 
@<TRIPOS>BOND
     1    1    2 1    
     2    1  127 1    
     3    1  128 1    
     4    1  129 1    
     5    2    3 2    
     6    2    4 am   BACKBONE|DICT|INTERRES
     7    4    5 1    
     8    4  130 1    
     9    5    6 1    
    10    5   65 1    
    11    5  131 1    
    12    6    7 1    
    13    6  132 1    
    14    6  133 1    
    15    7    8 1    
    16    8    9 1    
    17    8  134 1    
    18    8  135 1    
    19    9   10 ar   
    20    9   14 ar   
    21   10   11 ar   
    22   10  136 1    
    23   11   12 ar   
    24   11  126 1    
    25   12   13 ar   
    26   12  137 1    
    27   13   14 ar   
    28   13   15 1    
    29   14  138 1    
    30   15   16 1    
    31   15  139 1    
    32   15  140 1    
    33   16   17 1    
    34   17   18 1    
    35   17  141 1    
    36   17  142 1    
    37   18   19 1    
    38   18   67 1    
    39   18  143 1    
    40   19   20 am   BACKBONE|DICT|INTERRES
    41   19  144 1    
    42   20   21 2    
    43   20   22 1    
    44   22   23 1    
    45   22   24 1    
    46   22  145 1    
    47   23  146 1    
    48   23  147 1    
    49   23  148 1    
    50   24   25 am   BACKBONE|DICT|INTERRES
    51   24  149 1    
    52   25   26 2    
    53   25   27 1    
    54   27   28 1    
    55   27   29 1    
    56   27  150 1    
    57   28  151 1    
    58   28  152 1    
    59   28  153 1    
    60   29   30 am   BACKBONE|DICT|INTERRES
    61   29  154 1    
    62   30   31 2    
    63   30   32 1    
    64   32   33 1    
    65   32   34 1    
    66   32  155 1    
    67   33  156 1    
    68   33  157 1    
    69   33  158 1    
    70   34   35 am   BACKBONE|DICT|INTERRES
    71   34  159 1    
    72   35   36 2    
    73   35   37 1    
    74   37   38 1    
    75   37   39 1    
    76   37  160 1    
    77   38  161 1    
    78   38  162 1    
    79   38  163 1    
    80   39   40 am   BACKBONE|DICT|INTERRES
    81   39  164 1    
    82   40   41 2    
    83   40   42 1    
    84   42   43 1    
    85   42   44 1    
    86   42  165 1    
    87   43  166 1    
    88   43  167 1    
    89   43  168 1    
    90   44   45 am   BACKBONE|DICT|INTERRES
    91   44  169 1    
    92   45   46 2    
    93   45   47 1    
    94   47   48 1    
    95   47   49 1    
    96   47  170 1    
    97   48  171 1    
    98   48  172 1    
    99   48  173 1    
   100   49   50 am   BACKBONE|DICT|INTERRES
   101   49  174 1    
   102   50   51 2    
   103   50   52 1    
   104   52   53 1    
   105   52   54 1    
   106   52  175 1    
   107   53  176 1    
   108   53  177 1    
   109   53  178 1    
   110   54   55 am   BACKBONE|DICT|INTERRES
   111   54  179 1    
   112   55   56 2    
   113   55   57 1    
   114   57   58 1    
   115   57   59 1    
   116   57  180 1    
   117   58  181 1    
   118   58  182 1    
   119   58  183 1    
   120   59   60 am   BACKBONE|DICT|INTERRES
   121   59  184 1    
   122   60   61 2    
   123   60   62 1    
   124   62   63 1    
   125   62   64 1    
   126   62  185 1    
   127   63  186 1    
   128   63  187 1    
   129   63  188 1    
   130   64   65 am   BACKBONE|DICT|INTERRES
   131   64  189 1    
   132   65   66 2    
   133   67   68 2    
   134   67   69 am   BACKBONE|DICT|INTERRES
   135   69   70 1    
   136   69  190 1    
   137   70   71 1    
   138   70   72 1    
   139   70  191 1    
   140   71  192 1    
   141   71  193 1    
   142   71  194 1    
   143   72   73 2    
   144   72   74 am   BACKBONE|DICT|INTERRES
   145   74   75 1    
   146   74  195 1    
   147   75   76 1    
   148   75   77 1    
   149   75  196 1    
   150   76  197 1    
   151   76  198 1    
   152   76  199 1    
   153   77   78 2    
   154   77   79 am   BACKBONE|DICT|INTERRES
   155   79   80 1    
   156   79  200 1    
   157   80   81 1    
   158   80   82 1    
   159   80  201 1    
   160   81  202 1    
   161   81  203 1    
   162   81  204 1    
   163   82   83 2    
   164   82   84 am   BACKBONE|DICT|INTERRES
   165   84   85 1    
   166   84  205 1    
   167   85   86 1    
   168   85   87 1    
   169   85  206 1    
   170   86  207 1    
   171   86  208 1    
   172   86  209 1    
   173   87   88 2    
   174   87   89 am   BACKBONE|DICT|INTERRES
   175   89   90 1    
   176   89  210 1    
   177   90   91 1    
   178   90   92 1    
   179   90  211 1    
   180   91  212 1    
   181   91  213 1    
   182   91  214 1    
   183   92   93 2    
   184   92   94 am   BACKBONE|DICT|INTERRES
   185   94   95 1    
   186   94  215 1    
   187   95   96 1    
   188   95   97 1    
   189   95  216 1    
   190   96  217 1    
   191   96  218 1    
   192   96  219 1    
   193   97   98 2    
   194   97   99 am   BACKBONE|DICT|INTERRES
   195   99  100 1    
   196   99  220 1    
   197  100  101 1    
   198  100  102 1    
   199  100  221 1    
   200  101  222 1    
   201  101  223 1    
   202  101  224 1    
   203  102  103 2    
   204  102  104 am   BACKBONE|DICT|INTERRES
   205  104  105 1    
   206  104  225 1    
   207  105  106 1    
   208  105  107 1    
   209  105  226 1    
   210  106  227 1    
   211  106  228 1    
   212  106  229 1    
   213  107  108 2    
   214  107  109 am   BACKBONE|DICT|INTERRES
   215  109  110 1    
   216  109  230 1    
   217  110  111 1    
   218  110  112 1    
   219  110  231 1    
   220  111  232 1    
   221  111  233 1    
   222  111  234 1    
   223  112  113 2    
   224  112  114 am   BACKBONE|DICT|INTERRES
   225  114  115 1    
   226  114  235 1    
   227  115  116 1    
   228  115  117 1    
   229  115  236 1    
   230  116  237 1    
   231  116  238 1    
   232  116  239 1    
   233  117  118 2    
   234  117  119 am   BACKBONE|DICT|INTERRES
   235  119  120 1    
   236  119  240 1    
   237  120  121 1    
   238  120  124 1    
   239  120  241 1    
   240  121  122 am   BACKBONE|DICT|INTERRES
   241  121  123 2    
   242  122  242 1    
   243  122  243 1    
   244  124  125 1    
   245  124  244 1    
   246  124  245 1    
   247  125  126 1    
   248  126  246 1    
   249  126  247 1    
@<TRIPOS>SUBSTRUCTURE
     1 UNK         1 GROUP             0       ****    0 ROOT    
