@<TRIPOS>MOLECULE
3R540
247   249    1
SMALL
USER_CHARGES


@<TRIPOS>ATOM
      1 CA          2.2243  -14.4495  -49.3291 C.3       0 UNK        -0.1800 
      2 C           1.2363  -13.2865  -49.3863 C.2       0 UNK         0.5000 
      3 O           1.4484  -12.3529  -50.1578 O.2       0 UNK        -0.5000 
      4 N           0.1539  -13.2864  -48.5991 N.am      1 UNK        -0.5000 
      5 CA         -0.2215  -14.2890  -47.5994 C.3       1 UNK         0.1400 
      6 C6         -1.4951  -15.0809  -47.9991 C.3       23 UNK        -0.0398 
      7 S7         -1.3019  -16.0481  -49.5393 S.3       23 UNK        -0.2404 
      8 C8         -2.9454  -15.8659  -50.3156 C.3       23 UNK        -0.0205 
      9 C9         -3.9690  -16.8079  -49.6962 C.ar      23 UNK        -0.0193 
     10 C10        -4.3412  -17.9869  -50.3507 C.ar      23 UNK        -0.1150 
     11 C11        -5.2324  -18.8844  -49.7508 C.ar      23 UNK        -0.0193 
     12 C12        -5.7458  -18.5968  -48.4833 C.ar      23 UNK        -0.1150 
     13 C13        -5.3736  -17.4266  -47.8193 C.ar      23 UNK        -0.0193 
     14 C14        -4.5162  -16.5209  -48.4442 C.ar      23 UNK        -0.1150 
     15 C15        -5.8078  -17.1814  -46.3864 C.3       23 UNK        -0.0205 
     16 S16        -4.4262  -17.5110  -45.2444 S.3       23 UNK        -0.2404 
     17 C17        -4.1920  -19.3099  -45.4496 C.3       23 UNK        -0.0398 
     18 CA         -3.0792  -19.7127  -46.4569 C.3       11 UNK         0.1400 
     19 N          -1.7415  -19.2382  -46.0841 N.am      11 UNK        -0.5000 
     20 C          -0.6265  -19.4374  -46.8064 C.2       10 UNK         0.5000 
     21 O          -0.6066  -19.9836  -47.9071 O.2       10 UNK        -0.5000 
     22 CA          0.7081  -19.0286  -46.1661 C.3       10 UNK         0.1400 
     23 CB          1.0040  -17.5407  -46.3920 C.3       10 UNK        -0.1800 
     24 N           0.7386  -19.3482  -44.7409 N.am      10 UNK        -0.5000 
     25 C           0.8623  -20.5922  -44.2571 C.2       9 UNK         0.5000 
     26 O           1.0138  -21.5881  -44.9644 O.2       9 UNK        -0.5000 
     27 CA          0.7530  -20.7599  -42.7313 C.3       9 UNK         0.1400 
     28 CB          2.1315  -20.6420  -42.0655 C.3       9 UNK        -0.1800 
     29 N          -0.1845  -19.8074  -42.1300 N.am      9 UNK        -0.5000 
     30 C          -1.5125  -19.8950  -42.3000 C.2       8 UNK         0.5000 
     31 O          -2.0530  -20.7736  -42.9745 O.2       8 UNK        -0.5000 
     32 CA         -2.3895  -18.8146  -41.6416 C.3       8 UNK         0.1400 
     33 CB         -2.6125  -19.1363  -40.1566 C.3       8 UNK        -0.1800 
     34 N          -1.8952  -17.4423  -41.7627 N.am      8 UNK        -0.5000 
     35 C          -1.5240  -16.8151  -42.8853 C.2       7 UNK         0.5000 
     36 O          -1.3969  -17.3750  -43.9711 O.2       7 UNK        -0.5000 
     37 CA         -1.2102  -15.3119  -42.7820 C.3       7 UNK         0.1400 
     38 CB         -2.4886  -14.4692  -42.6226 C.3       7 UNK        -0.1800 
     39 N          -0.2085  -14.9988  -41.7605 N.am      7 UNK        -0.5000 
     40 C          -0.2787  -15.1483  -40.4295 C.2       6 UNK         0.5000 
     41 O          -1.3123  -15.4303  -39.8204 O.2       6 UNK        -0.5000 
     42 CA          1.0617  -15.0206  -39.6749 C.3       6 UNK         0.1400 
     43 CB          1.0730  -15.8028  -38.3456 C.3       6 UNK        -0.1800 
     44 N           2.2153  -15.3961  -40.5052 N.am      6 UNK        -0.5000 
     45 C           2.4434  -16.5814  -41.0999 C.2       5 UNK         0.5000 
     46 O           1.6855  -17.5487  -41.0051 O.2       5 UNK        -0.5000 
     47 CA          3.6888  -16.6949  -42.0055 C.3       5 UNK         0.1400 
     48 CB          3.2659  -16.8493  -43.4742 C.3       5 UNK        -0.1800 
     49 N           4.5872  -15.5441  -41.9046 N.am      5 UNK        -0.5000 
     50 C           5.4215  -15.3129  -40.8822 C.2       4 UNK         0.5000 
     51 O           5.5885  -16.1000  -39.9500 O.2       4 UNK        -0.5000 
     52 CA          6.1785  -13.9687  -40.8797 C.3       4 UNK         0.1400 
     53 CB          7.6367  -14.1752  -41.3181 C.3       4 UNK        -0.1800 
     54 N           5.5812  -12.9173  -41.7118 N.am      4 UNK        -0.5000 
     55 C           4.3570  -12.3900  -41.5664 C.2       3 UNK         0.5000 
     56 O           3.5403  -12.7891  -40.7335 O.2       3 UNK        -0.5000 
     57 CA          3.9704  -11.2211  -42.4980 C.3       3 UNK         0.1400 
     58 CB          5.0175  -10.9032  -43.5907 C.3       3 UNK        -0.1800 
     59 N           2.6437  -11.3986  -43.0976 N.am      3 UNK        -0.5000 
     60 C           2.2476  -12.3884  -43.9100 C.2       2 UNK         0.5000 
     61 O           2.9615  -13.3443  -44.2251 O.2       2 UNK        -0.5000 
     62 CA          0.8175  -12.2894  -44.4765 C.3       2 UNK         0.1400 
     63 CB          0.3812  -10.8359  -44.7679 C.3       2 UNK        -0.1800 
     64 N           0.7342  -13.0914  -45.6957 N.am      2 UNK        -0.5000 
     65 C          -0.3900  -13.5438  -46.2630 C.2       1 UNK         0.5000 
     66 O          -1.5134  -13.3472  -45.7986 O.2       1 UNK        -0.5000 
     67 C          -3.0927  -21.2412  -46.6562 C.2       11 UNK         0.5000 
     68 O          -3.5596  -21.7185  -47.6910 O.2       11 UNK        -0.5000 
     69 N          -2.5401  -21.9711  -45.6752 N.am      12 UNK        -0.5000 
     70 CA         -2.3933  -23.4247  -45.7032 C.3       12 UNK         0.1400 
     71 CB         -1.8538  -23.9137  -44.3507 C.3       12 UNK        -0.1800 
     72 C          -1.5039  -23.9111  -46.8604 C.2       12 UNK         0.5000 
     73 O          -1.9042  -24.8235  -47.5828 O.2       12 UNK        -0.5000 
     74 N          -0.3356  -23.2767  -47.0374 N.am      13 UNK        -0.5000 
     75 CA          0.6140  -23.5812  -48.1086 C.3       13 UNK         0.1400 
     76 CB          1.9058  -22.7760  -47.9060 C.3       13 UNK        -0.1800 
     77 C           0.0354  -23.3379  -49.5130 C.2       13 UNK         0.5000 
     78 O           0.1765  -24.1996  -50.3799 O.2       13 UNK        -0.5000 
     79 N          -0.6310  -22.1917  -49.7047 N.am      14 UNK        -0.5000 
     80 CA         -1.2821  -21.8092  -50.9569 C.3       14 UNK         0.1400 
     81 CB         -1.7598  -20.3549  -50.8573 C.3       14 UNK        -0.1800 
     82 C          -2.4407  -22.7480  -51.3347 C.2       14 UNK         0.5000 
     83 O          -2.5463  -23.1387  -52.4986 O.2       14 UNK        -0.5000 
     84 N          -3.2538  -23.1335  -50.3401 N.am      15 UNK        -0.5000 
     85 CA         -4.3381  -24.1035  -50.4920 C.3       15 UNK         0.1400 
     86 CB         -5.1973  -24.1264  -49.2184 C.3       15 UNK        -0.1800 
     87 C          -3.8274  -25.5173  -50.8259 C.2       15 UNK         0.5000 
     88 O          -4.4112  -26.1815  -51.6826 O.2       15 UNK        -0.5000 
     89 N          -2.7456  -25.9445  -50.1579 N.am      16 UNK        -0.5000 
     90 CA         -2.0946  -27.2373  -50.3731 C.3       16 UNK         0.1400 
     91 CB         -1.0860  -27.5040  -49.2453 C.3       16 UNK        -0.1800 
     92 C          -1.4124  -27.3414  -51.7485 C.2       16 UNK         0.5000 
     93 O          -1.5358  -28.3751  -52.4070 O.2       16 UNK        -0.5000 
     94 N          -0.7139  -26.2737  -52.1600 N.am      17 UNK        -0.5000 
     95 CA         -0.0543  -26.1715  -53.4620 C.3       17 UNK         0.1400 
     96 CB          0.8930  -24.9613  -53.4636 C.3       17 UNK        -0.1800 
     97 C          -1.0562  -26.0657  -54.6243 C.2       17 UNK         0.5000 
     98 O          -0.8260  -26.6590  -55.6779 O.2       17 UNK        -0.5000 
     99 N          -2.1332  -25.2943  -54.4102 N.am      18 UNK        -0.5000 
    100 CA        -3.2386  -25.0055  -55.3323 C.3       18 UNK         0.1400 
    101 CB        -4.0010  -26.2915  -55.7086 C.3       18 UNK        -0.1800 
    102 C         -2.8412  -24.1727  -56.5715 C.2       18 UNK         0.5000 
    103 O         -3.6751  -23.9628  -57.4530 O.2       18 UNK        -0.5000 
    104 N         -1.5984  -23.6706  -56.6077 N.am      19 UNK        -0.5000 
    105 CA        -1.0865  -22.7584  -57.6343 C.3       19 UNK         0.1400 
    106 CB         0.4464  -22.7158  -57.5416 C.3       19 UNK        -0.1800 
    107 C         -1.6775  -21.3410  -57.5024 C.2       19 UNK         0.5000 
    108 O         -1.7730  -20.6200  -58.4960 O.2       19 UNK        -0.5000 
    109 N         -2.0808  -20.9876  -56.2780 N.am      20 UNK        -0.5000 
    110 CA        -2.7995  -19.7747  -55.9205 C.3       20 UNK         0.1400 
    111 CB        -1.8219  -18.7644  -55.2916 C.3       20 UNK        -0.1800 
    112 C         -3.9207  -20.2042  -54.9666 C.2       20 UNK         0.5000 
    113 O         -3.8493  -19.9355  -53.7675 O.2       20 UNK        -0.5000 
    114 N         -4.9124  -20.9249  -55.5091 N.am      21 UNK        -0.5000 
    115 CA        -6.0276  -21.5625  -54.7964 C.3       21 UNK         0.1400 
    116 CB        -6.6727  -22.6077  -55.7245 C.3       21 UNK        -0.1800 
    117 C         -7.0633  -20.5750  -54.2056 C.2       21 UNK         0.5000 
    118 O         -8.2675  -20.7307  -54.4146 O.2       21 UNK        -0.5000 
    119 N         -6.5624  -19.5869  -53.4603 N.am      22 UNK        -0.5000 
    120 CA        -7.2896  -18.6177  -52.6267 C.3       22 UNK         0.1400 
    121 C         -8.0977  -17.5433  -53.4167 C.2       22 UNK         0.5000 
    122 N         -7.8998  -17.3902  -54.7203 N.am      22 UNK        -0.7600 
    123 O         -8.8957  -16.8116  -52.8370 O.2       22 UNK        -0.5000 
    124 C124       -8.1376  -19.2892  -51.5069 C.3       23 UNK        -0.0398 
    125 S125       -7.3452  -20.5951  -50.4876 S.3       23 UNK        -0.2404 
    126 C126       -5.5597  -20.2071  -50.4294 C.3       23 UNK        -0.0205 
    127 H127        1.7192  -15.4008  -49.4959 H         1 UNK         0.0600 
    128 H128        2.7282  -14.4808  -48.3631 H         1 UNK         0.0600 
    129 H129        2.9874  -14.3417  -50.1001 H         1 UNK         0.0600 
    130 H130       -0.4675  -12.4909  -48.6437 H         1 UNK         0.3000 
    131 H131        0.5828  -15.0044  -47.4432 H         1 UNK         0.0600 
    132 H132       -1.7775  -15.7754  -47.2050 H         1 UNK         0.0800 
    133 H133       -2.3301  -14.3892  -48.1170 H         1 UNK         0.0800 
    134 H134       -2.8470  -16.0733  -51.3822 H         1 UNK         0.0800 
    135 H135       -3.2881  -14.8332  -50.2397 H         1 UNK         0.0800 
    136 H136       -3.9121  -18.2212  -51.3151 H         1 UNK         0.1150 
    137 H137       -6.3948  -19.3100  -47.9951 H         1 UNK         0.1150 
    138 H138       -4.2300  -15.6220  -47.9197 H         1 UNK         0.1150 
    139 H139       -6.1272  -16.1445  -46.2729 H         1 UNK         0.0800 
    140 H140       -6.6659  -17.8013  -46.1220 H         1 UNK         0.0800 
    141 H141       -5.1481  -19.7457  -45.7449 H         1 UNK         0.0800 
    142 H142       -3.9766  -19.7226  -44.4641 H         1 UNK         0.0800 
    143 H143       -3.3019  -19.2640  -47.4250 H         1 UNK         0.0600 
    144 H144       -1.6710  -18.7117  -45.2163 H         1 UNK         0.3000 
    145 H145        1.4991  -19.5967  -46.6599 H         1 UNK         0.0600 
    146 H146        0.2794  -16.8991  -45.8924 H         1 UNK         0.0600 
    147 H147        0.9756  -17.3083  -47.4572 H         1 UNK         0.0600 
    148 H148        1.9972  -17.2753  -46.0322 H         1 UNK         0.0600 
    149 H149        0.5032  -18.6012  -44.1021 H         1 UNK         0.3000 
    150 H150        0.3800  -21.7681  -42.5375 H         1 UNK         0.0600 
    151 H151        2.8032  -21.4212  -42.4277 H         1 UNK         0.0600 
    152 H152        2.0594  -20.7509  -40.9833 H         1 UNK         0.0600 
    153 H153        2.6046  -19.6844  -42.2756 H         1 UNK         0.0600 
    154 H154        0.2097  -19.0420  -41.5935 H         1 UNK         0.3000 
    155 H155       -3.3597  -18.8418  -42.1412 H         1 UNK         0.0600 
    156 H156       -1.6853  -19.0610  -39.5868 H         1 UNK         0.0600 
    157 H157       -2.9983  -20.1484  -40.0274 H         1 UNK         0.0600 
    158 H158       -3.3359  -18.4540  -39.7096 H         1 UNK         0.0600 
    159 H159       -1.9024  -16.8828  -40.9146 H         1 UNK         0.3000 
    160 H160       -0.7539  -15.0329  -43.7313 H         1 UNK         0.0600 
    161 H161       -2.2588  -13.4038  -42.6224 H         1 UNK         0.0600 
    162 H162       -3.0246  -14.6992  -41.7019 H         1 UNK         0.0600 
    163 H163       -3.1736  -14.6519  -43.4518 H         1 UNK         0.0600 
    164 H164        0.7126  -14.8022  -42.1230 H         1 UNK         0.3000 
    165 H165        1.1820  -13.9620  -39.4407 H         1 UNK         0.0600 
    166 H166        2.0322  -15.7017  -37.8378 H         1 UNK         0.0600 
    167 H167        0.3061  -15.4306  -37.6655 H         1 UNK         0.0600 
    168 H168        0.8851  -16.8659  -38.4992 H         1 UNK         0.0600 
    169 H169        2.8815  -14.6451  -40.6615 H         1 UNK         0.3000 
    170 H170        4.2320  -17.5939  -41.7072 H         1 UNK         0.0600 
    171 H171        2.6593  -17.7421  -43.6137 H         1 UNK         0.0600 
    172 H172        2.6771  -15.9983  -43.8175 H         1 UNK         0.0600 
    173 H173        4.1324  -16.9445  -44.1288 H         1 UNK         0.0600 
    174 H174        4.5030  -14.8401  -42.6257 H         1 UNK         0.3000 
    175 H175        6.1802  -13.6069  -39.8495 H         1 UNK         0.0600 
    176 H176        8.1292  -14.9279  -40.7010 H         1 UNK         0.0600 
    177 H177        8.2124  -13.2543  -41.2234 H         1 UNK         0.0600 
    178 H178        7.7007  -14.5077  -42.3549 H         1 UNK         0.0600 
    179 H179        6.1736  -12.5382  -42.4363 H         1 UNK         0.3000 
    180 H180        3.8965  -10.3437  -41.8540 H         1 UNK         0.0600 
    181 H181        5.1871  -11.7492  -44.2578 H         1 UNK         0.0600 
    182 H182        5.9764  -10.6226  -43.1533 H         1 UNK         0.0600 
    183 H183        4.6939  -10.0624  -44.2044 H         1 UNK         0.0600 
    184 H184        1.9732  -10.6783  -42.8702 H         1 UNK         0.3000 
    185 H185        0.1471  -12.7142  -43.7277 H         1 UNK         0.0600 
    186 H186        0.3351  -10.2389  -43.8569 H         1 UNK         0.0600 
    187 H187        1.0687  -10.3430  -45.4565 H         1 UNK         0.0600 
    188 H188       -0.6135  -10.7984  -45.2119 H         1 UNK         0.0600 
    189 H189        1.6333  -13.3236  -46.0979 H         1 UNK         0.3000 
    190 H190       -2.2017  -21.4980  -44.8428 H         1 UNK         0.3000 
    191 H191       -3.3869  -23.8539  -45.8473 H         1 UNK         0.0600 
    192 H192       -0.8746  -23.4888  -44.1286 H         1 UNK         0.0600 
    193 H193       -1.7519  -24.9996  -44.3402 H         1 UNK         0.0600 
    194 H194       -2.5267  -23.6417  -43.5372 H         1 UNK         0.0600 
    195 H195       -0.0613  -22.5526  -46.3813 H         1 UNK         0.3000 
    196 H196        0.8636  -24.6416  -48.0352 H         1 UNK         0.0600 
    197 H197        2.6318  -22.9980  -48.6891 H         1 UNK         0.0600 
    198 H198        2.3741  -23.0160  -46.9514 H         1 UNK         0.0600 
    199 H199        1.7177  -21.7023  -47.9265 H         1 UNK         0.0600 
    200 H200       -0.6858  -21.5156  -48.9452 H         1 UNK         0.3000 
    201 H201       -0.5367  -21.8673  -51.7525 H         1 UNK         0.0600 
    202 H202       -0.9268  -19.6760  -50.6747 H         1 UNK         0.0600 
    203 H203       -2.4772  -20.2247  -50.0464 H         1 UNK         0.0600 
    204 H204       -2.2384  -20.0347  -51.7810 H         1 UNK         0.0600 
    205 H205       -3.1134  -22.7498  -49.4105 H         1 UNK         0.3000 
    206 H206       -4.9687  -23.7726  -51.3200 H         1 UNK         0.0600 
    207 H207       -5.6526  -23.1548  -49.0288 H         1 UNK         0.0600 
    208 H208       -6.0079  -24.8508  -49.3064 H         1 UNK         0.0600 
    209 H209       -4.6088  -24.3954  -48.3406 H         1 UNK         0.0600 
    210 H210       -2.3558  -25.3580  -49.4258 H         1 UNK         0.3000 
    211 H211       -2.8636  -28.0112  -50.3258 H         1 UNK         0.0600 
    212 H212       -0.3129  -26.7360  -49.2061 H         1 UNK         0.0600 
    213 H213       -0.5892  -28.4651  -49.3831 H         1 UNK         0.0600 
    214 H214       -1.5802  -27.5303  -48.2740 H         1 UNK         0.0600 
    215 H215       -0.6029  -25.4834  -51.5290 H         1 UNK         0.3000 
    216 H216        0.5433  -27.0727  -53.6146 H         1 UNK         0.0600 
    217 H217        1.4041  -24.8635  -54.4223 H         1 UNK         0.0600 
    218 H218        1.6601  -25.0627  -52.6957 H         1 UNK         0.0600 
    219 H219        0.3573  -24.0294  -53.2775 H         1 UNK         0.0600 
    220 H220       -2.1939  -24.8008  -53.5239 H         1 UNK         0.3000 
    221 H221       -3.9268  -24.3763  -54.7659 H         1 UNK         0.0600 
    222 H222       -4.9152  -26.0584  -56.2558 H         1 UNK         0.0600 
    223 H223       -4.2910  -26.8500  -54.8182 H         1 UNK         0.0600 
    224 H224       -3.4033  -26.9497  -56.3395 H         1 UNK         0.0600 
    225 H225       -0.9707  -23.9092  -55.8550 H         1 UNK         0.3000 
    226 H226       -1.3635  -23.1476  -58.6163 H         1 UNK         0.0600 
    227 H227        0.8776  -23.7067  -57.6857 H         1 UNK         0.0600 
    228 H228        0.8657  -22.0647  -58.3098 H         1 UNK         0.0600 
    229 H229        0.7821  -22.3407  -56.5739 H         1 UNK         0.0600 
    230 H230       -1.9818  -21.6640  -55.5340 H         1 UNK         0.3000 
    231 H231       -3.2618  -19.3213  -56.7998 H         1 UNK         0.0600 
    232 H232       -1.0505  -18.4704  -56.0035 H         1 UNK         0.0600 
    233 H233       -1.3247  -19.1757  -54.4120 H         1 UNK         0.0600 
    234 H234       -2.3435  -17.8580  -54.9821 H         1 UNK         0.0600 
    235 H235       -4.8806  -21.0947  -56.5042 H         1 UNK         0.3000 
    236 H236       -5.6050  -22.1024  -53.9460 H         1 UNK         0.0600 
    237 H237       -5.9448  -23.3463  -56.0578 H         1 UNK         0.0600 
    238 H238       -7.4667  -23.1528  -55.2125 H         1 UNK         0.0600 
    239 H239       -7.1088  -22.1433  -56.6097 H         1 UNK         0.0600 
    240 H240       -5.5471  -19.5450  -53.3978 H         1 UNK         0.3000 
    241 H241       -6.5126  -18.0366  -52.1334 H         1 UNK         0.0600 
    242 H242       -8.4180  -16.6873  -55.2239 H         1 UNK         0.3800 
    243 H243       -7.2522  -17.9861  -55.2101 H         1 UNK         0.3800 
    244 H244       -9.0375  -19.7268  -51.9418 H         1 UNK         0.0800 
    245 H245       -8.4907  -18.5252  -50.8125 H         1 UNK         0.0800 
    246 H246       -5.1194  -20.2658  -51.4226 H         1 UNK         0.0800 
    247 H247       -5.0697  -20.9924  -49.8554 H         1 UNK         0.0800 
@<TRIPOS>BOND
     1    1    2 1    
     2    1  127 1    
     3    1  128 1    
     4    1  129 1    
     5    2    3 2    
     6    2    4 am   BACKBONE|DICT|INTERRES
     7    4    5 1    
     8    4  130 1    
     9    5    6 1    
    10    5   65 1    
    11    5  131 1    
    12    6    7 1    
    13    6  132 1    
    14    6  133 1    
    15    7    8 1    
    16    8    9 1    
    17    8  134 1    
    18    8  135 1    
    19    9   10 ar   
    20    9   14 ar   
    21   10   11 ar   
    22   10  136 1    
    23   11   12 ar   
    24   11  126 1    
    25   12   13 ar   
    26   12  137 1    
    27   13   14 ar   
    28   13   15 1    
    29   14  138 1    
    30   15   16 1    
    31   15  139 1    
    32   15  140 1    
    33   16   17 1    
    34   17   18 1    
    35   17  141 1    
    36   17  142 1    
    37   18   19 1    
    38   18   67 1    
    39   18  143 1    
    40   19   20 am   BACKBONE|DICT|INTERRES
    41   19  144 1    
    42   20   21 2    
    43   20   22 1    
    44   22   23 1    
    45   22   24 1    
    46   22  145 1    
    47   23  146 1    
    48   23  147 1    
    49   23  148 1    
    50   24   25 am   BACKBONE|DICT|INTERRES
    51   24  149 1    
    52   25   26 2    
    53   25   27 1    
    54   27   28 1    
    55   27   29 1    
    56   27  150 1    
    57   28  151 1    
    58   28  152 1    
    59   28  153 1    
    60   29   30 am   BACKBONE|DICT|INTERRES
    61   29  154 1    
    62   30   31 2    
    63   30   32 1    
    64   32   33 1    
    65   32   34 1    
    66   32  155 1    
    67   33  156 1    
    68   33  157 1    
    69   33  158 1    
    70   34   35 am   BACKBONE|DICT|INTERRES
    71   34  159 1    
    72   35   36 2    
    73   35   37 1    
    74   37   38 1    
    75   37   39 1    
    76   37  160 1    
    77   38  161 1    
    78   38  162 1    
    79   38  163 1    
    80   39   40 am   BACKBONE|DICT|INTERRES
    81   39  164 1    
    82   40   41 2    
    83   40   42 1    
    84   42   43 1    
    85   42   44 1    
    86   42  165 1    
    87   43  166 1    
    88   43  167 1    
    89   43  168 1    
    90   44   45 am   BACKBONE|DICT|INTERRES
    91   44  169 1    
    92   45   46 2    
    93   45   47 1    
    94   47   48 1    
    95   47   49 1    
    96   47  170 1    
    97   48  171 1    
    98   48  172 1    
    99   48  173 1    
   100   49   50 am   BACKBONE|DICT|INTERRES
   101   49  174 1    
   102   50   51 2    
   103   50   52 1    
   104   52   53 1    
   105   52   54 1    
   106   52  175 1    
   107   53  176 1    
   108   53  177 1    
   109   53  178 1    
   110   54   55 am   BACKBONE|DICT|INTERRES
   111   54  179 1    
   112   55   56 2    
   113   55   57 1    
   114   57   58 1    
   115   57   59 1    
   116   57  180 1    
   117   58  181 1    
   118   58  182 1    
   119   58  183 1    
   120   59   60 am   BACKBONE|DICT|INTERRES
   121   59  184 1    
   122   60   61 2    
   123   60   62 1    
   124   62   63 1    
   125   62   64 1    
   126   62  185 1    
   127   63  186 1    
   128   63  187 1    
   129   63  188 1    
   130   64   65 am   BACKBONE|DICT|INTERRES
   131   64  189 1    
   132   65   66 2    
   133   67   68 2    
   134   67   69 am   BACKBONE|DICT|INTERRES
   135   69   70 1    
   136   69  190 1    
   137   70   71 1    
   138   70   72 1    
   139   70  191 1    
   140   71  192 1    
   141   71  193 1    
   142   71  194 1    
   143   72   73 2    
   144   72   74 am   BACKBONE|DICT|INTERRES
   145   74   75 1    
   146   74  195 1    
   147   75   76 1    
   148   75   77 1    
   149   75  196 1    
   150   76  197 1    
   151   76  198 1    
   152   76  199 1    
   153   77   78 2    
   154   77   79 am   BACKBONE|DICT|INTERRES
   155   79   80 1    
   156   79  200 1    
   157   80   81 1    
   158   80   82 1    
   159   80  201 1    
   160   81  202 1    
   161   81  203 1    
   162   81  204 1    
   163   82   83 2    
   164   82   84 am   BACKBONE|DICT|INTERRES
   165   84   85 1    
   166   84  205 1    
   167   85   86 1    
   168   85   87 1    
   169   85  206 1    
   170   86  207 1    
   171   86  208 1    
   172   86  209 1    
   173   87   88 2    
   174   87   89 am   BACKBONE|DICT|INTERRES
   175   89   90 1    
   176   89  210 1    
   177   90   91 1    
   178   90   92 1    
   179   90  211 1    
   180   91  212 1    
   181   91  213 1    
   182   91  214 1    
   183   92   93 2    
   184   92   94 am   BACKBONE|DICT|INTERRES
   185   94   95 1    
   186   94  215 1    
   187   95   96 1    
   188   95   97 1    
   189   95  216 1    
   190   96  217 1    
   191   96  218 1    
   192   96  219 1    
   193   97   98 2    
   194   97   99 am   BACKBONE|DICT|INTERRES
   195   99  100 1    
   196   99  220 1    
   197  100  101 1    
   198  100  102 1    
   199  100  221 1    
   200  101  222 1    
   201  101  223 1    
   202  101  224 1    
   203  102  103 2    
   204  102  104 am   BACKBONE|DICT|INTERRES
   205  104  105 1    
   206  104  225 1    
   207  105  106 1    
   208  105  107 1    
   209  105  226 1    
   210  106  227 1    
   211  106  228 1    
   212  106  229 1    
   213  107  108 2    
   214  107  109 am   BACKBONE|DICT|INTERRES
   215  109  110 1    
   216  109  230 1    
   217  110  111 1    
   218  110  112 1    
   219  110  231 1    
   220  111  232 1    
   221  111  233 1    
   222  111  234 1    
   223  112  113 2    
   224  112  114 am   BACKBONE|DICT|INTERRES
   225  114  115 1    
   226  114  235 1    
   227  115  116 1    
   228  115  117 1    
   229  115  236 1    
   230  116  237 1    
   231  116  238 1    
   232  116  239 1    
   233  117  118 2    
   234  117  119 am   BACKBONE|DICT|INTERRES
   235  119  120 1    
   236  119  240 1    
   237  120  121 1    
   238  120  124 1    
   239  120  241 1    
   240  121  122 am   BACKBONE|DICT|INTERRES
   241  121  123 2    
   242  122  242 1    
   243  122  243 1    
   244  124  125 1    
   245  124  244 1    
   246  124  245 1    
   247  125  126 1    
   248  126  246 1    
   249  126  247 1    
@<TRIPOS>SUBSTRUCTURE
     1 UNK         1 GROUP             0       ****    0 ROOT    
