@<TRIPOS>MOLECULE
3R540
247   249    1
SMALL
USER_CHARGES


@<TRIPOS>ATOM
      1 CA         -1.8930  -15.6517  -50.0635 C.3       0 UNK        -0.1800 
      2 C          -0.5683  -14.9188  -50.2053 C.2       0 UNK         0.5000 
      3 O          -0.0412  -14.8150  -51.3119 O.2       0 UNK        -0.5000 
      4 N          -0.0347  -14.4226  -49.0836 N.am      1 UNK        -0.5000 
      5 CA          1.2621  -13.7426  -48.9811 C.3       1 UNK         0.1400 
      6 C6          2.3135  -14.6059  -48.2331 C.3       23 UNK        -0.0398 
      7 S7          2.8693  -16.0374  -49.2147 S.3       23 UNK        -0.2404 
      8 C8          1.7891  -17.3581  -48.5878 C.3       23 UNK        -0.0205 
      9 C9          1.9671  -18.6319  -49.3958 C.ar      23 UNK        -0.0193 
     10 C10         1.4722  -18.7080  -50.7022 C.ar      23 UNK        -0.1150 
     11 C11         1.6557  -19.8654  -51.4651 C.ar      23 UNK        -0.0193 
     12 C12         2.3321  -20.9533  -50.9062 C.ar      23 UNK        -0.1150 
     13 C13         2.8050  -20.8986  -49.5930 C.ar      23 UNK        -0.0193 
     14 C14         2.6265  -19.7325  -48.8432 C.ar      23 UNK        -0.1150 
     15 C15         3.4957  -22.1081  -48.9848 C.3       23 UNK        -0.0205 
     16 S16         2.2898  -23.3734  -48.4798 S.3       23 UNK        -0.2404 
     17 C17         1.3717  -22.4772  -47.1816 C.3       23 UNK        -0.0398 
     18 CA          0.6293  -23.4182  -46.2053 C.3       11 UNK         0.1400 
     19 N           0.4386  -22.7817  -44.8993 N.am      11 UNK        -0.5000 
     20 C           0.2119  -23.4398  -43.7548 C.2       10 UNK         0.5000 
     21 O           0.1133  -24.6651  -43.6786 O.2       10 UNK        -0.5000 
     22 CA          0.0436  -22.5786  -42.4899 C.3       10 UNK         0.1400 
     23 CB          1.4094  -22.1239  -41.9536 C.3       10 UNK        -0.1800 
     24 N          -0.8068  -21.4111  -42.7256 N.am      10 UNK        -0.5000 
     25 C          -2.1244  -21.4789  -42.9606 C.2       9 UNK         0.5000 
     26 O          -2.7659  -22.5281  -42.9281 O.2       9 UNK        -0.5000 
     27 CA         -2.8476  -20.1667  -43.3139 C.3       9 UNK         0.1400 
     28 CB         -3.2769  -19.4250  -42.0397 C.3       9 UNK        -0.1800 
     29 N          -2.0486  -19.2734  -44.1538 N.am      9 UNK        -0.5000 
     30 C          -1.6557  -19.5442  -45.4064 C.2       8 UNK         0.5000 
     31 O          -1.9473  -20.5761  -46.0072 O.2       8 UNK        -0.5000 
     32 CA         -0.7457  -18.5068  -46.0875 C.3       8 UNK         0.1400 
     33 CB         -1.5624  -17.3197  -46.6206 C.3       8 UNK        -0.1800 
     34 N           0.3104  -18.0283  -45.1960 N.am      8 UNK        -0.5000 
     35 C           1.2788  -18.8104  -44.6961 C.2       7 UNK         0.5000 
     36 O           1.4121  -20.0013  -44.9764 O.2       7 UNK        -0.5000 
     37 CA          2.2202  -18.1656  -43.6677 C.3       7 UNK         0.1400 
     38 CB          3.3340  -17.3721  -44.3683 C.3       7 UNK        -0.1800 
     39 N           1.4889  -17.3011  -42.7401 N.am      7 UNK        -0.5000 
     40 C           0.6417  -17.7563  -41.8040 C.2       6 UNK         0.5000 
     41 O           0.4283  -18.9511  -41.6021 O.2       6 UNK        -0.5000 
     42 CA         -0.1297  -16.7041  -40.9855 C.3       6 UNK         0.1400 
     43 CB          0.7037  -16.2375  -39.7830 C.3       6 UNK        -0.1800 
     44 N          -0.5229  -15.5420  -41.7826 N.am      6 UNK        -0.5000 
     45 C          -1.3815  -15.5774  -42.8120 C.2       5 UNK         0.5000 
     46 O          -1.9786  -16.5920  -43.1664 O.2       5 UNK        -0.5000 
     47 CA         -1.5587  -14.2756  -43.6149 C.3       5 UNK         0.1400 
     48 CB         -2.7290  -13.4500  -43.0625 C.3       5 UNK        -0.1800 
     49 N          -0.3513  -13.4485  -43.6327 N.am      5 UNK        -0.5000 
     50 C           0.8179  -13.8035  -44.1799 C.2       4 UNK         0.5000 
     51 O           0.9939  -14.8798  -44.7549 O.2       4 UNK        -0.5000 
     52 CA          1.9656  -12.7839  -44.0390 C.3       4 UNK         0.1400 
     53 CB          3.2784  -13.2575  -44.6846 C.3       4 UNK        -0.1800 
     54 N           1.5859  -11.4854  -44.5977 N.am      4 UNK        -0.5000 
     55 C           0.8862  -10.5467  -43.9433 C.2       3 UNK         0.5000 
     56 O           0.5117  -10.6769  -42.7769 O.2       3 UNK        -0.5000 
     57 CA          0.5054   -9.2688  -44.7155 C.3       3 UNK         0.1400 
     58 CB          1.5319   -8.1568  -44.4523 C.3       3 UNK        -0.1800 
     59 N           0.3823   -9.4715  -46.1591 N.am      3 UNK        -0.5000 
     60 C          -0.5548  -10.2190  -46.7577 C.2       2 UNK         0.5000 
     61 O          -1.4508  -10.8088  -46.1519 O.2       2 UNK        -0.5000 
     62 CA         -0.4738  -10.3503  -48.2926 C.3       2 UNK         0.1400 
     63 CB          0.4167   -9.2841  -48.9706 C.3       2 UNK        -0.1800 
     64 N          -0.0578  -11.6944  -48.7045 N.am      2 UNK        -0.5000 
     65 C           1.0611  -12.3475  -48.3511 C.2       1 UNK         0.5000 
     66 O           1.9015  -11.8874  -47.5757 O.2       1 UNK        -0.5000 
     67 C          -0.6828  -23.9671  -46.8126 C.2       11 UNK         0.5000 
     68 O          -0.6154  -24.8009  -47.7143 O.2       11 UNK        -0.5000 
     69 N          -1.8467  -23.5421  -46.2949 N.am      12 UNK        -0.5000 
     70 CA         -3.1935  -23.9293  -46.7385 C.3       12 UNK         0.1400 
     71 CB         -4.2366  -23.2376  -45.8494 C.3       12 UNK        -0.1800 
     72 C          -3.4644  -25.4495  -46.7719 C.2       12 UNK         0.5000 
     73 O          -4.3321  -25.8973  -47.5221 O.2       12 UNK        -0.5000 
     74 N          -2.7255  -26.2149  -45.9583 N.am      13 UNK        -0.5000 
     75 CA         -2.7667  -27.6757  -45.9238 C.3       13 UNK         0.1400 
     76 CB         -2.2326  -28.1446  -44.5613 C.3       13 UNK        -0.1800 
     77 C          -1.9703  -28.3396  -47.0673 C.2       13 UNK         0.5000 
     78 O          -2.2162  -29.5110  -47.3590 O.2       13 UNK        -0.5000 
     79 N          -1.0225  -27.6103  -47.6718 N.am      14 UNK        -0.5000 
     80 CA         -0.1036  -28.1088  -48.6959 C.3       14 UNK         0.1400 
     81 CB          1.3297  -27.7056  -48.3122 C.3       14 UNK        -0.1800 
     82 C          -0.4448  -27.5763  -50.0976 C.2       14 UNK         0.5000 
     83 O          -0.2716  -28.3064  -51.0747 O.2       14 UNK        -0.5000 
     84 N          -0.9151  -26.3277  -50.1823 N.am      15 UNK        -0.5000 
     85 CA         -1.2648  -25.6367  -51.4202 C.3       15 UNK         0.1400 
     86 CB         -0.0368  -24.8590  -51.9245 C.3       15 UNK        -0.1800 
     87 C          -2.4429  -24.6902  -51.1576 C.2       15 UNK         0.5000 
     88 O          -2.7299  -24.3740  -50.0037 O.2       15 UNK        -0.5000 
     89 N          -3.0920  -24.2104  -52.2256 N.am      16 UNK        -0.5000 
     90 CA         -4.2455  -23.3004  -52.1870 C.3       16 UNK         0.1400 
     91 CB         -4.9903  -23.3975  -53.5322 C.3       16 UNK        -0.1800 
     92 C          -3.8797  -21.8415  -51.8191 C.2       16 UNK         0.5000 
     93 O          -4.3963  -20.9036  -52.4302 O.2       16 UNK        -0.5000 
     94 N          -2.9843  -21.6701  -50.8405 N.am      17 UNK        -0.5000 
     95 CA         -2.4065  -20.4028  -50.4019 C.3       17 UNK         0.1400 
     96 CB         -1.2751  -20.6879  -49.4054 C.3       17 UNK        -0.1800 
     97 C          -3.4613  -19.4491  -49.8214 C.2       17 UNK         0.5000 
     98 O          -3.7453  -18.4170  -50.4259 O.2       17 UNK        -0.5000 
     99 N          -4.0711  -19.8302  -48.6915 N.am      18 UNK        -0.5000 
    100 CA        -5.1516  -19.0643  -48.0605 C.3       18 UNK         0.1400 
    101 CB        -5.4308  -19.6358  -46.6629 C.3       18 UNK        -0.1800 
    102 C         -6.4502  -19.0372  -48.8925 C.2       18 UNK         0.5000 
    103 O         -7.2541  -18.1186  -48.7307 O.2       18 UNK        -0.5000 
    104 N         -6.6361  -20.0499  -49.7497 N.am      19 UNK        -0.5000 
    105 CA        -7.8116  -20.2147  -50.5975 C.3       19 UNK         0.1400 
    106 CB        -7.9028  -21.6760  -51.0635 C.3       19 UNK        -0.1800 
    107 C         -7.8290  -19.2521  -51.7976 C.2       19 UNK         0.5000 
    108 O         -8.8549  -18.6109  -52.0312 O.2       19 UNK        -0.5000 
    109 N         -6.7223  -19.1834  -52.5522 N.am      20 UNK        -0.5000 
    110 CA        -6.6709  -18.4880  -53.8412 C.3       20 UNK         0.1400 
    111 CB        -7.3057  -19.3818  -54.9288 C.3       20 UNK        -0.1800 
    112 C         -5.2520  -18.0314  -54.2295 C.2       20 UNK         0.5000 
    113 O         -4.9763  -17.8873  -55.4226 O.2       20 UNK        -0.5000 
    114 N         -4.3597  -17.8324  -53.2455 N.am      21 UNK        -0.5000 
    115 CA        -2.9553  -17.4217  -53.4147 C.3       21 UNK         0.1400 
    116 CB        -2.8734  -15.9560  -53.8886 C.3       21 UNK        -0.1800 
    117 C         -2.1387  -18.3866  -54.3027 C.2       21 UNK         0.5000 
    118 O         -1.2324  -17.9559  -55.0174 O.2       21 UNK        -0.5000 
    119 N         -2.5028  -19.6741  -54.2510 N.am      22 UNK        -0.5000 
    120 CA        -1.9913  -20.7722  -55.0862 C.3       22 UNK         0.1400 
    121 C         -2.4062  -20.6918  -56.5881 C.2       22 UNK         0.5000 
    122 N         -3.3479  -19.8411  -56.9816 N.am      22 UNK        -0.7600 
    123 O         -1.8906  -21.4398  -57.4144 O.2       22 UNK        -0.5000 
    124 C124       -0.4731  -21.0472  -54.8997 C.3       23 UNK        -0.0398 
    125 S125       -0.0133  -21.3112  -53.1531 S.3       23 UNK        -0.2404 
    126 C126        1.1483  -19.9326  -52.8978 C.3       23 UNK        -0.0205 
    127 H127       -2.3576  -15.4723  -49.0937 H         1 UNK         0.0600 
    128 H128       -1.7270  -16.7230  -50.1684 H         1 UNK         0.0600 
    129 H129       -2.5916  -15.3331  -50.8366 H         1 UNK         0.0600 
    130 H130       -0.5403  -14.5097  -48.2133 H         1 UNK         0.3000 
    131 H131        1.6559  -13.5371  -49.9786 H         1 UNK         0.0600 
    132 H132        1.9336  -14.9395  -47.2667 H         1 UNK         0.0800 
    133 H133        3.2129  -14.0241  -48.0270 H         1 UNK         0.0800 
    134 H134        0.7474  -17.0485  -48.6460 H         1 UNK         0.0800 
    135 H135        2.0076  -17.5306  -47.5332 H         1 UNK         0.0800 
    136 H136        0.9616  -17.8551  -51.1277 H         1 UNK         0.1150 
    137 H137        2.4719  -21.8536  -51.4882 H         1 UNK         0.1150 
    138 H138        2.9970  -19.6837  -47.8287 H         1 UNK         0.1150 
    139 H139        4.1808  -22.5420  -49.7145 H         1 UNK         0.0800 
    140 H140        4.1049  -21.8180  -48.1274 H         1 UNK         0.0800 
    141 H141        0.6931  -21.7529  -47.6337 H         1 UNK         0.0800 
    142 H142        2.1083  -21.8922  -46.6303 H         1 UNK         0.0800 
    143 H143        1.2716  -24.2852  -46.0342 H         1 UNK         0.0600 
    144 H144        0.5417  -21.7711  -44.8724 H         1 UNK         0.3000 
    145 H145       -0.4302  -23.1975  -41.7249 H         1 UNK         0.0600 
    146 H146        1.3020  -21.5835  -41.0130 H         1 UNK         0.0600 
    147 H147        1.9230  -21.4688  -42.6578 H         1 UNK         0.0600 
    148 H148        2.0598  -22.9789  -41.7648 H         1 UNK         0.0600 
    149 H149       -0.3578  -20.5022  -42.6925 H         1 UNK         0.3000 
    150 H150       -3.7489  -20.4295  -43.8708 H         1 UNK         0.0600 
    151 H151       -3.8971  -20.0610  -41.4068 H         1 UNK         0.0600 
    152 H152       -3.8606  -18.5360  -42.2791 H         1 UNK         0.0600 
    153 H153       -2.4163  -19.1115  -41.4486 H         1 UNK         0.0600 
    154 H154       -1.8175  -18.3668  -43.7554 H         1 UNK         0.3000 
    155 H155       -0.2588  -18.9951  -46.9329 H         1 UNK         0.0600 
    156 H156       -2.2528  -17.6449  -47.3995 H         1 UNK         0.0600 
    157 H157       -0.9184  -16.5545  -47.0513 H         1 UNK         0.0600 
    158 H158       -2.1547  -16.8488  -45.8363 H         1 UNK         0.0600 
    159 H159        0.2795  -17.0560  -44.9158 H         1 UNK         0.3000 
    160 H160        2.6877  -18.9666  -43.0909 H         1 UNK         0.0600 
    161 H161        2.9364  -16.5888  -45.0132 H         1 UNK         0.0600 
    162 H162        3.9392  -18.0285  -44.9948 H         1 UNK         0.0600 
    163 H163        4.0030  -16.9058  -43.6451 H         1 UNK         0.0600 
    164 H164        1.5677  -16.3056  -42.8888 H         1 UNK         0.3000 
    165 H165       -1.0387  -17.1769  -40.6083 H         1 UNK         0.0600 
    166 H166        0.1374  -15.5511  -39.1532 H         1 UNK         0.0600 
    167 H167        0.9951  -17.0836  -39.1591 H         1 UNK         0.0600 
    168 H168        1.6173  -15.7307  -40.0965 H         1 UNK         0.0600 
    169 H169       -0.0820  -14.6628  -41.5569 H         1 UNK         0.3000 
    170 H170       -1.7899  -14.5522  -44.6456 H         1 UNK         0.0600 
    171 H171       -2.5429  -13.1211  -42.0393 H         1 UNK         0.0600 
    172 H172       -2.9072  -12.5642  -43.6729 H         1 UNK         0.0600 
    173 H173       -3.6509  -14.0330  -43.0589 H         1 UNK         0.0600 
    174 H174       -0.4086  -12.5384  -43.1903 H         1 UNK         0.3000 
    175 H175        2.1593  -12.6718  -42.9703 H         1 UNK         0.0600 
    176 H176        3.1735  -13.3970  -45.7581 H         1 UNK         0.0600 
    177 H177        4.0791  -12.5365  -44.5198 H         1 UNK         0.0600 
    178 H178        3.6051  -14.2068  -44.2590 H         1 UNK         0.0600 
    179 H179        1.7890  -11.3480  -45.5828 H         1 UNK         0.3000 
    180 H180       -0.4639   -8.9353  -44.3391 H         1 UNK         0.0600 
    181 H181        1.2326   -7.2223  -44.9275 H         1 UNK         0.0600 
    182 H182        2.5203   -8.4244  -44.8282 H         1 UNK         0.0600 
    183 H183        1.6292   -7.9597  -43.3838 H         1 UNK         0.0600 
    184 H184        1.0944   -9.0485  -46.7364 H         1 UNK         0.3000 
    185 H185       -1.4906  -10.2110  -48.6629 H         1 UNK         0.0600 
    186 H186        1.4686   -9.3876  -48.7020 H         1 UNK         0.0600 
    187 H187        0.3491   -9.3583  -50.0560 H         1 UNK         0.0600 
    188 H188        0.0996   -8.2760  -48.7002 H         1 UNK         0.0600 
    189 H189       -0.6974  -12.1757  -49.3207 H         1 UNK         0.3000 
    190 H190       -1.8064  -22.8127  -45.5951 H         1 UNK         0.3000 
    191 H191       -3.3185  -23.5406  -47.7477 H         1 UNK         0.0600 
    192 H192       -4.0658  -22.1640  -45.7931 H         1 UNK         0.0600 
    193 H193       -4.2213  -23.6336  -44.8339 H         1 UNK         0.0600 
    194 H194       -5.2432  -23.3869  -46.2419 H         1 UNK         0.0600 
    195 H195       -2.0434  -25.7626  -45.3657 H         1 UNK         0.3000 
    196 H196       -3.8051  -28.0022  -46.0121 H         1 UNK         0.0600 
    197 H197       -2.8286  -27.7393  -43.7433 H         1 UNK         0.0600 
    198 H198       -1.1976  -27.8359  -44.4074 H         1 UNK         0.0600 
    199 H199       -2.2673  -29.2318  -44.4794 H         1 UNK         0.0600 
    200 H200       -0.9274  -26.6269  -47.4342 H         1 UNK         0.3000 
    201 H201       -0.1406  -29.1992  -48.7408 H         1 UNK         0.0600 
    202 H202        1.6094  -28.1206  -47.3438 H         1 UNK         0.0600 
    203 H203        1.4439  -26.6220  -48.2575 H         1 UNK         0.0600 
    204 H204        2.0489  -28.0744  -49.0446 H         1 UNK         0.0600 
    205 H205       -1.0442  -25.7759  -49.3368 H         1 UNK         0.3000 
    206 H206       -1.5778  -26.3602  -52.1757 H         1 UNK         0.0600 
    207 H207        0.2737  -24.0933  -51.2113 H         1 UNK         0.0600 
    208 H208        0.8116  -25.5227  -52.0910 H         1 UNK         0.0600 
    209 H209       -0.2476  -24.3616  -52.8715 H         1 UNK         0.0600 
    210 H210       -2.7753  -24.4825  -53.1447 H         1 UNK         0.3000 
    211 H211       -4.9279  -23.6500  -51.4096 H         1 UNK         0.0600 
    212 H212       -4.3615  -23.0860  -54.3660 H         1 UNK         0.0600 
    213 H213       -5.8815  -22.7695  -53.5455 H         1 UNK         0.0600 
    214 H214       -5.3181  -24.4189  -53.7258 H         1 UNK         0.0600 
    215 H215       -2.6510  -22.5103  -50.3769 H         1 UNK         0.3000 
    216 H216       -1.9686  -19.9136  -51.2739 H         1 UNK         0.0600 
    217 H217       -0.8311  -19.7606  -49.0454 H         1 UNK         0.0600 
    218 H218       -0.4794  -21.2664  -49.8753 H         1 UNK         0.0600 
    219 H219       -1.6238  -21.2538  -48.5418 H         1 UNK         0.0600 
    220 H220       -3.7793  -20.6806  -48.2322 H         1 UNK         0.3000 
    221 H221       -4.8143  -18.0319  -47.9452 H         1 UNK         0.0600 
    222 H222       -5.7643  -20.6727  -46.7120 H         1 UNK         0.0600 
    223 H223       -4.5434  -19.5929  -46.0345 H         1 UNK         0.0600 
    224 H224       -6.2101  -19.0654  -46.1560 H         1 UNK         0.0600 
    225 H225       -5.9140  -20.7494  -49.8224 H         1 UNK         0.3000 
    226 H226       -8.6980  -20.0060  -49.9943 H         1 UNK         0.0600 
    227 H227       -7.9888  -22.3558  -50.2155 H         1 UNK         0.0600 
    228 H228       -8.7795  -21.8308  -51.6938 H         1 UNK         0.0600 
    229 H229       -7.0284  -21.9706  -51.6414 H         1 UNK         0.0600 
    230 H230       -5.9131  -19.7556  -52.3231 H         1 UNK         0.3000 
    231 H231       -7.2567  -17.5694  -53.7700 H         1 UNK         0.0600 
    232 H232       -7.3371  -18.8748  -55.8939 H         1 UNK         0.0600 
    233 H233       -8.3326  -19.6487  -54.6797 H         1 UNK         0.0600 
    234 H234       -6.7421  -20.3065  -55.0590 H         1 UNK         0.0600 
    235 H235       -4.6343  -18.0077  -52.2850 H         1 UNK         0.3000 
    236 H236       -2.4902  -17.4677  -52.4312 H         1 UNK         0.0600 
    237 H237       -3.2371  -15.8392  -54.9098 H         1 UNK         0.0600 
    238 H238       -3.4608  -15.3004  -53.2460 H         1 UNK         0.0600 
    239 H239       -1.8445  -15.5948  -53.8628 H         1 UNK         0.0600 
    240 H240       -3.2641  -19.9293  -53.6287 H         1 UNK         0.3000 
    241 H241       -2.5095  -21.6570  -54.7188 H         1 UNK         0.0600 
    242 H242       -3.6088  -19.8140  -57.9542 H         1 UNK         0.3800 
    243 H243       -3.7954  -19.2047  -56.3296 H         1 UNK         0.3800 
    244 H244        0.1183  -20.2363  -55.3265 H         1 UNK         0.0800 
    245 H245       -0.1821  -21.9462  -55.4450 H         1 UNK         0.0800 
    246 H246        1.9997  -20.0496  -53.5695 H         1 UNK         0.0800 
    247 H247        0.6584  -18.9980  -53.1738 H         1 UNK         0.0800 
@<TRIPOS>BOND
     1    1    2 1    
     2    1  127 1    
     3    1  128 1    
     4    1  129 1    
     5    2    3 2    
     6    2    4 am   BACKBONE|DICT|INTERRES
     7    4    5 1    
     8    4  130 1    
     9    5    6 1    
    10    5   65 1    
    11    5  131 1    
    12    6    7 1    
    13    6  132 1    
    14    6  133 1    
    15    7    8 1    
    16    8    9 1    
    17    8  134 1    
    18    8  135 1    
    19    9   10 ar   
    20    9   14 ar   
    21   10   11 ar   
    22   10  136 1    
    23   11   12 ar   
    24   11  126 1    
    25   12   13 ar   
    26   12  137 1    
    27   13   14 ar   
    28   13   15 1    
    29   14  138 1    
    30   15   16 1    
    31   15  139 1    
    32   15  140 1    
    33   16   17 1    
    34   17   18 1    
    35   17  141 1    
    36   17  142 1    
    37   18   19 1    
    38   18   67 1    
    39   18  143 1    
    40   19   20 am   BACKBONE|DICT|INTERRES
    41   19  144 1    
    42   20   21 2    
    43   20   22 1    
    44   22   23 1    
    45   22   24 1    
    46   22  145 1    
    47   23  146 1    
    48   23  147 1    
    49   23  148 1    
    50   24   25 am   BACKBONE|DICT|INTERRES
    51   24  149 1    
    52   25   26 2    
    53   25   27 1    
    54   27   28 1    
    55   27   29 1    
    56   27  150 1    
    57   28  151 1    
    58   28  152 1    
    59   28  153 1    
    60   29   30 am   BACKBONE|DICT|INTERRES
    61   29  154 1    
    62   30   31 2    
    63   30   32 1    
    64   32   33 1    
    65   32   34 1    
    66   32  155 1    
    67   33  156 1    
    68   33  157 1    
    69   33  158 1    
    70   34   35 am   BACKBONE|DICT|INTERRES
    71   34  159 1    
    72   35   36 2    
    73   35   37 1    
    74   37   38 1    
    75   37   39 1    
    76   37  160 1    
    77   38  161 1    
    78   38  162 1    
    79   38  163 1    
    80   39   40 am   BACKBONE|DICT|INTERRES
    81   39  164 1    
    82   40   41 2    
    83   40   42 1    
    84   42   43 1    
    85   42   44 1    
    86   42  165 1    
    87   43  166 1    
    88   43  167 1    
    89   43  168 1    
    90   44   45 am   BACKBONE|DICT|INTERRES
    91   44  169 1    
    92   45   46 2    
    93   45   47 1    
    94   47   48 1    
    95   47   49 1    
    96   47  170 1    
    97   48  171 1    
    98   48  172 1    
    99   48  173 1    
   100   49   50 am   BACKBONE|DICT|INTERRES
   101   49  174 1    
   102   50   51 2    
   103   50   52 1    
   104   52   53 1    
   105   52   54 1    
   106   52  175 1    
   107   53  176 1    
   108   53  177 1    
   109   53  178 1    
   110   54   55 am   BACKBONE|DICT|INTERRES
   111   54  179 1    
   112   55   56 2    
   113   55   57 1    
   114   57   58 1    
   115   57   59 1    
   116   57  180 1    
   117   58  181 1    
   118   58  182 1    
   119   58  183 1    
   120   59   60 am   BACKBONE|DICT|INTERRES
   121   59  184 1    
   122   60   61 2    
   123   60   62 1    
   124   62   63 1    
   125   62   64 1    
   126   62  185 1    
   127   63  186 1    
   128   63  187 1    
   129   63  188 1    
   130   64   65 am   BACKBONE|DICT|INTERRES
   131   64  189 1    
   132   65   66 2    
   133   67   68 2    
   134   67   69 am   BACKBONE|DICT|INTERRES
   135   69   70 1    
   136   69  190 1    
   137   70   71 1    
   138   70   72 1    
   139   70  191 1    
   140   71  192 1    
   141   71  193 1    
   142   71  194 1    
   143   72   73 2    
   144   72   74 am   BACKBONE|DICT|INTERRES
   145   74   75 1    
   146   74  195 1    
   147   75   76 1    
   148   75   77 1    
   149   75  196 1    
   150   76  197 1    
   151   76  198 1    
   152   76  199 1    
   153   77   78 2    
   154   77   79 am   BACKBONE|DICT|INTERRES
   155   79   80 1    
   156   79  200 1    
   157   80   81 1    
   158   80   82 1    
   159   80  201 1    
   160   81  202 1    
   161   81  203 1    
   162   81  204 1    
   163   82   83 2    
   164   82   84 am   BACKBONE|DICT|INTERRES
   165   84   85 1    
   166   84  205 1    
   167   85   86 1    
   168   85   87 1    
   169   85  206 1    
   170   86  207 1    
   171   86  208 1    
   172   86  209 1    
   173   87   88 2    
   174   87   89 am   BACKBONE|DICT|INTERRES
   175   89   90 1    
   176   89  210 1    
   177   90   91 1    
   178   90   92 1    
   179   90  211 1    
   180   91  212 1    
   181   91  213 1    
   182   91  214 1    
   183   92   93 2    
   184   92   94 am   BACKBONE|DICT|INTERRES
   185   94   95 1    
   186   94  215 1    
   187   95   96 1    
   188   95   97 1    
   189   95  216 1    
   190   96  217 1    
   191   96  218 1    
   192   96  219 1    
   193   97   98 2    
   194   97   99 am   BACKBONE|DICT|INTERRES
   195   99  100 1    
   196   99  220 1    
   197  100  101 1    
   198  100  102 1    
   199  100  221 1    
   200  101  222 1    
   201  101  223 1    
   202  101  224 1    
   203  102  103 2    
   204  102  104 am   BACKBONE|DICT|INTERRES
   205  104  105 1    
   206  104  225 1    
   207  105  106 1    
   208  105  107 1    
   209  105  226 1    
   210  106  227 1    
   211  106  228 1    
   212  106  229 1    
   213  107  108 2    
   214  107  109 am   BACKBONE|DICT|INTERRES
   215  109  110 1    
   216  109  230 1    
   217  110  111 1    
   218  110  112 1    
   219  110  231 1    
   220  111  232 1    
   221  111  233 1    
   222  111  234 1    
   223  112  113 2    
   224  112  114 am   BACKBONE|DICT|INTERRES
   225  114  115 1    
   226  114  235 1    
   227  115  116 1    
   228  115  117 1    
   229  115  236 1    
   230  116  237 1    
   231  116  238 1    
   232  116  239 1    
   233  117  118 2    
   234  117  119 am   BACKBONE|DICT|INTERRES
   235  119  120 1    
   236  119  240 1    
   237  120  121 1    
   238  120  124 1    
   239  120  241 1    
   240  121  122 am   BACKBONE|DICT|INTERRES
   241  121  123 2    
   242  122  242 1    
   243  122  243 1    
   244  124  125 1    
   245  124  244 1    
   246  124  245 1    
   247  125  126 1    
   248  126  246 1    
   249  126  247 1    
@<TRIPOS>SUBSTRUCTURE
     1 UNK         1 GROUP             0       ****    0 ROOT    
