@<TRIPOS>MOLECULE
3R540
247   249    1
SMALL
USER_CHARGES


@<TRIPOS>ATOM
      1 CA          0.1783  -11.6269  -51.9431 C.3       0 UNK        -0.1800 
      2 C           0.2268  -12.5176  -50.7098 C.2       0 UNK         0.5000 
      3 O          -0.1737  -12.0851  -49.6298 O.2       0 UNK        -0.5000 
      4 N           0.7283  -13.7508  -50.8696 N.am      1 UNK        -0.5000 
      5 CA          0.8347  -14.7998  -49.8399 C.3       1 UNK         0.1400 
      6 C6         -0.5394  -15.2678  -49.2848 C.3       23 UNK        -0.0398 
      7 S7         -1.6081  -15.9685  -50.5911 S.3       23 UNK        -0.2404 
      8 C8         -1.5146  -17.7491  -50.2273 C.3       23 UNK        -0.0205 
      9 C9         -0.1912  -18.3659  -50.6560 C.ar      23 UNK        -0.0193 
     10 C10        -0.0543  -18.9140  -51.9346 C.ar      23 UNK        -0.1150 
     11 C11         1.1407  -19.5274  -52.3243 C.ar      23 UNK        -0.0193 
     12 C12         2.2135  -19.5643  -51.4308 C.ar      23 UNK        -0.1150 
     13 C13         2.0917  -19.0152  -50.1515 C.ar      23 UNK        -0.0193 
     14 C14         0.8854  -18.4239  -49.7661 C.ar      23 UNK        -0.1150 
     15 C15         3.2687  -19.0698  -49.1924 C.3       23 UNK        -0.0205 
     16 S16         3.3395  -20.6608  -48.3119 S.3       23 UNK        -0.2404 
     17 C17         2.1615  -20.3785  -46.9510 C.3       23 UNK        -0.0398 
     18 CA          1.1853  -21.5605  -46.7309 C.3       11 UNK         0.1400 
     19 N           0.8107  -21.6890  -45.3202 N.am      11 UNK        -0.5000 
     20 C           0.1395  -22.7205  -44.7911 C.2       10 UNK         0.5000 
     21 O          -0.1737  -23.7268  -45.4271 O.2       10 UNK        -0.5000 
     22 CA         -0.3038  -22.5748  -43.3214 C.3       10 UNK         0.1400 
     23 CB          0.8177  -22.9958  -42.3608 C.3       10 UNK        -0.1800 
     24 N          -0.7403  -21.2119  -43.0057 N.am      10 UNK        -0.5000 
     25 C          -1.8251  -20.6299  -43.5377 C.2       9 UNK         0.5000 
     26 O          -2.6169  -21.2201  -44.2714 O.2       9 UNK        -0.5000 
     27 CA         -2.0263  -19.1276  -43.2600 C.3       9 UNK         0.1400 
     28 CB         -2.7214  -18.9019  -41.9099 C.3       9 UNK        -0.1800 
     29 N          -0.7685  -18.3796  -43.3035 N.am      9 UNK        -0.5000 
     30 C          -0.0165  -18.2230  -44.4015 C.2       8 UNK         0.5000 
     31 O          -0.3470  -18.6295  -45.5127 O.2       8 UNK        -0.5000 
     32 CA          1.3599  -17.5600  -44.2274 C.3       8 UNK         0.1400 
     33 CB          1.2615  -16.0376  -44.3582 C.3       8 UNK        -0.1800 
     34 N           1.9848  -17.9112  -42.9536 N.am      8 UNK        -0.5000 
     35 C           2.4934  -19.1189  -42.6749 C.2       7 UNK         0.5000 
     36 O           2.5236  -20.0463  -43.4828 O.2       7 UNK        -0.5000 
     37 CA          3.0112  -19.3380  -41.2413 C.3       7 UNK         0.1400 
     38 CB          4.4482  -18.8154  -41.0986 C.3       7 UNK        -0.1800 
     39 N           2.1595  -18.6981  -40.2371 N.am      7 UNK        -0.5000 
     40 C           0.9021  -19.0742  -39.9635 C.2       6 UNK         0.5000 
     41 O           0.3524  -20.0422  -40.4892 O.2       6 UNK        -0.5000 
     42 CA          0.1104  -18.1873  -38.9804 C.3       6 UNK         0.1400 
     43 CB          0.3334  -18.6549  -37.5347 C.3       6 UNK        -0.1800 
     44 N           0.4315  -16.7580  -39.0846 N.am      6 UNK        -0.5000 
     45 C           0.2732  -16.0202  -40.1921 C.2       5 UNK         0.5000 
     46 O          -0.1543  -16.4805  -41.2518 O.2       5 UNK        -0.5000 
     47 CA          0.7356  -14.5517  -40.1146 C.3       5 UNK         0.1400 
     48 CB          2.2705  -14.4805  -40.0409 C.3       5 UNK        -0.1800 
     49 N           0.3033  -13.7609  -41.2684 N.am      5 UNK        -0.5000 
     50 C          -0.9544  -13.3814  -41.5376 C.2       4 UNK         0.5000 
     51 O          -1.9079  -13.6233  -40.7956 O.2       4 UNK        -0.5000 
     52 CA         -1.1815  -12.5761  -42.8374 C.3       4 UNK         0.1400 
     53 CB         -2.0673  -11.3425  -42.5877 C.3       4 UNK        -0.1800 
     54 N           0.0861  -12.1303  -43.4275 N.am      4 UNK        -0.5000 
     55 C           0.5759  -12.5204  -44.6107 C.2       3 UNK         0.5000 
     56 O          -0.0367  -13.2357  -45.4058 O.2       3 UNK        -0.5000 
     57 CA          1.9995  -12.0384  -44.9426 C.3       3 UNK         0.1400 
     58 CB          2.9924  -12.3453  -43.7982 C.3       3 UNK        -0.1800 
     59 N           2.4684  -12.6588  -46.1806 N.am      3 UNK        -0.5000 
     60 C           3.4727  -12.2095  -46.9399 C.2       2 UNK         0.5000 
     61 O           4.0873  -11.1694  -46.6985 O.2       2 UNK        -0.5000 
     62 CA          3.8820  -13.0416  -48.1723 C.3       2 UNK         0.1400 
     63 CB          4.8400  -14.1825  -47.7762 C.3       2 UNK        -0.1800 
     64 N           2.7721  -13.5323  -48.9990 N.am      2 UNK        -0.5000 
     65 C           1.8474  -14.4622  -48.7181 C.2       1 UNK         0.5000 
     66 O           1.7954  -15.0617  -47.6446 O.2       1 UNK        -0.5000 
     67 C          -0.0589  -21.4845  -47.6459 C.2       11 UNK         0.5000 
     68 O          -0.1114  -22.1817  -48.6568 O.2       11 UNK        -0.5000 
     69 N          -1.0707  -20.7032  -47.2384 N.am      12 UNK        -0.5000 
     70 CA         -2.3755  -20.6042  -47.8955 C.3       12 UNK         0.1400 
     71 CB         -3.2084  -19.4871  -47.2463 C.3       12 UNK        -0.1800 
     72 C          -3.1544  -21.9314  -47.8840 C.2       12 UNK         0.5000 
     73 O          -3.7836  -22.2719  -48.8850 O.2       12 UNK        -0.5000 
     74 N          -3.0864  -22.6700  -46.7676 N.am      13 UNK        -0.5000 
     75 CA         -3.6721  -24.0035  -46.6255 C.3       13 UNK         0.1400 
     76 CB         -3.6078  -24.4548  -45.1597 C.3       13 UNK        -0.1800 
     77 C          -3.0166  -25.0383  -47.5599 C.2       13 UNK         0.5000 
     78 O          -3.7256  -25.8541  -48.1499 O.2       13 UNK        -0.5000 
     79 N          -1.6882  -24.9597  -47.7210 N.am      14 UNK        -0.5000 
     80 CA         -0.9363  -25.7461  -48.7009 C.3       14 UNK         0.1400 
     81 CB          0.5698  -25.6157  -48.4273 C.3       14 UNK        -0.1800 
     82 C          -1.2786  -25.3506  -50.1516 C.2       14 UNK         0.5000 
     83 O          -1.4339  -26.2277  -51.0027 O.2       14 UNK        -0.5000 
     84 N          -1.4429  -24.0446  -50.3993 N.am      15 UNK        -0.5000 
     85 CA         -1.8499  -23.4434  -51.6703 C.3       15 UNK         0.1400 
     86 CB         -1.4097  -21.9721  -51.6843 C.3       15 UNK        -0.1800 
     87 C          -3.3588  -23.6067  -51.9561 C.2       15 UNK         0.5000 
     88 O          -4.0642  -22.6157  -52.1669 O.2       15 UNK        -0.5000 
     89 N          -3.8032  -24.8689  -51.9959 N.am      16 UNK        -0.5000 
     90 CA         -5.1473  -25.3393  -52.3315 C.3       16 UNK         0.1400 
     91 CB         -5.5297  -24.9395  -53.7736 C.3       16 UNK        -0.1800 
     92 C          -6.2117  -24.9465  -51.2887 C.2       16 UNK         0.5000 
     93 O          -7.2550  -24.4034  -51.6499 O.2       16 UNK        -0.5000 
     94 N          -5.9475  -25.2582  -50.0109 N.am      17 UNK        -0.5000 
     95 CA         -6.8954  -25.1986  -48.8886 C.3       17 UNK         0.1400 
     96 CB         -7.9647  -26.3013  -49.0394 C.3       17 UNK        -0.1800 
     97 C          -7.5061  -23.8000  -48.6619 C.2       17 UNK         0.5000 
     98 O          -8.7120  -23.6779  -48.4409 O.2       17 UNK        -0.5000 
     99 N          -6.6522  -22.7703  -48.7387 N.am      18 UNK        -0.5000 
    100 CA        -6.9643  -21.3464  -48.5885 C.3       18 UNK         0.1400 
    101 CB        -7.5691  -21.0340  -47.2037 C.3       18 UNK        -0.1800 
    102 C         -7.7715  -20.7450  -49.7572 C.2       18 UNK         0.5000 
    103 O         -8.2601  -19.6210  -49.6314 O.2       18 UNK        -0.5000 
    104 N         -7.8418  -21.4483  -50.8998 N.am      19 UNK        -0.5000 
    105 CA        -8.3079  -20.8851  -52.1728 C.3       19 UNK         0.1400 
    106 CB        -8.6475  -22.0168  -53.1536 C.3       19 UNK        -0.1800 
    107 C         -7.2742  -19.9249  -52.7985 C.2       19 UNK         0.5000 
    108 O         -7.6472  -19.1166  -53.6490 O.2       19 UNK        -0.5000 
    109 N         -6.0137  -20.0265  -52.3471 N.am      20 UNK        -0.5000 
    110 CA        -4.8501  -19.2248  -52.7171 C.3       20 UNK         0.1400 
    111 CB        -5.0528  -17.7345  -52.3728 C.3       20 UNK        -0.1800 
    112 C         -4.4368  -19.4672  -54.1771 C.2       20 UNK         0.5000 
    113 O         -4.6591  -18.6229  -55.0483 O.2       20 UNK        -0.5000 
    114 N         -3.8262  -20.6373  -54.4017 N.am      21 UNK        -0.5000 
    115 CA        -3.1016  -20.9943  -55.6244 C.3       21 UNK         0.1400 
    116 CB        -2.7294  -22.4861  -55.5438 C.3       21 UNK        -0.1800 
    117 C         -1.8484  -20.1124  -55.8558 C.2       21 UNK         0.5000 
    118 O         -1.5666  -19.2153  -55.0632 O.2       21 UNK        -0.5000 
    119 N         -1.1212  -20.3856  -56.9460 N.am      22 UNK        -0.5000 
    120 CA         0.1257  -19.7247  -57.3888 C.3       22 UNK         0.1400 
    121 C          0.0149  -18.2293  -57.8233 C.2       22 UNK         0.5000 
    122 N         -1.1622  -17.6169  -57.8235 N.am      22 UNK        -0.7600 
    123 O          1.0079  -17.6273  -58.2240 O.2       22 UNK        -0.5000 
    124 C124        1.3689  -20.0430  -56.4971 C.3       23 UNK        -0.0398 
    125 S125        1.6232  -19.0047  -55.0077 S.3       23 UNK        -0.2404 
    126 C126        1.2543  -20.1977  -53.6859 C.3       23 UNK        -0.0205 
    127 H127        0.7667  -10.7243  -51.7780 H         1 UNK         0.0600 
    128 H128       -0.8500  -11.3315  -52.1512 H         1 UNK         0.0600 
    129 H129        0.5714  -12.1327  -52.8254 H         1 UNK         0.0600 
    130 H130        1.0348  -14.0319  -51.7907 H         1 UNK         0.3000 
    131 H131        1.2796  -15.6534  -50.3525 H         1 UNK         0.0600 
    132 H132       -0.4159  -16.0122  -48.4976 H         1 UNK         0.0800 
    133 H133       -1.0673  -14.4378  -48.8138 H         1 UNK         0.0800 
    134 H134       -1.6754  -17.9088  -49.1623 H         1 UNK         0.0800 
    135 H135       -2.3366  -18.2539  -50.7360 H         1 UNK         0.0800 
    136 H136       -0.8882  -18.8843  -52.6208 H         1 UNK         0.1150 
    137 H137        3.1401  -20.0379  -51.7236 H         1 UNK         0.1150 
    138 H138        0.7841  -18.0105  -48.7730 H         1 UNK         0.1150 
    139 H139        4.1966  -18.9387  -49.7510 H         1 UNK         0.0800 
    140 H140        3.2284  -18.2441  -48.4796 H         1 UNK         0.0800 
    141 H141        1.6256  -19.4398  -47.0904 H         1 UNK         0.0800 
    142 H142        2.7772  -20.2317  -46.0639 H         1 UNK         0.0800 
    143 H143        1.7100  -22.4847  -46.9836 H         1 UNK         0.0600 
    144 H144        1.0842  -20.9300  -44.7070 H         1 UNK         0.3000 
    145 H145       -1.1520  -23.2438  -43.1629 H         1 UNK         0.0600 
    146 H146        0.4874  -22.9424  -41.3232 H         1 UNK         0.0600 
    147 H147        1.1283  -24.0237  -42.5519 H         1 UNK         0.0600 
    148 H148        1.6989  -22.3628  -42.4626 H         1 UNK         0.0600 
    149 H149       -0.1720  -20.6844  -42.3512 H         1 UNK         0.3000 
    150 H150       -2.6745  -18.7287  -44.0429 H         1 UNK         0.0600 
    151 H151       -3.7052  -19.3725  -41.8977 H         1 UNK         0.0600 
    152 H152       -2.8647  -17.8394  -41.7114 H         1 UNK         0.0600 
    153 H153       -2.1492  -19.3231  -41.0844 H         1 UNK         0.0600 
    154 H154       -0.4638  -17.9337  -42.4428 H         1 UNK         0.3000 
    155 H155        2.0022  -17.9182  -45.0345 H         1 UNK         0.0600 
    156 H156        0.6667  -15.5930  -43.5617 H         1 UNK         0.0600 
    157 H157        2.2483  -15.5760  -44.3480 H         1 UNK         0.0600 
    158 H158        0.7879  -15.7696  -45.3025 H         1 UNK         0.0600 
    159 H159        1.9284  -17.2239  -42.2173 H         1 UNK         0.3000 
    160 H160        3.0169  -20.4132  -41.0497 H         1 UNK         0.0600 
    161 H161        4.5043  -17.7373  -41.2549 H         1 UNK         0.0600 
    162 H162        5.1087  -19.2878  -41.8270 H         1 UNK         0.0600 
    163 H163        4.8499  -19.0327  -40.1087 H         1 UNK         0.0600 
    164 H164        2.5392  -17.8968  -39.7554 H         1 UNK         0.3000 
    165 H165       -0.9493  -18.3038  -39.2147 H         1 UNK         0.0600 
    166 H166       -0.2936  -18.0977  -36.8384 H         1 UNK         0.0600 
    167 H167        0.0817  -19.7105  -37.4227 H         1 UNK         0.0600 
    168 H168        1.3722  -18.5305  -37.2261 H         1 UNK         0.0600 
    169 H169        0.7975  -16.3192  -38.2518 H         1 UNK         0.3000 
    170 H170        0.3132  -14.1067  -39.2115 H         1 UNK         0.0600 
    171 H171        2.7378  -14.9270  -40.9199 H         1 UNK         0.0600 
    172 H172        2.6134  -13.4480  -39.9696 H         1 UNK         0.0600 
    173 H173        2.6528  -15.0042  -39.1640 H         1 UNK         0.0600 
    174 H174        1.0111  -13.5536  -41.9544 H         1 UNK         0.3000 
    175 H175       -1.7100  -13.2408  -43.5236 H         1 UNK         0.0600 
    176 H176       -2.2376  -10.7884  -43.5110 H         1 UNK         0.0600 
    177 H177       -1.6141  -10.6615  -41.8665 H         1 UNK         0.0600 
    178 H178       -3.0455  -11.6302  -42.2004 H         1 UNK         0.0600 
    179 H179        0.6425  -11.5146  -42.8507 H         1 UNK         0.3000 
    180 H180        1.9447  -10.9581  -45.0913 H         1 UNK         0.0600 
    181 H181        3.0412  -13.4132  -43.5844 H         1 UNK         0.0600 
    182 H182        2.7171  -11.8349  -42.8751 H         1 UNK         0.0600 
    183 H183        4.0009  -12.0136  -44.0450 H         1 UNK         0.0600 
    184 H184        1.9731  -13.5009  -46.4662 H         1 UNK         0.3000 
    185 H185        4.4421  -12.3677  -48.8226 H         1 UNK         0.0600 
    186 H186        5.7242  -13.7883  -47.2738 H         1 UNK         0.0600 
    187 H187        4.3721  -14.8930  -47.0943 H         1 UNK         0.0600 
    188 H188        5.1825  -14.7331  -48.6523 H         1 UNK         0.0600 
    189 H189        2.6938  -13.0889  -49.9033 H         1 UNK         0.3000 
    190 H190       -0.9228  -20.1028  -46.4303 H         1 UNK         0.3000 
    191 H191       -2.1945  -20.3300  -48.9347 H         1 UNK         0.0600 
    192 H192       -2.6456  -18.5576  -47.1663 H         1 UNK         0.0600 
    193 H193       -4.1015  -19.2787  -47.8362 H         1 UNK         0.0600 
    194 H194       -3.5385  -19.7567  -46.2437 H         1 UNK         0.0600 
    195 H195       -2.6184  -22.2823  -45.9544 H         1 UNK         0.3000 
    196 H196       -4.7250  -23.9278  -46.9001 H         1 UNK         0.0600 
    197 H197       -4.1088  -25.4144  -45.0271 H         1 UNK         0.0600 
    198 H198       -4.1004  -23.7366  -44.5039 H         1 UNK         0.0600 
    199 H199       -2.5814  -24.5731  -44.8149 H         1 UNK         0.0600 
    200 H200       -1.1657  -24.2931  -47.1626 H         1 UNK         0.3000 
    201 H201       -1.2104  -26.7950  -48.5703 H         1 UNK         0.0600 
    202 H202        0.8147  -25.9350  -47.4141 H         1 UNK         0.0600 
    203 H203        0.9187  -24.5904  -48.5464 H         1 UNK         0.0600 
    204 H204        1.1446  -26.2383  -49.1138 H         1 UNK         0.0600 
    205 H205       -1.2452  -23.3901  -49.6475 H         1 UNK         0.3000 
    206 H206       -1.3150  -23.9517  -52.4749 H         1 UNK         0.0600 
    207 H207       -0.3412  -21.8817  -51.4896 H         1 UNK         0.0600 
    208 H208       -1.6069  -21.5078  -52.6499 H         1 UNK         0.0600 
    209 H209       -1.9359  -21.3893  -50.9303 H         1 UNK         0.0600 
    210 H210       -3.1246  -25.5923  -51.7759 H         1 UNK         0.3000 
    211 H211       -5.0967  -26.4286  -52.3059 H         1 UNK         0.0600 
    212 H212       -5.6394  -23.8606  -53.8846 H         1 UNK         0.0600 
    213 H213       -6.4781  -25.3926  -54.0646 H         1 UNK         0.0600 
    214 H214       -4.7785  -25.2758  -54.4880 H         1 UNK         0.0600 
    215 H215       -5.0359  -25.6352  -49.7748 H         1 UNK         0.3000 
    216 H216       -6.3285  -25.4269  -47.9863 H         1 UNK         0.0600 
    217 H217       -8.6041  -26.3512  -48.1574 H         1 UNK         0.0600 
    218 H218       -7.5045  -27.2821  -49.1592 H         1 UNK         0.0600 
    219 H219       -8.6090  -26.1254  -49.9016 H         1 UNK         0.0600 
    220 H220       -5.6783  -22.9610  -48.9572 H         1 UNK         0.3000 
    221 H221       -6.0023  -20.8358  -48.6278 H         1 UNK         0.0600 
    222 H222       -8.5827  -21.4219  -47.1029 H         1 UNK         0.0600 
    223 H223       -6.9626  -21.4599  -46.4042 H         1 UNK         0.0600 
    224 H224       -7.6168  -19.9580  -47.0329 H         1 UNK         0.0600 
    225 H225       -7.4682  -22.3907  -50.9319 H         1 UNK         0.3000 
    226 H226       -9.2213  -20.3166  -51.9860 H         1 UNK         0.0600 
    227 H227       -9.3441  -22.7300  -52.7125 H         1 UNK         0.0600 
    228 H228       -9.1140  -21.6208  -54.0562 H         1 UNK         0.0600 
    229 H229       -7.7552  -22.5616  -53.4627 H         1 UNK         0.0600 
    230 H230       -5.8175  -20.7868  -51.7106 H         1 UNK         0.3000 
    231 H231       -4.0280  -19.5831  -52.0949 H         1 UNK         0.0600 
    232 H232       -5.8519  -17.2800  -52.9587 H         1 UNK         0.0600 
    233 H233       -4.1426  -17.1670  -52.5710 H         1 UNK         0.0600 
    234 H234       -5.2936  -17.6037  -51.3178 H         1 UNK         0.0600 
    235 H235       -3.7577  -21.2917  -53.6288 H         1 UNK         0.3000 
    236 H236       -3.7757  -20.8460  -56.4701 H         1 UNK         0.0600 
    237 H237       -3.6043  -23.0996  -55.3292 H         1 UNK         0.0600 
    238 H238       -2.3134  -22.8458  -56.4852 H         1 UNK         0.0600 
    239 H239       -1.9892  -22.6756  -54.7663 H         1 UNK         0.0600 
    240 H240       -1.4460  -21.1196  -57.5589 H         1 UNK         0.3000 
    241 H241        0.3260  -20.2268  -58.3361 H         1 UNK         0.0600 
    242 H242       -1.9792  -18.0852  -57.4656 H         1 UNK         0.3800 
    243 H243       -1.2233  -16.6569  -58.1241 H         1 UNK         0.3800 
    244 H244        1.3553  -21.0951  -56.2105 H         1 UNK         0.0800 
    245 H245        2.2692  -19.9310  -57.1032 H         1 UNK         0.0800 
    246 H246        0.3236  -20.7180  -53.9098 H         1 UNK         0.0800 
    247 H247        2.0315  -20.9631  -53.6685 H         1 UNK         0.0800 
@<TRIPOS>BOND
     1    1    2 1    
     2    1  127 1    
     3    1  128 1    
     4    1  129 1    
     5    2    3 2    
     6    2    4 am   BACKBONE|DICT|INTERRES
     7    4    5 1    
     8    4  130 1    
     9    5    6 1    
    10    5   65 1    
    11    5  131 1    
    12    6    7 1    
    13    6  132 1    
    14    6  133 1    
    15    7    8 1    
    16    8    9 1    
    17    8  134 1    
    18    8  135 1    
    19    9   10 ar   
    20    9   14 ar   
    21   10   11 ar   
    22   10  136 1    
    23   11   12 ar   
    24   11  126 1    
    25   12   13 ar   
    26   12  137 1    
    27   13   14 ar   
    28   13   15 1    
    29   14  138 1    
    30   15   16 1    
    31   15  139 1    
    32   15  140 1    
    33   16   17 1    
    34   17   18 1    
    35   17  141 1    
    36   17  142 1    
    37   18   19 1    
    38   18   67 1    
    39   18  143 1    
    40   19   20 am   BACKBONE|DICT|INTERRES
    41   19  144 1    
    42   20   21 2    
    43   20   22 1    
    44   22   23 1    
    45   22   24 1    
    46   22  145 1    
    47   23  146 1    
    48   23  147 1    
    49   23  148 1    
    50   24   25 am   BACKBONE|DICT|INTERRES
    51   24  149 1    
    52   25   26 2    
    53   25   27 1    
    54   27   28 1    
    55   27   29 1    
    56   27  150 1    
    57   28  151 1    
    58   28  152 1    
    59   28  153 1    
    60   29   30 am   BACKBONE|DICT|INTERRES
    61   29  154 1    
    62   30   31 2    
    63   30   32 1    
    64   32   33 1    
    65   32   34 1    
    66   32  155 1    
    67   33  156 1    
    68   33  157 1    
    69   33  158 1    
    70   34   35 am   BACKBONE|DICT|INTERRES
    71   34  159 1    
    72   35   36 2    
    73   35   37 1    
    74   37   38 1    
    75   37   39 1    
    76   37  160 1    
    77   38  161 1    
    78   38  162 1    
    79   38  163 1    
    80   39   40 am   BACKBONE|DICT|INTERRES
    81   39  164 1    
    82   40   41 2    
    83   40   42 1    
    84   42   43 1    
    85   42   44 1    
    86   42  165 1    
    87   43  166 1    
    88   43  167 1    
    89   43  168 1    
    90   44   45 am   BACKBONE|DICT|INTERRES
    91   44  169 1    
    92   45   46 2    
    93   45   47 1    
    94   47   48 1    
    95   47   49 1    
    96   47  170 1    
    97   48  171 1    
    98   48  172 1    
    99   48  173 1    
   100   49   50 am   BACKBONE|DICT|INTERRES
   101   49  174 1    
   102   50   51 2    
   103   50   52 1    
   104   52   53 1    
   105   52   54 1    
   106   52  175 1    
   107   53  176 1    
   108   53  177 1    
   109   53  178 1    
   110   54   55 am   BACKBONE|DICT|INTERRES
   111   54  179 1    
   112   55   56 2    
   113   55   57 1    
   114   57   58 1    
   115   57   59 1    
   116   57  180 1    
   117   58  181 1    
   118   58  182 1    
   119   58  183 1    
   120   59   60 am   BACKBONE|DICT|INTERRES
   121   59  184 1    
   122   60   61 2    
   123   60   62 1    
   124   62   63 1    
   125   62   64 1    
   126   62  185 1    
   127   63  186 1    
   128   63  187 1    
   129   63  188 1    
   130   64   65 am   BACKBONE|DICT|INTERRES
   131   64  189 1    
   132   65   66 2    
   133   67   68 2    
   134   67   69 am   BACKBONE|DICT|INTERRES
   135   69   70 1    
   136   69  190 1    
   137   70   71 1    
   138   70   72 1    
   139   70  191 1    
   140   71  192 1    
   141   71  193 1    
   142   71  194 1    
   143   72   73 2    
   144   72   74 am   BACKBONE|DICT|INTERRES
   145   74   75 1    
   146   74  195 1    
   147   75   76 1    
   148   75   77 1    
   149   75  196 1    
   150   76  197 1    
   151   76  198 1    
   152   76  199 1    
   153   77   78 2    
   154   77   79 am   BACKBONE|DICT|INTERRES
   155   79   80 1    
   156   79  200 1    
   157   80   81 1    
   158   80   82 1    
   159   80  201 1    
   160   81  202 1    
   161   81  203 1    
   162   81  204 1    
   163   82   83 2    
   164   82   84 am   BACKBONE|DICT|INTERRES
   165   84   85 1    
   166   84  205 1    
   167   85   86 1    
   168   85   87 1    
   169   85  206 1    
   170   86  207 1    
   171   86  208 1    
   172   86  209 1    
   173   87   88 2    
   174   87   89 am   BACKBONE|DICT|INTERRES
   175   89   90 1    
   176   89  210 1    
   177   90   91 1    
   178   90   92 1    
   179   90  211 1    
   180   91  212 1    
   181   91  213 1    
   182   91  214 1    
   183   92   93 2    
   184   92   94 am   BACKBONE|DICT|INTERRES
   185   94   95 1    
   186   94  215 1    
   187   95   96 1    
   188   95   97 1    
   189   95  216 1    
   190   96  217 1    
   191   96  218 1    
   192   96  219 1    
   193   97   98 2    
   194   97   99 am   BACKBONE|DICT|INTERRES
   195   99  100 1    
   196   99  220 1    
   197  100  101 1    
   198  100  102 1    
   199  100  221 1    
   200  101  222 1    
   201  101  223 1    
   202  101  224 1    
   203  102  103 2    
   204  102  104 am   BACKBONE|DICT|INTERRES
   205  104  105 1    
   206  104  225 1    
   207  105  106 1    
   208  105  107 1    
   209  105  226 1    
   210  106  227 1    
   211  106  228 1    
   212  106  229 1    
   213  107  108 2    
   214  107  109 am   BACKBONE|DICT|INTERRES
   215  109  110 1    
   216  109  230 1    
   217  110  111 1    
   218  110  112 1    
   219  110  231 1    
   220  111  232 1    
   221  111  233 1    
   222  111  234 1    
   223  112  113 2    
   224  112  114 am   BACKBONE|DICT|INTERRES
   225  114  115 1    
   226  114  235 1    
   227  115  116 1    
   228  115  117 1    
   229  115  236 1    
   230  116  237 1    
   231  116  238 1    
   232  116  239 1    
   233  117  118 2    
   234  117  119 am   BACKBONE|DICT|INTERRES
   235  119  120 1    
   236  119  240 1    
   237  120  121 1    
   238  120  124 1    
   239  120  241 1    
   240  121  122 am   BACKBONE|DICT|INTERRES
   241  121  123 2    
   242  122  242 1    
   243  122  243 1    
   244  124  125 1    
   245  124  244 1    
   246  124  245 1    
   247  125  126 1    
   248  126  246 1    
   249  126  247 1    
@<TRIPOS>SUBSTRUCTURE
     1 UNK         1 GROUP             0       ****    0 ROOT    
