@<TRIPOS>MOLECULE
3R540
247   249    1
SMALL
USER_CHARGES


@<TRIPOS>ATOM
      1 CA          3.8449  -14.3278  -43.7096 C.3       0 UNK        -0.1800 
      2 C           3.4983  -13.5750  -44.9863 C.2       0 UNK         0.5000 
      3 O           4.2062  -12.6348  -45.3485 O.2       0 UNK        -0.5000 
      4 N           2.4244  -14.0036  -45.6642 N.am      1 UNK        -0.5000 
      5 CA          1.9035  -13.4655  -46.9297 C.3       1 UNK         0.1400 
      6 C6          2.9449  -13.4333  -48.0890 C.3       23 UNK        -0.0398 
      7 S7          3.7726  -15.0430  -48.3427 S.3       23 UNK        -0.2404 
      8 C8          2.9090  -15.6825  -49.8193 C.3       23 UNK        -0.0205 
      9 C9          3.1169  -17.1701  -50.1221 C.ar      23 UNK        -0.0193 
     10 C10         2.5113  -17.6963  -51.2678 C.ar      23 UNK        -0.1150 
     11 C11         2.6375  -19.0499  -51.5908 C.ar      23 UNK        -0.0193 
     12 C12         3.3710  -19.8915  -50.7513 C.ar      23 UNK        -0.1150 
     13 C13         3.9867  -19.3888  -49.6026 C.ar      23 UNK        -0.0193 
     14 C14         3.8639  -18.0283  -49.3004 C.ar      23 UNK        -0.1150 
     15 C15         4.7926  -20.3165  -48.7004 C.3       23 UNK        -0.0205 
     16 S16         4.1497  -20.3309  -46.9977 S.3       23 UNK        -0.2404 
     17 C17         4.7735  -21.9149  -46.3525 C.3       23 UNK        -0.0398 
     18 CA          3.7262  -23.0569  -46.2910 C.3       11 UNK         0.1400 
     19 N           2.5133  -22.7170  -45.5344 N.am      11 UNK        -0.5000 
     20 C           1.8048  -23.6263  -44.8477 C.2       10 UNK         0.5000 
     21 O           2.1615  -24.7966  -44.7118 O.2       10 UNK        -0.5000 
     22 CA          0.4812  -23.1803  -44.1976 C.3       10 UNK         0.1400 
     23 CB          0.7246  -22.6374  -42.7816 C.3       10 UNK        -0.1800 
     24 N          -0.2705  -22.1988  -44.9784 N.am      10 UNK        -0.5000 
     25 C          -0.8180  -22.4354  -46.1785 C.2       9 UNK         0.5000 
     26 O          -0.7309  -23.5054  -46.7768 O.2       9 UNK        -0.5000 
     27 CA         -1.5654  -21.2693  -46.8466 C.3       9 UNK         0.1400 
     28 CB         -2.9981  -21.1653  -46.3081 C.3       9 UNK        -0.1800 
     29 N          -0.8788  -19.9911  -46.6816 N.am      9 UNK        -0.5000 
     30 C           0.3498  -19.7336  -47.1497 C.2       8 UNK         0.5000 
     31 O           1.0012  -20.5390  -47.8113 O.2       8 UNK        -0.5000 
     32 CA          0.9667  -18.3774  -46.7657 C.3       8 UNK         0.1400 
     33 CB          0.4306  -17.2560  -47.6615 C.3       8 UNK        -0.1800 
     34 N           0.7488  -18.0396  -45.3572 N.am      8 UNK        -0.5000 
     35 C           1.2374  -18.7471  -44.3266 C.2       7 UNK         0.5000 
     36 O           1.9784  -19.7216  -44.4486 O.2       7 UNK        -0.5000 
     37 CA          0.7713  -18.3306  -42.9212 C.3       7 UNK         0.1400 
     38 CB          1.6053  -17.1600  -42.3824 C.3       7 UNK        -0.1800 
     39 N          -0.6467  -17.9747  -42.9028 N.am      7 UNK        -0.5000 
     40 C          -1.6444  -18.8594  -43.0422 C.2       6 UNK         0.5000 
     41 O          -1.4708  -20.0724  -43.1561 O.2       6 UNK        -0.5000 
     42 CA         -3.0717  -18.2845  -43.1112 C.3       6 UNK         0.1400 
     43 CB         -3.6383  -18.0685  -41.7003 C.3       6 UNK        -0.1800 
     44 N          -3.1370  -17.0272  -43.8595 N.am      6 UNK        -0.5000 
     45 C          -2.8699  -16.9150  -45.1685 C.2       5 UNK         0.5000 
     46 O          -2.5827  -17.8720  -45.8836 O.2       5 UNK        -0.5000 
     47 CA         -2.8744  -15.4978  -45.7694 C.3       5 UNK         0.1400 
     48 CB         -4.2617  -15.1490  -46.3264 C.3       5 UNK        -0.1800 
     49 N          -2.4611  -14.4706  -44.8128 N.am      5 UNK        -0.5000 
     50 C          -1.2397  -14.3670  -44.2735 C.2       4 UNK         0.5000 
     51 O          -0.3064  -15.1274  -44.5476 O.2       4 UNK        -0.5000 
     52 CA         -1.0545  -13.2153  -43.2673 C.3       4 UNK         0.1400 
     53 CB          0.3377  -13.1956  -42.6164 C.3       4 UNK        -0.1800 
     54 N          -1.3034  -11.9263  -43.9118 N.am      4 UNK        -0.5000 
     55 C          -2.5052  -11.3426  -44.0240 C.2       3 UNK         0.5000 
     56 O          -3.5396  -11.8367  -43.5732 O.2       3 UNK        -0.5000 
     57 CA         -2.5777  -10.0051  -44.7878 C.3       3 UNK         0.1400 
     58 CB         -2.4527   -8.8232  -43.8148 C.3       3 UNK        -0.1800 
     59 N          -1.5554   -9.8788  -45.8273 N.am      3 UNK        -0.5000 
     60 C          -1.5202  -10.6030  -46.9534 C.2       2 UNK         0.5000 
     61 O          -2.3888  -11.4177  -47.2689 O.2       2 UNK        -0.5000 
     62 CA         -0.2946  -10.4251  -47.8730 C.3       2 UNK         0.1400 
     63 CB          0.5183   -9.1360  -47.6127 C.3       2 UNK        -0.1800 
     64 N           0.5677  -11.6108  -47.8216 N.am      2 UNK        -0.5000 
     65 C           1.1752  -12.1155  -46.7359 C.2       1 UNK         0.5000 
     66 O           1.1222  -11.5827  -45.6235 O.2       1 UNK        -0.5000 
     67 C           3.3928  -23.6383  -47.6816 C.2       11 UNK         0.5000 
     68 O           4.1349  -24.4981  -48.1590 O.2       11 UNK        -0.5000 
     69 N           2.2954  -23.1830  -48.3049 N.am      12 UNK        -0.5000 
     70 CA          1.8236  -23.6683  -49.6028 C.3       12 UNK         0.1400 
     71 CB          0.7515  -22.7157  -50.1481 C.3       12 UNK        -0.1800 
     72 C           1.2869  -25.1103  -49.5480 C.2       12 UNK         0.5000 
     73 O           1.6635  -25.9296  -50.3874 O.2       12 UNK        -0.5000 
     74 N           0.4244  -25.3932  -48.5656 N.am      13 UNK        -0.5000 
     75 CA         -0.2014  -26.6901  -48.3342 C.3       13 UNK         0.1400 
     76 CB         -1.3199  -26.9460  -49.3688 C.3       13 UNK        -0.1800 
     77 C          -0.6849  -26.7235  -46.8773 C.2       13 UNK         0.5000 
     78 O           0.1178  -27.0033  -45.9874 O.2       13 UNK        -0.5000 
     79 N          -1.9679  -26.4064  -46.6617 N.am      14 UNK        -0.5000 
     80 CA         -2.5999  -26.2085  -45.3567 C.3       14 UNK         0.1400 
     81 CB         -2.6240  -27.5071  -44.5240 C.3       14 UNK        -0.1800 
     82 C          -4.0283  -25.6768  -45.5354 C.2       14 UNK         0.5000 
     83 O          -4.4262  -24.7414  -44.8407 O.2       14 UNK        -0.5000 
     84 N          -4.7780  -26.2883  -46.4637 N.am      15 UNK        -0.5000 
     85 CA         -6.2137  -26.0882  -46.6826 C.3       15 UNK         0.1400 
     86 CB         -6.7687  -27.3314  -47.4023 C.3       15 UNK        -0.1800 
     87 C          -6.5632  -24.7738  -47.4158 C.2       15 UNK         0.5000 
     88 O          -7.1983  -24.8074  -48.4711 O.2       15 UNK        -0.5000 
     89 N          -6.1456  -23.6392  -46.8358 N.am      16 UNK        -0.5000 
     90 CA         -6.4449  -22.2602  -47.2506 C.3       16 UNK         0.1400 
     91 CB         -7.9418  -21.9488  -47.0431 C.3       16 UNK        -0.1800 
     92 C          -5.9636  -21.9108  -48.6766 C.2       16 UNK         0.5000 
     93 O          -6.5727  -21.0731  -49.3426 O.2       16 UNK        -0.5000 
     94 N          -4.8679  -22.5479  -49.1170 N.am      17 UNK        -0.5000 
     95 CA         -4.3270  -22.4888  -50.4804 C.3       17 UNK         0.1400 
     96 CB         -3.0863  -23.3889  -50.5639 C.3       17 UNK        -0.1800 
     97 C          -4.0083  -21.0750  -51.0025 C.2       17 UNK         0.5000 
     98 O          -4.1184  -20.8369  -52.2050 O.2       17 UNK        -0.5000 
     99 N          -3.6743  -20.1473  -50.0963 N.am      18 UNK        -0.5000 
    100 CA        -3.4339  -18.7356  -50.3990 C.3       18 UNK         0.1400 
    101 CB        -2.9241  -18.0340  -49.1358 C.3       18 UNK        -0.1800 
    102 C         -4.6696  -18.0021  -50.9582 C.2       18 UNK         0.5000 
    103 O         -4.5069  -17.0801  -51.7572 O.2       18 UNK        -0.5000 
    104 N         -5.8804  -18.4449  -50.5826 N.am      19 UNK        -0.5000 
    105 CA        -7.1468  -17.9213  -51.1064 C.3       19 UNK         0.1400 
    106 CB        -8.3019  -18.3681  -50.1975 C.3       19 UNK        -0.1800 
    107 C         -7.4074  -18.3446  -52.5664 C.2       19 UNK         0.5000 
    108 O         -8.1516  -17.6637  -53.2720 O.2       19 UNK        -0.5000 
    109 N         -6.7630  -19.4362  -52.9996 N.am      20 UNK        -0.5000 
    110 CA        -6.7379  -19.9263  -54.3775 C.3       20 UNK         0.1400 
    111 CB        -6.8530  -21.4607  -54.3493 C.3       20 UNK        -0.1800 
    112 C         -5.4608  -19.4729  -55.1178 C.2       20 UNK         0.5000 
    113 O         -5.1500  -20.0217  -56.1768 O.2       20 UNK        -0.5000 
    114 N         -4.7185  -18.5143  -54.5373 N.am      21 UNK        -0.5000 
    115 CA        -3.4454  -17.9566  -55.0107 C.3       21 UNK         0.1400 
    116 CB        -3.6683  -17.1138  -56.2835 C.3       21 UNK        -0.1800 
    117 C         -2.3372  -19.0190  -55.1811 C.2       21 UNK         0.5000 
    118 O         -1.4796  -18.8796  -56.0549 O.2       21 UNK        -0.5000 
    119 N         -2.3953  -20.0709  -54.3532 N.am      22 UNK        -0.5000 
    120 CA        -1.5461  -21.2713  -54.3921 C.3       22 UNK         0.1400 
    121 C         -1.7895  -22.1904  -55.6296 C.2       22 UNK         0.5000 
    122 N         -2.8657  -22.0201  -56.3907 N.am      22 UNK        -0.7600 
    123 O         -1.0072  -23.1002  -55.8914 O.2       22 UNK        -0.5000 
    124 C124       -0.0402  -20.9740  -54.1499 C.3       23 UNK        -0.0398 
    125 S125        0.2690  -20.0767  -52.5912 S.3       23 UNK        -0.2404 
    126 C126        2.0023  -19.6005  -52.8575 C.3       23 UNK        -0.0205 
    127 H127        3.3608  -13.8664  -42.8493 H         1 UNK         0.0600 
    128 H128        4.9220  -14.3156  -43.5420 H         1 UNK         0.0600 
    129 H129        3.5321  -15.3694  -43.7714 H         1 UNK         0.0600 
    130 H130        1.8487  -14.7286  -45.2559 H         1 UNK         0.3000 
    131 H131        1.1138  -14.1554  -47.2234 H         1 UNK         0.0600 
    132 H132        3.7141  -12.6846  -47.8960 H         1 UNK         0.0800 
    133 H133        2.4774  -13.1349  -49.0280 H         1 UNK         0.0800 
    134 H134        1.8392  -15.5045  -49.7041 H         1 UNK         0.0800 
    135 H135        3.2298  -15.0982  -50.6829 H         1 UNK         0.0800 
    136 H136        1.9343  -17.0491  -51.9138 H         1 UNK         0.1150 
    137 H137        3.4639  -20.9401  -50.9961 H         1 UNK         0.1150 
    138 H138        4.3441  -17.6594  -48.4067 H         1 UNK         0.1150 
    139 H139        4.7811  -21.3319  -49.0988 H         1 UNK         0.0800 
    140 H140        5.8353  -19.9969  -48.6898 H         1 UNK         0.0800 
    141 H141        5.1400  -21.7225  -45.3435 H         1 UNK         0.0800 
    142 H142        5.6512  -22.2250  -46.9224 H         1 UNK         0.0800 
    143 H143        4.2308  -23.8657  -45.7576 H         1 UNK         0.0600 
    144 H144        2.1962  -21.7552  -45.5787 H         1 UNK         0.3000 
    145 H145       -0.1453  -24.0698  -44.1073 H         1 UNK         0.0600 
    146 H146       -0.2157  -22.4126  -42.2781 H         1 UNK         0.0600 
    147 H147        1.2537  -23.3683  -42.1688 H         1 UNK         0.0600 
    148 H148        1.3236  -21.7272  -42.7957 H         1 UNK         0.0600 
    149 H149       -0.4239  -21.2960  -44.5437 H         1 UNK         0.3000 
    150 H150       -1.6197  -21.4795  -47.9163 H         1 UNK         0.0600 
    151 H151       -3.5177  -22.1180  -46.4102 H         1 UNK         0.0600 
    152 H152       -3.5710  -20.4109  -46.8471 H         1 UNK         0.0600 
    153 H153       -3.0122  -20.9004  -45.2510 H         1 UNK         0.0600 
    154 H154       -1.3869  -19.2547  -46.1975 H         1 UNK         0.3000 
    155 H155        2.0419  -18.4403  -46.9310 H         1 UNK         0.0600 
    156 H156       -0.6160  -17.0367  -47.4618 H         1 UNK         0.0600 
    157 H157        0.5171  -17.5222  -48.7157 H         1 UNK         0.0600 
    158 H158        1.0020  -16.3449  -47.5077 H         1 UNK         0.0600 
    159 H159        0.1544  -17.2447  -45.1606 H         1 UNK         0.3000 
    160 H160        0.9189  -19.1833  -42.2548 H         1 UNK         0.0600 
    161 H161        1.4863  -16.2669  -42.9937 H         1 UNK         0.0600 
    162 H162        2.6666  -17.4114  -42.3696 H         1 UNK         0.0600 
    163 H163        1.3184  -16.9077  -41.3615 H         1 UNK         0.0600 
    164 H164       -0.8690  -16.9914  -42.8618 H         1 UNK         0.3000 
    165 H165       -3.6999  -19.0161  -43.6238 H         1 UNK         0.0600 
    166 H166       -4.6755  -17.7351  -41.7388 H         1 UNK         0.0600 
    167 H167       -3.6174  -18.9957  -41.1259 H         1 UNK         0.0600 
    168 H168       -3.0663  -17.3247  -41.1442 H         1 UNK         0.0600 
    169 H169       -3.3724  -16.1943  -43.3407 H         1 UNK         0.3000 
    170 H170       -2.1647  -15.4857  -46.5983 H         1 UNK         0.0600 
    171 H171       -4.5829  -15.8855  -47.0643 H         1 UNK         0.0600 
    172 H172       -5.0166  -15.1194  -45.5398 H         1 UNK         0.0600 
    173 H173       -4.2530  -14.1772  -46.8209 H         1 UNK         0.0600 
    174 H174       -3.1565  -13.7839  -44.5467 H         1 UNK         0.3000 
    175 H175       -1.7801  -13.3711  -42.4663 H         1 UNK         0.0600 
    176 H176        1.1184  -12.9990  -43.3479 H         1 UNK         0.0600 
    177 H177        0.4004  -12.4222  -41.8509 H         1 UNK         0.0600 
    178 H178        0.5628  -14.1471  -42.1341 H         1 UNK         0.0600 
    179 H179       -0.5086  -11.5097  -44.3869 H         1 UNK         0.3000 
    180 H180       -3.5580   -9.9511  -45.2661 H         1 UNK         0.0600 
    181 H181       -1.4821   -8.8122  -43.3171 H         1 UNK         0.0600 
    182 H182       -3.2186   -8.8729  -43.0396 H         1 UNK         0.0600 
    183 H183       -2.5767   -7.8714  -44.3317 H         1 UNK         0.0600 
    184 H184       -0.7848   -9.2556  -45.6337 H         1 UNK         0.3000 
    185 H185       -0.6837  -10.3651  -48.8905 H         1 UNK         0.0600 
    186 H186       -0.1156   -8.2517  -47.6895 H         1 UNK         0.0600 
    187 H187        0.9863   -9.1243  -46.6282 H         1 UNK         0.0600 
    188 H188        1.3118   -9.0248  -48.3517 H         1 UNK         0.0600 
    189 H189        0.6129  -12.1329  -48.6849 H         1 UNK         0.3000 
    190 H190        1.7709  -22.4186  -47.8904 H         1 UNK         0.3000 
    191 H191        2.6675  -23.6521  -50.2957 H         1 UNK         0.0600 
    192 H192        1.1542  -21.7129  -50.2821 H         1 UNK         0.0600 
    193 H193        0.3763  -23.0503  -51.1160 H         1 UNK         0.0600 
    194 H194       -0.0967  -22.6385  -49.4698 H         1 UNK         0.0600 
    195 H195        0.1685  -24.6646  -47.8999 H         1 UNK         0.3000 
    196 H196        0.5533  -27.4724  -48.4382 H         1 UNK         0.0600 
    197 H197       -1.8554  -27.8703  -49.1482 H         1 UNK         0.0600 
    198 H198       -0.9094  -27.0486  -50.3733 H         1 UNK         0.0600 
    199 H199       -2.0461  -26.1344  -49.3947 H         1 UNK         0.0600 
    200 H200       -2.5223  -26.1324  -47.4597 H         1 UNK         0.3000 
    201 H201       -2.0316  -25.4504  -44.8148 H         1 UNK         0.0600 
    202 H202       -1.6228  -27.8147  -44.2243 H         1 UNK         0.0600 
    203 H203       -3.0756  -28.3316  -45.0767 H         1 UNK         0.0600 
    204 H204       -3.1990  -27.3728  -43.6067 H         1 UNK         0.0600 
    205 H205       -4.3671  -27.0555  -46.9750 H         1 UNK         0.3000 
    206 H206       -6.7005  -26.0361  -45.7063 H         1 UNK         0.0600 
    207 H207       -6.5814  -28.2377  -46.8260 H         1 UNK         0.0600 
    208 H208       -7.8482  -27.2570  -47.5400 H         1 UNK         0.0600 
    209 H209       -6.3189  -27.4608  -48.3875 H         1 UNK         0.0600 
    210 H210       -5.5971  -23.7424  -45.9855 H         1 UNK         0.3000 
    211 H211       -5.8878  -21.6098  -46.5764 H         1 UNK         0.0600 
    212 H212       -8.5717  -22.5171  -47.7281 H         1 UNK         0.0600 
    213 H213       -8.1504  -20.8911  -47.2097 H         1 UNK         0.0600 
    214 H214       -8.2560  -22.1823  -46.0259 H         1 UNK         0.0600 
    215 H215       -4.4494  -23.2283  -48.5015 H         1 UNK         0.3000 
    216 H216       -5.0884  -22.9010  -51.1457 H         1 UNK         0.0600 
    217 H217       -2.6105  -23.3222  -51.5433 H         1 UNK         0.0600 
    218 H218       -3.3548  -24.4332  -50.4080 H         1 UNK         0.0600 
    219 H219       -2.3428  -23.1173  -49.8153 H         1 UNK         0.0600 
    220 H220       -3.6322  -20.4186  -49.1268 H         1 UNK         0.3000 
    221 H221       -2.6498  -18.6874  -51.1581 H         1 UNK         0.0600 
    222 H222       -3.6637  -18.0644  -48.3351 H         1 UNK         0.0600 
    223 H223       -2.0137  -18.5070  -48.7724 H         1 UNK         0.0600 
    224 H224       -2.6913  -16.9865  -49.3311 H         1 UNK         0.0600 
    225 H225       -5.9495  -19.2525  -49.9711 H         1 UNK         0.3000 
    226 H226       -7.1006  -16.8304  -51.0817 H         1 UNK         0.0600 
    227 H227       -8.1225  -18.0862  -49.1599 H         1 UNK         0.0600 
    228 H228       -9.2391  -17.9024  -50.5043 H         1 UNK         0.0600 
    229 H229       -8.4493  -19.4478  -50.2326 H         1 UNK         0.0600 
    230 H230       -6.1433  -19.9142  -52.3578 H         1 UNK         0.3000 
    231 H231       -7.5912  -19.5317  -54.9325 H         1 UNK         0.0600 
    232 H232       -7.7473  -21.7788  -53.8134 H         1 UNK         0.0600 
    233 H233       -5.9909  -21.9214  -53.8657 H         1 UNK         0.0600 
    234 H234       -6.9197  -21.8692  -55.3584 H         1 UNK         0.0600 
    235 H235       -5.0404  -18.1417  -53.6533 H         1 UNK         0.3000 
    236 H236       -3.0970  -17.2836  -54.2261 H         1 UNK         0.0600 
    237 H237       -2.7594  -16.5811  -56.5656 H         1 UNK         0.0600 
    238 H238       -3.9616  -17.7327  -57.1320 H         1 UNK         0.0600 
    239 H239       -4.4456  -16.3655  -56.1292 H         1 UNK         0.0600 
    240 H240       -3.1447  -20.1146  -53.6685 H         1 UNK         0.3000 
    241 H241       -1.8824  -21.8749  -53.5489 H         1 UNK         0.0600 
    242 H242       -3.5329  -21.2794  -56.2047 H         1 UNK         0.3800 
    243 H243       -3.0116  -22.6304  -57.1789 H         1 UNK         0.3800 
    244 H244        0.3768  -20.4049  -54.9816 H         1 UNK         0.0800 
    245 H245        0.5274  -21.9049  -54.1044 H         1 UNK         0.0800 
    246 H246        2.0538  -18.8573  -53.6546 H         1 UNK         0.0800 
    247 H247        2.5665  -20.4666  -53.2074 H         1 UNK         0.0800 
@<TRIPOS>BOND
     1    1    2 1    
     2    1  127 1    
     3    1  128 1    
     4    1  129 1    
     5    2    3 2    
     6    2    4 am   BACKBONE|DICT|INTERRES
     7    4    5 1    
     8    4  130 1    
     9    5    6 1    
    10    5   65 1    
    11    5  131 1    
    12    6    7 1    
    13    6  132 1    
    14    6  133 1    
    15    7    8 1    
    16    8    9 1    
    17    8  134 1    
    18    8  135 1    
    19    9   10 ar   
    20    9   14 ar   
    21   10   11 ar   
    22   10  136 1    
    23   11   12 ar   
    24   11  126 1    
    25   12   13 ar   
    26   12  137 1    
    27   13   14 ar   
    28   13   15 1    
    29   14  138 1    
    30   15   16 1    
    31   15  139 1    
    32   15  140 1    
    33   16   17 1    
    34   17   18 1    
    35   17  141 1    
    36   17  142 1    
    37   18   19 1    
    38   18   67 1    
    39   18  143 1    
    40   19   20 am   BACKBONE|DICT|INTERRES
    41   19  144 1    
    42   20   21 2    
    43   20   22 1    
    44   22   23 1    
    45   22   24 1    
    46   22  145 1    
    47   23  146 1    
    48   23  147 1    
    49   23  148 1    
    50   24   25 am   BACKBONE|DICT|INTERRES
    51   24  149 1    
    52   25   26 2    
    53   25   27 1    
    54   27   28 1    
    55   27   29 1    
    56   27  150 1    
    57   28  151 1    
    58   28  152 1    
    59   28  153 1    
    60   29   30 am   BACKBONE|DICT|INTERRES
    61   29  154 1    
    62   30   31 2    
    63   30   32 1    
    64   32   33 1    
    65   32   34 1    
    66   32  155 1    
    67   33  156 1    
    68   33  157 1    
    69   33  158 1    
    70   34   35 am   BACKBONE|DICT|INTERRES
    71   34  159 1    
    72   35   36 2    
    73   35   37 1    
    74   37   38 1    
    75   37   39 1    
    76   37  160 1    
    77   38  161 1    
    78   38  162 1    
    79   38  163 1    
    80   39   40 am   BACKBONE|DICT|INTERRES
    81   39  164 1    
    82   40   41 2    
    83   40   42 1    
    84   42   43 1    
    85   42   44 1    
    86   42  165 1    
    87   43  166 1    
    88   43  167 1    
    89   43  168 1    
    90   44   45 am   BACKBONE|DICT|INTERRES
    91   44  169 1    
    92   45   46 2    
    93   45   47 1    
    94   47   48 1    
    95   47   49 1    
    96   47  170 1    
    97   48  171 1    
    98   48  172 1    
    99   48  173 1    
   100   49   50 am   BACKBONE|DICT|INTERRES
   101   49  174 1    
   102   50   51 2    
   103   50   52 1    
   104   52   53 1    
   105   52   54 1    
   106   52  175 1    
   107   53  176 1    
   108   53  177 1    
   109   53  178 1    
   110   54   55 am   BACKBONE|DICT|INTERRES
   111   54  179 1    
   112   55   56 2    
   113   55   57 1    
   114   57   58 1    
   115   57   59 1    
   116   57  180 1    
   117   58  181 1    
   118   58  182 1    
   119   58  183 1    
   120   59   60 am   BACKBONE|DICT|INTERRES
   121   59  184 1    
   122   60   61 2    
   123   60   62 1    
   124   62   63 1    
   125   62   64 1    
   126   62  185 1    
   127   63  186 1    
   128   63  187 1    
   129   63  188 1    
   130   64   65 am   BACKBONE|DICT|INTERRES
   131   64  189 1    
   132   65   66 2    
   133   67   68 2    
   134   67   69 am   BACKBONE|DICT|INTERRES
   135   69   70 1    
   136   69  190 1    
   137   70   71 1    
   138   70   72 1    
   139   70  191 1    
   140   71  192 1    
   141   71  193 1    
   142   71  194 1    
   143   72   73 2    
   144   72   74 am   BACKBONE|DICT|INTERRES
   145   74   75 1    
   146   74  195 1    
   147   75   76 1    
   148   75   77 1    
   149   75  196 1    
   150   76  197 1    
   151   76  198 1    
   152   76  199 1    
   153   77   78 2    
   154   77   79 am   BACKBONE|DICT|INTERRES
   155   79   80 1    
   156   79  200 1    
   157   80   81 1    
   158   80   82 1    
   159   80  201 1    
   160   81  202 1    
   161   81  203 1    
   162   81  204 1    
   163   82   83 2    
   164   82   84 am   BACKBONE|DICT|INTERRES
   165   84   85 1    
   166   84  205 1    
   167   85   86 1    
   168   85   87 1    
   169   85  206 1    
   170   86  207 1    
   171   86  208 1    
   172   86  209 1    
   173   87   88 2    
   174   87   89 am   BACKBONE|DICT|INTERRES
   175   89   90 1    
   176   89  210 1    
   177   90   91 1    
   178   90   92 1    
   179   90  211 1    
   180   91  212 1    
   181   91  213 1    
   182   91  214 1    
   183   92   93 2    
   184   92   94 am   BACKBONE|DICT|INTERRES
   185   94   95 1    
   186   94  215 1    
   187   95   96 1    
   188   95   97 1    
   189   95  216 1    
   190   96  217 1    
   191   96  218 1    
   192   96  219 1    
   193   97   98 2    
   194   97   99 am   BACKBONE|DICT|INTERRES
   195   99  100 1    
   196   99  220 1    
   197  100  101 1    
   198  100  102 1    
   199  100  221 1    
   200  101  222 1    
   201  101  223 1    
   202  101  224 1    
   203  102  103 2    
   204  102  104 am   BACKBONE|DICT|INTERRES
   205  104  105 1    
   206  104  225 1    
   207  105  106 1    
   208  105  107 1    
   209  105  226 1    
   210  106  227 1    
   211  106  228 1    
   212  106  229 1    
   213  107  108 2    
   214  107  109 am   BACKBONE|DICT|INTERRES
   215  109  110 1    
   216  109  230 1    
   217  110  111 1    
   218  110  112 1    
   219  110  231 1    
   220  111  232 1    
   221  111  233 1    
   222  111  234 1    
   223  112  113 2    
   224  112  114 am   BACKBONE|DICT|INTERRES
   225  114  115 1    
   226  114  235 1    
   227  115  116 1    
   228  115  117 1    
   229  115  236 1    
   230  116  237 1    
   231  116  238 1    
   232  116  239 1    
   233  117  118 2    
   234  117  119 am   BACKBONE|DICT|INTERRES
   235  119  120 1    
   236  119  240 1    
   237  120  121 1    
   238  120  124 1    
   239  120  241 1    
   240  121  122 am   BACKBONE|DICT|INTERRES
   241  121  123 2    
   242  122  242 1    
   243  122  243 1    
   244  124  125 1    
   245  124  244 1    
   246  124  245 1    
   247  125  126 1    
   248  126  246 1    
   249  126  247 1    
@<TRIPOS>SUBSTRUCTURE
     1 UNK         1 GROUP             0       ****    0 ROOT    
