@<TRIPOS>MOLECULE
3R540
247   249    1
SMALL
USER_CHARGES


@<TRIPOS>ATOM
      1 CA         -6.3743  -14.4357  -46.6771 C.3       0 UNK        -0.1800 
      2 C          -4.8749  -14.3919  -46.4221 C.2       0 UNK         0.5000 
      3 O          -4.3678  -13.3951  -45.9076 O.2       0 UNK        -0.5000 
      4 N          -4.1637  -15.4756  -46.7632 N.am      1 UNK        -0.5000 
      5 CA         -2.7018  -15.6076  -46.6481 C.3       1 UNK         0.1400 
      6 C6         -2.1661  -16.8776  -47.3603 C.3       23 UNK        -0.0398 
      7 S7         -2.7108  -16.9777  -49.1011 S.3       23 UNK        -0.2404 
      8 C8         -1.2229  -16.4627  -50.0136 C.3       23 UNK        -0.0205 
      9 C9         -0.4271  -17.6626  -50.5025 C.ar      23 UNK        -0.0193 
     10 C10        -0.7457  -18.2595  -51.7264 C.ar      23 UNK        -0.1150 
     11 C11        -0.0205  -19.3605  -52.1909 C.ar      23 UNK        -0.0193 
     12 C12         1.0275  -19.8666  -51.4192 C.ar      23 UNK        -0.1150 
     13 C13         1.3381  -19.2962  -50.1827 C.ar      23 UNK        -0.0193 
     14 C14         0.6185  -18.1830  -49.7353 C.ar      23 UNK        -0.1150 
     15 C15         2.4081  -19.9290  -49.3054 C.3       23 UNK        -0.0205 
     16 S16         1.8418  -21.5138  -48.6022 S.3       23 UNK        -0.2404 
     17 C17         0.2339  -21.0250  -47.8948 C.3       23 UNK        -0.0398 
     18 CA         -0.2850  -22.0166  -46.8336 C.3       11 UNK         0.1400 
     19 N           0.4986  -22.0008  -45.5961 N.am      11 UNK        -0.5000 
     20 C           0.3518  -22.8798  -44.5940 C.2       10 UNK         0.5000 
     21 O          -0.3925  -23.8582  -44.6512 O.2       10 UNK        -0.5000 
     22 CA          1.1114  -22.5833  -43.2861 C.3       10 UNK         0.1400 
     23 CB          2.5638  -23.0765  -43.3596 C.3       10 UNK        -0.1800 
     24 N           1.0813  -21.1607  -42.9383 N.am      10 UNK        -0.5000 
     25 C          -0.0350  -20.4856  -42.6268 C.2       9 UNK         0.5000 
     26 O          -1.1401  -21.0172  -42.5172 O.2       9 UNK        -0.5000 
     27 CA          0.0901  -18.9585  -42.4694 C.3       9 UNK         0.1400 
     28 CB          0.4840  -18.5714  -41.0367 C.3       9 UNK        -0.1800 
     29 N           1.0475  -18.3890  -43.4169 N.am      9 UNK        -0.5000 
     30 C           0.8212  -18.2749  -44.7325 C.2       8 UNK         0.5000 
     31 O          -0.2385  -18.5949  -45.2711 O.2       8 UNK        -0.5000 
     32 CA          1.9972  -17.7997  -45.6057 C.3       8 UNK         0.1400 
     33 CB          2.0528  -16.2741  -45.6986 C.3       8 UNK        -0.1800 
     34 N           3.2875  -18.3006  -45.1353 N.am      8 UNK        -0.5000 
     35 C           3.6492  -19.5876  -45.2112 C.2       7 UNK         0.5000 
     36 O           2.9292  -20.4638  -45.6826 O.2       7 UNK        -0.5000 
     37 CA          5.0157  -19.9746  -44.6204 C.3       7 UNK         0.1400 
     38 CB          6.1216  -19.8092  -45.6729 C.3       7 UNK        -0.1800 
     39 N           5.3734  -19.2210  -43.4180 N.am      7 UNK        -0.5000 
     40 C           4.6554  -19.1783  -42.2874 C.2       6 UNK         0.5000 
     41 O           3.5757  -19.7541  -42.1447 O.2       6 UNK        -0.5000 
     42 CA          5.2261  -18.3572  -41.1149 C.3       6 UNK         0.1400 
     43 CB          6.6734  -17.8593  -41.3334 C.3       6 UNK        -0.1800 
     44 N           4.3578  -17.2370  -40.7421 N.am      6 UNK        -0.5000 
     45 C           3.9689  -16.2127  -41.5155 C.2       5 UNK         0.5000 
     46 O           4.2129  -16.1246  -42.7223 O.2       5 UNK        -0.5000 
     47 CA          3.2207  -15.0832  -40.7787 C.3       5 UNK         0.1400 
     48 CB          4.1210  -14.4347  -39.7111 C.3       5 UNK        -0.1800 
     49 N           2.7648  -14.0259  -41.6801 N.am      5 UNK        -0.5000 
     50 C           1.6226  -14.0523  -42.3725 C.2       4 UNK         0.5000 
     51 O           0.8354  -15.0010  -42.3547 O.2       4 UNK        -0.5000 
     52 CA          1.3124  -12.7948  -43.2050 C.3       4 UNK         0.1400 
     53 CB          1.9464  -12.8687  -44.6020 C.3       4 UNK        -0.1800 
     54 N          -0.1318  -12.6578  -43.3516 N.am      4 UNK        -0.5000 
     55 C          -0.8896  -11.7366  -42.7417 C.2       3 UNK         0.5000 
     56 O          -0.4324  -10.7869  -42.1040 O.2       3 UNK        -0.5000 
     57 CA         -2.4214  -11.9103  -42.8362 C.3       3 UNK         0.1400 
     58 CB         -2.9983  -11.0091  -43.9380 C.3       3 UNK        -0.1800 
     59 N          -2.8269  -13.2941  -43.0903 N.am      3 UNK        -0.5000 
     60 C          -2.6197  -14.3166  -42.2461 C.2       2 UNK         0.5000 
     61 O          -2.2356  -14.1643  -41.0857 O.2       2 UNK        -0.5000 
     62 CA         -2.8606  -15.7467  -42.7751 C.3       2 UNK         0.1400 
     63 CB         -4.0509  -16.3912  -42.0459 C.3       2 UNK        -0.1800 
     64 N          -3.0852  -15.8365  -44.2219 N.am      2 UNK        -0.5000 
     65 C          -2.2024  -15.5293  -45.1863 C.2       1 UNK         0.5000 
     66 O          -1.0624  -15.1289  -44.9592 O.2       1 UNK        -0.5000 
     67 C          -1.7797  -21.7616  -46.5642 C.2       11 UNK         0.5000 
     68 O          -2.6118  -22.4579  -47.1408 O.2       11 UNK        -0.5000 
     69 N          -2.1099  -20.8057  -45.6821 N.am      12 UNK        -0.5000 
     70 CA         -3.4851  -20.4998  -45.2715 C.3       12 UNK         0.1400 
     71 CB         -3.4989  -19.2917  -44.3284 C.3       12 UNK        -0.1800 
     72 C          -4.1939  -21.6984  -44.6155 C.2       12 UNK         0.5000 
     73 O          -5.3494  -21.9720  -44.9408 O.2       12 UNK        -0.5000 
     74 N          -3.4643  -22.4316  -43.7626 N.am      13 UNK        -0.5000 
     75 CA         -3.9022  -23.6896  -43.1505 C.3       13 UNK         0.1400 
     76 CB         -2.8891  -24.1054  -42.0734 C.3       13 UNK        -0.1800 
     77 C          -4.1196  -24.8289  -44.1706 C.2       13 UNK         0.5000 
     78 O          -4.9077  -25.7364  -43.9047 O.2       13 UNK        -0.5000 
     79 N          -3.4581  -24.7384  -45.3316 N.am      14 UNK        -0.5000 
     80 CA         -3.6176  -25.6154  -46.4916 C.3       14 UNK         0.1400 
     81 CB         -2.2301  -25.8790  -47.1052 C.3       14 UNK        -0.1800 
     82 C          -4.6057  -25.0279  -47.5256 C.2       14 UNK         0.5000 
     83 O          -4.4927  -25.3327  -48.7135 O.2       14 UNK        -0.5000 
     84 N          -5.5466  -24.1872  -47.0664 N.am      15 UNK        -0.5000 
     85 CA         -6.6187  -23.5363  -47.8299 C.3       15 UNK         0.1400 
     86 CB         -7.6133  -24.5815  -48.3779 C.3       15 UNK        -0.1800 
     87 C          -6.0980  -22.5661  -48.9117 C.2       15 UNK         0.5000 
     88 O          -6.6424  -22.5185  -50.0155 O.2       15 UNK        -0.5000 
     89 N          -5.0445  -21.8152  -48.5602 N.am      16 UNK        -0.5000 
     90 CA         -4.2965  -20.8628  -49.3917 C.3       16 UNK         0.1400 
     91 CB         -5.1986  -19.7273  -49.9204 C.3       16 UNK        -0.1800 
     92 C          -3.4485  -21.5411  -50.4887 C.2       16 UNK         0.5000 
     93 O          -3.0623  -20.8806  -51.4528 O.2       16 UNK        -0.5000 
     94 N          -3.1469  -22.8360  -50.2987 N.am      17 UNK        -0.5000 
     95 CA         -2.3178  -23.6973  -51.1438 C.3       17 UNK         0.1400 
     96 CB         -0.8294  -23.3237  -50.9658 C.3       17 UNK        -0.1800 
     97 C          -2.8026  -23.7187  -52.6109 C.2       17 UNK         0.5000 
     98 O          -3.9952  -23.9210  -52.8515 O.2       17 UNK        -0.5000 
     99 N          -1.8931  -23.4978  -53.5692 N.am      18 UNK        -0.5000 
    100 CA        -2.1702  -23.3842  -55.0031 C.3       18 UNK         0.1400 
    101 CB        -0.8721  -23.6707  -55.7792 C.3       18 UNK        -0.1800 
    102 C         -2.7758  -22.0094  -55.3594 C.2       18 UNK         0.5000 
    103 O         -2.2148  -21.2741  -56.1733 O.2       18 UNK        -0.5000 
    104 N         -3.9047  -21.6690  -54.7254 N.am      19 UNK        -0.5000 
    105 CA        -4.5753  -20.3672  -54.7964 C.3       19 UNK         0.1400 
    106 CB        -5.8232  -20.4008  -53.9032 C.3       19 UNK        -0.1800 
    107 C         -4.9460  -19.9224  -56.2238 C.2       19 UNK         0.5000 
    108 O         -4.8818  -18.7306  -56.5250 O.2       19 UNK        -0.5000 
    109 N         -5.2785  -20.8916  -57.0871 N.am      20 UNK        -0.5000 
    110 CA        -5.5671  -20.6849  -58.5070 C.3       20 UNK         0.1400 
    111 CB        -6.1531  -21.9803  -59.0893 C.3       20 UNK        -0.1800 
    112 C         -4.3425  -20.2307  -59.3278 C.2       20 UNK         0.5000 
    113 O         -4.5205  -19.5637  -60.3479 O.2       20 UNK        -0.5000 
    114 N         -3.1327  -20.5910  -58.8772 N.am      21 UNK        -0.5000 
    115 CA        -1.8698  -20.1640  -59.4753 C.3       21 UNK         0.1400 
    116 CB        -0.8190  -21.2742  -59.3114 C.3       21 UNK        -0.1800 
    117 C         -1.3802  -18.8496  -58.8462 C.2       21 UNK         0.5000 
    118 O         -0.9257  -17.9659  -59.5745 O.2       21 UNK        -0.5000 
    119 N         -1.4778  -18.7433  -57.5137 N.am      22 UNK        -0.5000 
    120 CA        -1.0479  -17.5619  -56.7463 C.3       22 UNK         0.1400 
    121 C         -1.9513  -16.3106  -56.9361 C.2       22 UNK         0.5000 
    122 N         -3.2485  -16.4579  -57.1740 N.am      22 UNK        -0.7600 
    123 O         -1.4637  -15.1854  -56.8717 O.2       22 UNK        -0.5000 
    124 C124       -0.8661  -17.8690  -55.2397 C.3       23 UNK        -0.0398 
    125 S125        0.3459  -19.1999  -54.9358 S.3       23 UNK        -0.2404 
    126 C126       -0.3927  -20.0365  -53.5003 C.3       23 UNK        -0.0205 
    127 H127       -6.6817  -15.3796  -47.1280 H         1 UNK         0.0600 
    128 H128       -6.6634  -13.6275  -47.3488 H         1 UNK         0.0600 
    129 H129       -6.9175  -14.3127  -45.7401 H         1 UNK         0.0600 
    130 H130       -4.6334  -16.2543  -47.2029 H         1 UNK         0.3000 
    131 H131       -2.2704  -14.7447  -47.1603 H         1 UNK         0.0600 
    132 H132       -2.5153  -17.7791  -46.8574 H         1 UNK         0.0800 
    133 H133       -1.0765  -16.9141  -47.3169 H         1 UNK         0.0800 
    134 H134       -0.6020  -15.8098  -49.3983 H         1 UNK         0.0800 
    135 H135       -1.5327  -15.8608  -50.8692 H         1 UNK         0.0800 
    136 H136       -1.5688  -17.8747  -52.3111 H         1 UNK         0.1150 
    137 H137        1.5782  -20.7321  -51.7602 H         1 UNK         0.1150 
    138 H138        0.8529  -17.7368  -48.7799 H         1 UNK         0.1150 
    139 H139        3.3090  -20.1024  -49.8954 H         1 UNK         0.0800 
    140 H140        2.6975  -19.2587  -48.4961 H         1 UNK         0.0800 
    141 H141       -0.4686  -20.9504  -48.7282 H         1 UNK         0.0800 
    142 H142        0.3147  -20.0242  -47.4701 H         1 UNK         0.0800 
    143 H143       -0.2096  -23.0226  -47.2520 H         1 UNK         0.0600 
    144 H144        1.2101  -21.2792  -45.5169 H         1 UNK         0.3000 
    145 H145        0.6125  -23.1294  -42.4826 H         1 UNK         0.0600 
    146 H146        3.1023  -22.8612  -42.4365 H         1 UNK         0.0600 
    147 H147        2.5977  -24.1556  -43.5138 H         1 UNK         0.0600 
    148 H148        3.1088  -22.6148  -44.1816 H         1 UNK         0.0600 
    149 H149        1.9639  -20.6602  -42.9510 H         1 UNK         0.3000 
    150 H150       -0.8902  -18.5245  -42.6752 H         1 UNK         0.0600 
    151 H151       -0.2424  -18.9531  -40.3183 H         1 UNK         0.0600 
    152 H152        0.5188  -17.4880  -40.9192 H         1 UNK         0.0600 
    153 H153        1.4595  -18.9707  -40.7596 H         1 UNK         0.0600 
    154 H154        1.9629  -18.1577  -43.0588 H         1 UNK         0.3000 
    155 H155        1.8307  -18.1861  -46.6115 H         1 UNK         0.0600 
    156 H156        2.1778  -15.8251  -44.7139 H         1 UNK         0.0600 
    157 H157        1.1360  -15.8795  -46.1354 H         1 UNK         0.0600 
    158 H158        2.8790  -15.9429  -46.3276 H         1 UNK         0.0600 
    159 H159        3.9054  -17.6389  -44.6835 H         1 UNK         0.3000 
    160 H160        4.9663  -21.0289  -44.3423 H         1 UNK         0.0600 
    161 H161        6.2474  -18.7657  -45.9644 H         1 UNK         0.0600 
    162 H162        5.8891  -20.3766  -46.5753 H         1 UNK         0.0600 
    163 H163        7.0795  -20.1726  -45.3002 H         1 UNK         0.0600 
    164 H164        6.2375  -18.7002  -43.4533 H         1 UNK         0.3000 
    165 H165        5.2403  -19.0333  -40.2588 H         1 UNK         0.0600 
    166 H166        6.7484  -17.1538  -42.1618 H         1 UNK         0.0600 
    167 H167        7.0473  -17.3556  -40.4419 H         1 UNK         0.0600 
    168 H168        7.3515  -18.6894  -41.5359 H         1 UNK         0.0600 
    169 H169        4.0702  -17.2319  -39.7737 H         1 UNK         0.3000 
    170 H170        2.3553  -15.5244  -40.2792 H         1 UNK         0.0600 
    171 H171        5.0293  -14.0193  -40.1499 H         1 UNK         0.0600 
    172 H172        3.6004  -13.6279  -39.1945 H         1 UNK         0.0600 
    173 H173        4.4245  -15.1540  -38.9498 H         1 UNK         0.0600 
    174 H174        3.3852  -13.2369  -41.7876 H         1 UNK         0.3000 
    175 H175        1.7319  -11.9321  -42.6833 H         1 UNK         0.0600 
    176 H176        3.0015  -13.1403  -44.5489 H         1 UNK         0.0600 
    177 H177        1.8826  -11.9051  -45.1074 H         1 UNK         0.0600 
    178 H178        1.4433  -13.6008  -45.2322 H         1 UNK         0.0600 
    179 H179       -0.5873  -13.4491  -43.7959 H         1 UNK         0.3000 
    180 H180       -2.8493  -11.6020  -41.8802 H         1 UNK         0.0600 
    181 H181       -4.0858  -11.0776  -43.9749 H         1 UNK         0.0600 
    182 H182       -2.6125  -11.2815  -44.9213 H         1 UNK         0.0600 
    183 H183       -2.7436   -9.9632  -43.7620 H         1 UNK         0.0600 
    184 H184       -3.1832  -13.4941  -44.0172 H         1 UNK         0.3000 
    185 H185       -1.9612  -16.3210  -42.5443 H         1 UNK         0.0600 
    186 H186       -4.1577  -17.4426  -42.3060 H         1 UNK         0.0600 
    187 H187       -3.9210  -16.3452  -40.9638 H         1 UNK         0.0600 
    188 H188       -4.9881  -15.8871  -42.2847 H         1 UNK         0.0600 
    189 H189       -4.0129  -16.1092  -44.5107 H         1 UNK         0.3000 
    190 H190       -1.3760  -20.2245  -45.2891 H         1 UNK         0.3000 
    191 H191       -4.0395  -20.2291  -46.1720 H         1 UNK         0.0600 
    192 H192       -4.5140  -18.9123  -44.2081 H         1 UNK         0.0600 
    193 H193       -2.8868  -18.4806  -44.7130 H         1 UNK         0.0600 
    194 H194       -3.1251  -19.5415  -43.3361 H         1 UNK         0.0600 
    195 H195       -2.5354  -22.1033  -43.5161 H         1 UNK         0.3000 
    196 H196       -4.8604  -23.5038  -42.6612 H         1 UNK         0.0600 
    197 H197       -1.9064  -24.3057  -42.4999 H         1 UNK         0.0600 
    198 H198       -2.7732  -23.3267  -41.3193 H         1 UNK         0.0600 
    199 H199       -3.2145  -25.0109  -41.5598 H         1 UNK         0.0600 
    200 H200       -2.8419  -23.9473  -45.4689 H         1 UNK         0.3000 
    201 H201       -4.0269  -26.5752  -46.1709 H         1 UNK         0.0600 
    202 H202       -2.2871  -26.6219  -47.9016 H         1 UNK         0.0600 
    203 H203       -1.7980  -24.9742  -47.5324 H         1 UNK         0.0600 
    204 H204       -1.5341  -26.2594  -46.3573 H         1 UNK         0.0600 
    205 H205       -5.5130  -23.9398  -46.0857 H         1 UNK         0.3000 
    206 H206       -7.1613  -22.9175  -47.1138 H         1 UNK         0.0600 
    207 H207       -7.9762  -25.2346  -47.5844 H         1 UNK         0.0600 
    208 H208       -8.4842  -24.0971  -48.8211 H         1 UNK         0.0600 
    209 H209       -7.1616  -25.2073  -49.1481 H         1 UNK         0.0600 
    210 H210       -4.6142  -22.0163  -47.6652 H         1 UNK         0.3000 
    211 H211       -3.5707  -20.3950  -48.7257 H         1 UNK         0.0600 
    212 H212       -4.6127  -18.9771  -50.4524 H         1 UNK         0.0600 
    213 H213       -5.7066  -19.2175  -49.1020 H         1 UNK         0.0600 
    214 H214       -5.9575  -20.0908  -50.6116 H         1 UNK         0.0600 
    215 H215       -3.5526  -23.2913  -49.4916 H         1 UNK         0.3000 
    216 H216       -2.4516  -24.7124  -50.7674 H         1 UNK         0.0600 
    217 H217       -0.1755  -24.0084  -51.5068 H         1 UNK         0.0600 
    218 H218       -0.5414  -23.3775  -49.9158 H         1 UNK         0.0600 
    219 H219       -0.6197  -22.3108  -51.3095 H         1 UNK         0.0600 
    220 H220       -0.9412  -23.3200  -53.2862 H         1 UNK         0.3000 
    221 H221       -2.9018  -24.1445  -55.2841 H         1 UNK         0.0600 
    222 H222       -0.4777  -24.6582  -55.5391 H         1 UNK         0.0600 
    223 H223       -0.0977  -22.9355  -55.5556 H         1 UNK         0.0600 
    224 H224       -1.0468  -23.6460  -56.8557 H         1 UNK         0.0600 
    225 H225       -4.2676  -22.3294  -54.0453 H         1 UNK         0.3000 
    226 H226       -3.8851  -19.6258  -54.3897 H         1 UNK         0.0600 
    227 H227       -5.5632  -20.6641  -52.8785 H         1 UNK         0.0600 
    228 H228       -6.3124  -19.4263  -53.8759 H         1 UNK         0.0600 
    229 H229       -6.5536  -21.1285  -54.2589 H         1 UNK         0.0600 
    230 H230       -5.2971  -21.8435  -56.7517 H         1 UNK         0.3000 
    231 H231       -6.3236  -19.9014  -58.5860 H         1 UNK         0.0600 
    232 H232       -5.4467  -22.8085  -59.0188 H         1 UNK         0.0600 
    233 H233       -6.4079  -21.8550  -60.1425 H         1 UNK         0.0600 
    234 H234       -7.0656  -22.2704  -58.5681 H         1 UNK         0.0600 
    235 H235       -3.0621  -21.0824  -57.9936 H         1 UNK         0.3000 
    236 H236       -2.0086  -19.9960  -60.5456 H         1 UNK         0.0600 
    237 H237       -1.1579  -22.2074  -59.7613 H         1 UNK         0.0600 
    238 H238        0.1158  -20.9975  -59.8003 H         1 UNK         0.0600 
    239 H239       -0.5916  -21.4708  -58.2634 H         1 UNK         0.0600 
    240 H240       -1.8096  -19.5399  -56.9790 H         1 UNK         0.3000 
    241 H241       -0.0648  -17.2803  -57.1292 H         1 UNK         0.0600 
    242 H242       -3.6937  -17.3707  -57.1372 H         1 UNK         0.3800 
    243 H243       -3.8199  -15.6384  -57.3024 H         1 UNK         0.3800 
    244 H244       -1.8281  -18.1380  -54.8015 H         1 UNK         0.0800 
    245 H245       -0.5215  -16.9824  -54.7042 H         1 UNK         0.0800 
    246 H246       -0.0506  -21.0716  -53.4948 H         1 UNK         0.0800 
    247 H247       -1.4774  -20.0821  -53.5969 H         1 UNK         0.0800 
@<TRIPOS>BOND
     1    1    2 1    
     2    1  127 1    
     3    1  128 1    
     4    1  129 1    
     5    2    3 2    
     6    2    4 am   BACKBONE|DICT|INTERRES
     7    4    5 1    
     8    4  130 1    
     9    5    6 1    
    10    5   65 1    
    11    5  131 1    
    12    6    7 1    
    13    6  132 1    
    14    6  133 1    
    15    7    8 1    
    16    8    9 1    
    17    8  134 1    
    18    8  135 1    
    19    9   10 ar   
    20    9   14 ar   
    21   10   11 ar   
    22   10  136 1    
    23   11   12 ar   
    24   11  126 1    
    25   12   13 ar   
    26   12  137 1    
    27   13   14 ar   
    28   13   15 1    
    29   14  138 1    
    30   15   16 1    
    31   15  139 1    
    32   15  140 1    
    33   16   17 1    
    34   17   18 1    
    35   17  141 1    
    36   17  142 1    
    37   18   19 1    
    38   18   67 1    
    39   18  143 1    
    40   19   20 am   BACKBONE|DICT|INTERRES
    41   19  144 1    
    42   20   21 2    
    43   20   22 1    
    44   22   23 1    
    45   22   24 1    
    46   22  145 1    
    47   23  146 1    
    48   23  147 1    
    49   23  148 1    
    50   24   25 am   BACKBONE|DICT|INTERRES
    51   24  149 1    
    52   25   26 2    
    53   25   27 1    
    54   27   28 1    
    55   27   29 1    
    56   27  150 1    
    57   28  151 1    
    58   28  152 1    
    59   28  153 1    
    60   29   30 am   BACKBONE|DICT|INTERRES
    61   29  154 1    
    62   30   31 2    
    63   30   32 1    
    64   32   33 1    
    65   32   34 1    
    66   32  155 1    
    67   33  156 1    
    68   33  157 1    
    69   33  158 1    
    70   34   35 am   BACKBONE|DICT|INTERRES
    71   34  159 1    
    72   35   36 2    
    73   35   37 1    
    74   37   38 1    
    75   37   39 1    
    76   37  160 1    
    77   38  161 1    
    78   38  162 1    
    79   38  163 1    
    80   39   40 am   BACKBONE|DICT|INTERRES
    81   39  164 1    
    82   40   41 2    
    83   40   42 1    
    84   42   43 1    
    85   42   44 1    
    86   42  165 1    
    87   43  166 1    
    88   43  167 1    
    89   43  168 1    
    90   44   45 am   BACKBONE|DICT|INTERRES
    91   44  169 1    
    92   45   46 2    
    93   45   47 1    
    94   47   48 1    
    95   47   49 1    
    96   47  170 1    
    97   48  171 1    
    98   48  172 1    
    99   48  173 1    
   100   49   50 am   BACKBONE|DICT|INTERRES
   101   49  174 1    
   102   50   51 2    
   103   50   52 1    
   104   52   53 1    
   105   52   54 1    
   106   52  175 1    
   107   53  176 1    
   108   53  177 1    
   109   53  178 1    
   110   54   55 am   BACKBONE|DICT|INTERRES
   111   54  179 1    
   112   55   56 2    
   113   55   57 1    
   114   57   58 1    
   115   57   59 1    
   116   57  180 1    
   117   58  181 1    
   118   58  182 1    
   119   58  183 1    
   120   59   60 am   BACKBONE|DICT|INTERRES
   121   59  184 1    
   122   60   61 2    
   123   60   62 1    
   124   62   63 1    
   125   62   64 1    
   126   62  185 1    
   127   63  186 1    
   128   63  187 1    
   129   63  188 1    
   130   64   65 am   BACKBONE|DICT|INTERRES
   131   64  189 1    
   132   65   66 2    
   133   67   68 2    
   134   67   69 am   BACKBONE|DICT|INTERRES
   135   69   70 1    
   136   69  190 1    
   137   70   71 1    
   138   70   72 1    
   139   70  191 1    
   140   71  192 1    
   141   71  193 1    
   142   71  194 1    
   143   72   73 2    
   144   72   74 am   BACKBONE|DICT|INTERRES
   145   74   75 1    
   146   74  195 1    
   147   75   76 1    
   148   75   77 1    
   149   75  196 1    
   150   76  197 1    
   151   76  198 1    
   152   76  199 1    
   153   77   78 2    
   154   77   79 am   BACKBONE|DICT|INTERRES
   155   79   80 1    
   156   79  200 1    
   157   80   81 1    
   158   80   82 1    
   159   80  201 1    
   160   81  202 1    
   161   81  203 1    
   162   81  204 1    
   163   82   83 2    
   164   82   84 am   BACKBONE|DICT|INTERRES
   165   84   85 1    
   166   84  205 1    
   167   85   86 1    
   168   85   87 1    
   169   85  206 1    
   170   86  207 1    
   171   86  208 1    
   172   86  209 1    
   173   87   88 2    
   174   87   89 am   BACKBONE|DICT|INTERRES
   175   89   90 1    
   176   89  210 1    
   177   90   91 1    
   178   90   92 1    
   179   90  211 1    
   180   91  212 1    
   181   91  213 1    
   182   91  214 1    
   183   92   93 2    
   184   92   94 am   BACKBONE|DICT|INTERRES
   185   94   95 1    
   186   94  215 1    
   187   95   96 1    
   188   95   97 1    
   189   95  216 1    
   190   96  217 1    
   191   96  218 1    
   192   96  219 1    
   193   97   98 2    
   194   97   99 am   BACKBONE|DICT|INTERRES
   195   99  100 1    
   196   99  220 1    
   197  100  101 1    
   198  100  102 1    
   199  100  221 1    
   200  101  222 1    
   201  101  223 1    
   202  101  224 1    
   203  102  103 2    
   204  102  104 am   BACKBONE|DICT|INTERRES
   205  104  105 1    
   206  104  225 1    
   207  105  106 1    
   208  105  107 1    
   209  105  226 1    
   210  106  227 1    
   211  106  228 1    
   212  106  229 1    
   213  107  108 2    
   214  107  109 am   BACKBONE|DICT|INTERRES
   215  109  110 1    
   216  109  230 1    
   217  110  111 1    
   218  110  112 1    
   219  110  231 1    
   220  111  232 1    
   221  111  233 1    
   222  111  234 1    
   223  112  113 2    
   224  112  114 am   BACKBONE|DICT|INTERRES
   225  114  115 1    
   226  114  235 1    
   227  115  116 1    
   228  115  117 1    
   229  115  236 1    
   230  116  237 1    
   231  116  238 1    
   232  116  239 1    
   233  117  118 2    
   234  117  119 am   BACKBONE|DICT|INTERRES
   235  119  120 1    
   236  119  240 1    
   237  120  121 1    
   238  120  124 1    
   239  120  241 1    
   240  121  122 am   BACKBONE|DICT|INTERRES
   241  121  123 2    
   242  122  242 1    
   243  122  243 1    
   244  124  125 1    
   245  124  244 1    
   246  124  245 1    
   247  125  126 1    
   248  126  246 1    
   249  126  247 1    
@<TRIPOS>SUBSTRUCTURE
     1 UNK         1 GROUP             0       ****    0 ROOT    
