@<TRIPOS>MOLECULE
3R540
247   249    1
SMALL
USER_CHARGES


@<TRIPOS>ATOM
      1 CA          5.4640  -13.0025  -52.1457 C.3       0 UNK        -0.1800 
      2 C           4.8423  -14.1349  -51.3405 C.2       0 UNK         0.5000 
      3 O           5.4983  -15.1498  -51.1058 O.2       0 UNK        -0.5000 
      4 N           3.5807  -13.9655  -50.9222 N.am      1 UNK        -0.5000 
      5 CA          2.8251  -14.9273  -50.1092 C.3       1 UNK         0.1400 
      6 C6          1.3177  -14.5709  -50.0932 C.3       23 UNK        -0.0398 
      7 S7          0.2491  -15.9409  -49.5433 S.3       23 UNK        -0.2404 
      8 C8         -1.3833  -15.2220  -49.8928 C.3       23 UNK        -0.0205 
      9 C9         -2.4955  -16.1062  -49.3566 C.ar      23 UNK        -0.0193 
     10 C10        -3.0500  -17.1094  -50.1559 C.ar      23 UNK        -0.1150 
     11 C11        -4.0594  -17.9387  -49.6570 C.ar      23 UNK        -0.0193 
     12 C12        -4.5224  -17.7466  -48.3519 C.ar      23 UNK        -0.1150 
     13 C13        -3.9759  -16.7440  -47.5444 C.ar      23 UNK        -0.0193 
     14 C14        -2.9649  -15.9259  -48.0536 C.ar      23 UNK        -0.1150 
     15 C15        -4.4655  -16.5433  -46.1187 C.3       23 UNK        -0.0205 
     16 S16        -3.3328  -17.2907  -44.9048 S.3       23 UNK        -0.2404 
     17 C17        -3.5862  -19.0709  -45.2172 C.3       23 UNK        -0.0398 
     18 CA         -2.4131  -19.7088  -45.9984 C.3       11 UNK         0.1400 
     19 N          -1.1334  -19.6443  -45.2844 N.am      11 UNK        -0.5000 
     20 C           0.0501  -19.8664  -45.8743 C.2       10 UNK         0.5000 
     21 O           0.1727  -20.1635  -47.0616 O.2       10 UNK        -0.5000 
     22 CA          1.3084  -19.7866  -44.9967 C.3       10 UNK         0.1400 
     23 CB          1.7335  -18.3270  -44.7930 C.3       10 UNK        -0.1800 
     24 N           1.1702  -20.4433  -43.6974 N.am      10 UNK        -0.5000 
     25 C           0.9665  -21.7563  -43.5207 C.2       9 UNK         0.5000 
     26 O           0.7491  -22.5428  -44.4423 O.2       9 UNK        -0.5000 
     27 CA          1.0160  -22.2787  -42.0765 C.3       9 UNK         0.1400 
     28 CB          2.4710  -22.3866  -41.5943 C.3       9 UNK        -0.1800 
     29 N           0.2790  -21.3922  -41.1804 N.am      9 UNK        -0.5000 
     30 C          -0.9206  -21.6655  -40.6523 C.2       8 UNK         0.5000 
     31 O          -1.4966  -22.7469  -40.7780 O.2       8 UNK        -0.5000 
     32 CA         -1.6125  -20.5327  -39.8643 C.3       8 UNK         0.1400 
     33 CB         -1.3008  -20.6550  -38.3652 C.3       8 UNK        -0.1800 
     34 N          -1.2656  -19.1804  -40.3127 N.am      8 UNK        -0.5000 
     35 C          -1.4366  -18.7102  -41.5561 C.2       7 UNK         0.5000 
     36 O          -1.8937  -19.3764  -42.4831 O.2       7 UNK        -0.5000 
     37 CA         -0.9700  -17.2695  -41.8288 C.3       7 UNK         0.1400 
     38 CB         -2.0623  -16.2832  -41.3850 C.3       7 UNK        -0.1800 
     39 N           0.3086  -16.8770  -41.2203 N.am      7 UNK        -0.5000 
     40 C           1.4423  -17.5888  -41.1142 C.2       6 UNK         0.5000 
     41 O           1.5457  -18.7701  -41.4496 O.2       6 UNK        -0.5000 
     42 CA          2.6905  -16.8686  -40.5646 C.3       6 UNK         0.1400 
     43 CB          3.8153  -16.8830  -41.6108 C.3       6 UNK        -0.1800 
     44 N           2.4567  -15.4809  -40.1602 N.am      6 UNK        -0.5000 
     45 C           1.8785  -15.0753  -39.0242 C.2       5 UNK         0.5000 
     46 O           1.4403  -15.8535  -38.1768 O.2       5 UNK        -0.5000 
     47 CA          1.7361  -13.5532  -38.7966 C.3       5 UNK         0.1400 
     48 CB          2.9100  -13.0062  -37.9620 C.3       5 UNK        -0.1800 
     49 N           1.5250  -12.7568  -40.0173 N.am      5 UNK        -0.5000 
     50 C           2.3680  -12.5271  -41.0342 C.2       4 UNK         0.5000 
     51 O           3.5221  -12.9558  -41.0870 O.2       4 UNK        -0.5000 
     52 CA          1.7945  -11.7494  -42.2351 C.3       4 UNK         0.1400 
     53 CB          2.6336  -10.4980  -42.5380 C.3       4 UNK        -0.1800 
     54 N           1.7345  -12.5893  -43.4334 N.am      4 UNK        -0.5000 
     55 C           1.0482  -13.7364  -43.5383 C.2       3 UNK         0.5000 
     56 O           0.3265  -14.1727  -42.6428 O.2       3 UNK        -0.5000 
     57 CA          1.1777  -14.5413  -44.8458 C.3       3 UNK         0.1400 
     58 CB         -0.1659  -14.6164  -45.5891 C.3       3 UNK        -0.1800 
     59 N           2.2050  -14.0459  -45.7648 N.am      3 UNK        -0.5000 
     60 C           3.5210  -14.2618  -45.6280 C.2       2 UNK         0.5000 
     61 O           4.0168  -14.8363  -44.6587 O.2       2 UNK        -0.5000 
     62 CA          4.4205  -13.7497  -46.7756 C.3       2 UNK         0.1400 
     63 CB          5.8343  -14.3675  -46.7528 C.3       2 UNK        -0.1800 
     64 N           3.8140  -13.9064  -48.1051 N.am      2 UNK        -0.5000 
     65 C           3.4023  -15.0502  -48.6801 C.2       1 UNK         0.5000 
     66 O           3.4807  -16.1586  -48.1487 O.2       1 UNK        -0.5000 
     67 C          -2.7567  -21.1559  -46.3931 C.2       11 UNK         0.5000 
     68 O          -3.2876  -21.3706  -47.4806 O.2       11 UNK        -0.5000 
     69 N          -2.4179  -22.1218  -45.5262 N.am      12 UNK        -0.5000 
     70 CA         -2.5917  -23.5526  -45.7769 C.3       12 UNK         0.1400 
     71 CB         -2.3562  -24.3372  -44.4771 C.3       12 UNK        -0.1800 
     72 C          -1.6758  -24.0565  -46.9061 C.2       12 UNK         0.5000 
     73 O          -2.1354  -24.7947  -47.7777 O.2       12 UNK        -0.5000 
     74 N          -0.4108  -23.6123  -46.8944 N.am      13 UNK        -0.5000 
     75 CA          0.5710  -23.8777  -47.9445 C.3       13 UNK         0.1400 
     76 CB          1.9539  -23.3815  -47.4967 C.3       13 UNK        -0.1800 
     77 C           0.1679  -23.2487  -49.2892 C.2       13 UNK         0.5000 
     78 O           0.2126  -23.9282  -50.3147 O.2       13 UNK        -0.5000 
     79 N          -0.2631  -21.9803  -49.2600 N.am      14 UNK        -0.5000 
     80 CA         -0.7414  -21.2498  -50.4321 C.3       14 UNK         0.1400 
     81 CB         -0.9343  -19.7711  -50.0808 C.3       14 UNK        -0.1800 
     82 C          -2.0255  -21.8489  -51.0317 C.2       14 UNK         0.5000 
     83 O          -2.1270  -21.9345  -52.2532 O.2       14 UNK        -0.5000 
     84 N          -2.9578  -22.2998  -50.1801 N.am      15 UNK        -0.5000 
     85 CA         -4.1842  -22.9888  -50.5908 C.3       15 UNK         0.1400 
     86 CB         -5.1250  -23.1416  -49.3866 C.3       15 UNK        -0.1800 
     87 C          -3.9290  -24.3585  -51.2494 C.2       15 UNK         0.5000 
     88 O          -4.7471  -24.8018  -52.0542 O.2       15 UNK        -0.5000 
     89 N          -2.8066  -25.0069  -50.9137 N.am      16 UNK        -0.5000 
     90 CA         -2.3469  -26.2237  -51.5770 C.3       16 UNK         0.1400 
     91 CB         -1.4277  -27.0141  -50.6323 C.3       16 UNK        -0.1800 
     92 C          -1.6395  -25.8978  -52.9047 C.2       16 UNK         0.5000 
     93 O          -1.9440  -26.5179  -53.9239 O.2       16 UNK        -0.5000 
     94 N          -0.7094  -24.9339  -52.8683 N.am      17 UNK        -0.5000 
     95 CA          0.1535  -24.5653  -53.9909 C.3       17 UNK         0.1400 
     96 CB          1.3186  -23.7107  -53.4680 C.3       17 UNK        -0.1800 
     97 C          -0.5730  -23.8346  -55.1350 C.2       17 UNK         0.5000 
     98 O          -0.3038  -24.1258  -56.3012 O.2       17 UNK        -0.5000 
     99 N          -1.4570  -22.8920  -54.7878 N.am      18 UNK        -0.5000 
    100 CA        -2.1371  -21.9856  -55.7175 C.3       18 UNK         0.1400 
    101 CB        -1.8034  -20.5386  -55.3144 C.3       18 UNK        -0.1800 
    102 C         -3.6588  -22.2275  -55.7629 C.2       18 UNK         0.5000 
    103 O         -4.3898  -21.3818  -56.2859 O.2       18 UNK        -0.5000 
    104 N         -4.1004  -23.3758  -55.2266 N.am      19 UNK        -0.5000 
    105 CA        -5.4853  -23.8445  -55.0995 C.3       19 UNK         0.1400 
    106 CB        -6.1435  -23.9870  -56.4894 C.3       19 UNK        -0.1800 
    107 C         -6.3390  -22.9808  -54.1462 C.2       19 UNK         0.5000 
    108 O         -5.8728  -21.9701  -53.6172 O.2       19 UNK        -0.5000 
    109 N         -7.5997  -23.3899  -53.9460 N.am      20 UNK        -0.5000 
    110 CA        -8.5780  -22.7128  -53.0846 C.3       20 UNK         0.1400 
    111 CB        -9.8370  -23.5870  -52.9798 C.3       20 UNK        -0.1800 
    112 C         -8.9455  -21.2865  -53.5476 C.2       20 UNK         0.5000 
    113 O         -9.4327  -20.4923  -52.7429 O.2       20 UNK        -0.5000 
    114 N         -8.6887  -20.9850  -54.8276 N.am      21 UNK        -0.5000 
    115 CA        -8.7858  -19.6506  -55.4164 C.3       21 UNK         0.1400 
    116 CB        -8.8039  -19.7931  -56.9466 C.3       21 UNK        -0.1800 
    117 C         -7.6462  -18.7052  -54.9797 C.2       21 UNK         0.5000 
    118 O         -7.7951  -17.4917  -55.1317 O.2       21 UNK        -0.5000 
    119 N         -6.5419  -19.2625  -54.4590 N.am      22 UNK        -0.5000 
    120 CA        -5.3284  -18.5522  -54.0231 C.3       22 UNK         0.1400 
    121 C         -4.6066  -17.8100  -55.1875 C.2       22 UNK         0.5000 
    122 N         -4.4824  -18.4321  -56.3533 N.am      22 UNK        -0.7600 
    123 O         -4.1548  -16.6764  -55.0464 O.2       22 UNK        -0.5000 
    124 C124       -5.5582  -17.6622  -52.7681 C.3       23 UNK        -0.0398 
    125 S125       -6.1741  -18.6134  -51.3351 S.3       23 UNK        -0.2404 
    126 C126       -4.6212  -19.0712  -50.5046 C.3       23 UNK        -0.0205 
    127 H127        6.3502  -12.6234  -51.6368 H         1 UNK         0.0600 
    128 H128        4.7699  -12.1730  -52.2831 H         1 UNK         0.0600 
    129 H129        5.7627  -13.3622  -53.1304 H         1 UNK         0.0600 
    130 H130        3.0966  -13.1119  -51.1624 H         1 UNK         0.3000 
    131 H131        2.9341  -15.9028  -50.5888 H         1 UNK         0.0600 
    132 H132        1.1255  -13.6937  -49.4727 H         1 UNK         0.0800 
    133 H133        0.9976  -14.3030  -51.1014 H         1 UNK         0.0800 
    134 H134       -1.4983  -15.0834  -50.9689 H         1 UNK         0.0800 
    135 H135       -1.4498  -14.2300  -49.4430 H         1 UNK         0.0800 
    136 H136       -2.6774  -17.2564  -51.1595 H         1 UNK         0.1150 
    137 H137       -5.3003  -18.3884  -47.9633 H         1 UNK         0.1150 
    138 H138       -2.5341  -15.1564  -47.4287 H         1 UNK         0.1150 
    139 H139       -4.5462  -15.4753  -45.9113 H         1 UNK         0.0800 
    140 H140       -5.4685  -16.9532  -45.9905 H         1 UNK         0.0800 
    141 H141       -4.5239  -19.2035  -45.7588 H         1 UNK         0.0800 
    142 H142       -3.7314  -19.5728  -44.2601 H         1 UNK         0.0800 
    143 H143       -2.2963  -19.1483  -46.9286 H         1 UNK         0.0600 
    144 H144       -1.1848  -19.4548  -44.2881 H         1 UNK         0.3000 
    145 H145        2.1116  -20.2956  -45.5337 H         1 UNK         0.0600 
    146 H146        2.6821  -18.2602  -44.2603 H         1 UNK         0.0600 
    147 H147        1.8605  -17.8166  -45.7492 H         1 UNK         0.0600 
    148 H148        0.9876  -17.7775  -44.2214 H         1 UNK         0.0600 
    149 H149        1.3339  -19.8598  -42.8806 H         1 UNK         0.3000 
    150 H150        0.5843  -23.2817  -42.0715 H         1 UNK         0.0600 
    151 H151        3.0540  -23.0320  -42.2525 H         1 UNK         0.0600 
    152 H152        2.5207  -22.8133  -40.5925 H         1 UNK         0.0600 
    153 H153        2.9623  -21.4129  -41.5668 H         1 UNK         0.0600 
    154 H154        0.6597  -20.4589  -41.0568 H         1 UNK         0.3000 
    155 H155       -2.6888  -20.6545  -40.0016 H         1 UNK         0.0600 
    156 H156       -0.2395  -20.5046  -38.1627 H         1 UNK         0.0600 
    157 H157       -1.5703  -21.6428  -37.9887 H         1 UNK         0.0600 
    158 H158       -1.8617  -19.9233  -37.7835 H         1 UNK         0.0600 
    159 H159       -0.8514  -18.5676  -39.6256 H         1 UNK         0.3000 
    160 H160       -0.8502  -17.1680  -42.9082 H         1 UNK         0.0600 
    161 H161       -3.0315  -16.5554  -41.8054 H         1 UNK         0.0600 
    162 H162       -1.8460  -15.2693  -41.7188 H         1 UNK         0.0600 
    163 H163       -2.1687  -16.2629  -40.2999 H         1 UNK         0.0600 
    164 H164        0.3732  -15.8998  -40.9704 H         1 UNK         0.3000 
    165 H165        3.0286  -17.4318  -39.6926 H         1 UNK         0.0600 
    166 H166        4.7204  -16.4125  -41.2265 H         1 UNK         0.0600 
    167 H167        4.0772  -17.9025  -41.8971 H         1 UNK         0.0600 
    168 H168        3.5210  -16.3532  -42.5170 H         1 UNK         0.0600 
    169 H169        2.8228  -14.7596  -40.7734 H         1 UNK         0.3000 
    170 H170        0.8294  -13.4192  -38.2045 H         1 UNK         0.0600 
    171 H171        2.9760  -13.5207  -37.0026 H         1 UNK         0.0600 
    172 H172        3.8677  -13.1388  -38.4658 H         1 UNK         0.0600 
    173 H173        2.7842  -11.9439  -37.7526 H         1 UNK         0.0600 
    174 H174        0.5834  -12.4033  -40.1188 H         1 UNK         0.3000 
    175 H175        0.7779  -11.4280  -41.9997 H         1 UNK         0.0600 
    176 H176        2.6926   -9.8478  -41.6642 H         1 UNK         0.0600 
    177 H177        2.1947   -9.9146  -43.3476 H         1 UNK         0.0600 
    178 H178        3.6541  -10.7558  -42.8248 H         1 UNK         0.0600 
    179 H179        2.3208  -12.3164  -44.2071 H         1 UNK         0.3000 
    180 H180        1.4514  -15.5533  -44.5498 H         1 UNK         0.0600 
    181 H181       -0.4918  -13.6349  -45.9346 H         1 UNK         0.0600 
    182 H182       -0.9505  -15.0162  -44.9447 H         1 UNK         0.0600 
    183 H183       -0.0988  -15.2747  -46.4556 H         1 UNK         0.0600 
    184 H184        1.8797  -13.5619  -46.5884 H         1 UNK         0.3000 
    185 H185        4.5309  -12.6766  -46.6137 H         1 UNK         0.0600 
    186 H186        6.3470  -14.1395  -45.8176 H         1 UNK         0.0600 
    187 H187        5.8030  -15.4529  -46.8525 H         1 UNK         0.0600 
    188 H188        6.4490  -13.9747  -47.5628 H         1 UNK         0.0600 
    189 H189        3.7200  -13.0553  -48.6413 H         1 UNK         0.3000 
    190 H190       -1.9481  -21.8612  -44.6714 H         1 UNK         0.3000 
    191 H191       -3.6253  -23.7171  -46.0890 H         1 UNK         0.0600 
    192 H192       -2.5119  -25.4052  -44.6344 H         1 UNK         0.0600 
    193 H193       -1.3417  -24.2067  -44.1003 H         1 UNK         0.0600 
    194 H194       -3.0456  -24.0201  -43.6944 H         1 UNK         0.0600 
    195 H195       -0.0958  -23.0489  -46.1093 H         1 UNK         0.3000 
    196 H196        0.6268  -24.9590  -48.0864 H         1 UNK         0.0600 
    197 H197        2.7068  -23.5812  -48.2601 H         1 UNK         0.0600 
    198 H198        2.2744  -23.8829  -46.5833 H         1 UNK         0.0600 
    199 H199        1.9555  -22.3081  -47.3048 H         1 UNK         0.0600 
    200 H200       -0.2321  -21.4632  -48.3846 H         1 UNK         0.3000 
    201 H201        0.0356  -21.3100  -51.1966 H         1 UNK         0.0600 
    202 H202       -0.0057  -19.3221  -49.7281 H         1 UNK         0.0600 
    203 H203       -1.6852  -19.6385  -49.3018 H         1 UNK         0.0600 
    204 H204       -1.2531  -19.2058  -50.9564 H         1 UNK         0.0600 
    205 H205       -2.8411  -22.1405  -49.1831 H         1 UNK         0.3000 
    206 H206       -4.6833  -22.3588  -51.3283 H         1 UNK         0.0600 
    207 H207       -4.6595  -23.7159  -48.5849 H         1 UNK         0.0600 
    208 H208       -5.4116  -22.1710  -48.9826 H         1 UNK         0.0600 
    209 H209       -6.0439  -23.6559  -49.6707 H         1 UNK         0.0600 
    210 H210       -2.1966  -24.6010  -50.2160 H         1 UNK         0.3000 
    211 H211       -3.2087  -26.8563  -51.8008 H         1 UNK         0.0600 
    212 H212       -0.5323  -26.4532  -50.3655 H         1 UNK         0.0600 
    213 H213       -1.1034  -27.9465  -51.0960 H         1 UNK         0.0600 
    214 H214       -1.9445  -27.2722  -49.7077 H         1 UNK         0.0600 
    215 H215       -0.4996  -24.4931  -51.9761 H         1 UNK         0.3000 
    216 H216        0.5736  -25.4849  -54.4038 H         1 UNK         0.0600 
    217 H217        1.9991  -23.4383  -54.2757 H         1 UNK         0.0600 
    218 H218        1.8999  -24.2516  -52.7210 H         1 UNK         0.0600 
    219 H219        0.9642  -22.7866  -53.0099 H         1 UNK         0.0600 
    220 H220       -1.6330  -22.7074  -53.8003 H         1 UNK         0.3000 
    221 H221       -1.7696  -22.1393  -56.7337 H         1 UNK         0.0600 
    222 H222       -2.1362  -19.8353  -56.0769 H         1 UNK         0.0600 
    223 H223       -0.7288  -20.3975  -55.1983 H         1 UNK         0.0600 
    224 H224       -2.2813  -20.2602  -54.3747 H         1 UNK         0.0600 
    225 H225       -3.4047  -23.9687  -54.7973 H         1 UNK         0.3000 
    226 H226       -5.4238  -24.8388  -54.6556 H         1 UNK         0.0600 
    227 H227       -7.0878  -24.5283  -56.4285 H         1 UNK         0.0600 
    228 H228       -6.3539  -23.0183  -56.9437 H         1 UNK         0.0600 
    229 H229       -5.5021  -24.5435  -57.1729 H         1 UNK         0.0600 
    230 H230       -7.9170  -24.2336  -54.4010 H         1 UNK         0.3000 
    231 H231       -8.1375  -22.6245  -52.0892 H         1 UNK         0.0600 
    232 H232       -9.6028  -24.5696  -52.5698 H         1 UNK         0.0600 
    233 H233      -10.3085  -23.7310  -53.9528 H         1 UNK         0.0600 
    234 H234      -10.5768  -23.1304  -52.3209 H         1 UNK         0.0600 
    235 H235       -8.2991  -21.7081  -55.4133 H         1 UNK         0.3000 
    236 H236       -9.7291  -19.1997  -55.1011 H         1 UNK         0.0600 
    237 H237       -9.6401  -20.4098  -57.2766 H         1 UNK         0.0600 
    238 H238       -8.9090  -18.8203  -57.4286 H         1 UNK         0.0600 
    239 H239       -7.8834  -20.2455  -57.3185 H         1 UNK         0.0600 
    240 H240       -6.5014  -20.2701  -54.3426 H         1 UNK         0.3000 
    241 H241       -4.6276  -19.3337  -53.7270 H         1 UNK         0.0600 
    242 H242       -4.0267  -17.9643  -57.1199 H         1 UNK         0.3800 
    243 H243       -4.7517  -19.4067  -56.4446 H         1 UNK         0.3800 
    244 H244       -6.2758  -16.8712  -52.9882 H         1 UNK         0.0800 
    245 H245       -4.6379  -17.1529  -52.4840 H         1 UNK         0.0800 
    246 H246       -3.8917  -19.3995  -51.2460 H         1 UNK         0.0800 
    247 H247       -4.8084  -19.9356  -49.8663 H         1 UNK         0.0800 
@<TRIPOS>BOND
     1    1    2 1    
     2    1  127 1    
     3    1  128 1    
     4    1  129 1    
     5    2    3 2    
     6    2    4 am   BACKBONE|DICT|INTERRES
     7    4    5 1    
     8    4  130 1    
     9    5    6 1    
    10    5   65 1    
    11    5  131 1    
    12    6    7 1    
    13    6  132 1    
    14    6  133 1    
    15    7    8 1    
    16    8    9 1    
    17    8  134 1    
    18    8  135 1    
    19    9   10 ar   
    20    9   14 ar   
    21   10   11 ar   
    22   10  136 1    
    23   11   12 ar   
    24   11  126 1    
    25   12   13 ar   
    26   12  137 1    
    27   13   14 ar   
    28   13   15 1    
    29   14  138 1    
    30   15   16 1    
    31   15  139 1    
    32   15  140 1    
    33   16   17 1    
    34   17   18 1    
    35   17  141 1    
    36   17  142 1    
    37   18   19 1    
    38   18   67 1    
    39   18  143 1    
    40   19   20 am   BACKBONE|DICT|INTERRES
    41   19  144 1    
    42   20   21 2    
    43   20   22 1    
    44   22   23 1    
    45   22   24 1    
    46   22  145 1    
    47   23  146 1    
    48   23  147 1    
    49   23  148 1    
    50   24   25 am   BACKBONE|DICT|INTERRES
    51   24  149 1    
    52   25   26 2    
    53   25   27 1    
    54   27   28 1    
    55   27   29 1    
    56   27  150 1    
    57   28  151 1    
    58   28  152 1    
    59   28  153 1    
    60   29   30 am   BACKBONE|DICT|INTERRES
    61   29  154 1    
    62   30   31 2    
    63   30   32 1    
    64   32   33 1    
    65   32   34 1    
    66   32  155 1    
    67   33  156 1    
    68   33  157 1    
    69   33  158 1    
    70   34   35 am   BACKBONE|DICT|INTERRES
    71   34  159 1    
    72   35   36 2    
    73   35   37 1    
    74   37   38 1    
    75   37   39 1    
    76   37  160 1    
    77   38  161 1    
    78   38  162 1    
    79   38  163 1    
    80   39   40 am   BACKBONE|DICT|INTERRES
    81   39  164 1    
    82   40   41 2    
    83   40   42 1    
    84   42   43 1    
    85   42   44 1    
    86   42  165 1    
    87   43  166 1    
    88   43  167 1    
    89   43  168 1    
    90   44   45 am   BACKBONE|DICT|INTERRES
    91   44  169 1    
    92   45   46 2    
    93   45   47 1    
    94   47   48 1    
    95   47   49 1    
    96   47  170 1    
    97   48  171 1    
    98   48  172 1    
    99   48  173 1    
   100   49   50 am   BACKBONE|DICT|INTERRES
   101   49  174 1    
   102   50   51 2    
   103   50   52 1    
   104   52   53 1    
   105   52   54 1    
   106   52  175 1    
   107   53  176 1    
   108   53  177 1    
   109   53  178 1    
   110   54   55 am   BACKBONE|DICT|INTERRES
   111   54  179 1    
   112   55   56 2    
   113   55   57 1    
   114   57   58 1    
   115   57   59 1    
   116   57  180 1    
   117   58  181 1    
   118   58  182 1    
   119   58  183 1    
   120   59   60 am   BACKBONE|DICT|INTERRES
   121   59  184 1    
   122   60   61 2    
   123   60   62 1    
   124   62   63 1    
   125   62   64 1    
   126   62  185 1    
   127   63  186 1    
   128   63  187 1    
   129   63  188 1    
   130   64   65 am   BACKBONE|DICT|INTERRES
   131   64  189 1    
   132   65   66 2    
   133   67   68 2    
   134   67   69 am   BACKBONE|DICT|INTERRES
   135   69   70 1    
   136   69  190 1    
   137   70   71 1    
   138   70   72 1    
   139   70  191 1    
   140   71  192 1    
   141   71  193 1    
   142   71  194 1    
   143   72   73 2    
   144   72   74 am   BACKBONE|DICT|INTERRES
   145   74   75 1    
   146   74  195 1    
   147   75   76 1    
   148   75   77 1    
   149   75  196 1    
   150   76  197 1    
   151   76  198 1    
   152   76  199 1    
   153   77   78 2    
   154   77   79 am   BACKBONE|DICT|INTERRES
   155   79   80 1    
   156   79  200 1    
   157   80   81 1    
   158   80   82 1    
   159   80  201 1    
   160   81  202 1    
   161   81  203 1    
   162   81  204 1    
   163   82   83 2    
   164   82   84 am   BACKBONE|DICT|INTERRES
   165   84   85 1    
   166   84  205 1    
   167   85   86 1    
   168   85   87 1    
   169   85  206 1    
   170   86  207 1    
   171   86  208 1    
   172   86  209 1    
   173   87   88 2    
   174   87   89 am   BACKBONE|DICT|INTERRES
   175   89   90 1    
   176   89  210 1    
   177   90   91 1    
   178   90   92 1    
   179   90  211 1    
   180   91  212 1    
   181   91  213 1    
   182   91  214 1    
   183   92   93 2    
   184   92   94 am   BACKBONE|DICT|INTERRES
   185   94   95 1    
   186   94  215 1    
   187   95   96 1    
   188   95   97 1    
   189   95  216 1    
   190   96  217 1    
   191   96  218 1    
   192   96  219 1    
   193   97   98 2    
   194   97   99 am   BACKBONE|DICT|INTERRES
   195   99  100 1    
   196   99  220 1    
   197  100  101 1    
   198  100  102 1    
   199  100  221 1    
   200  101  222 1    
   201  101  223 1    
   202  101  224 1    
   203  102  103 2    
   204  102  104 am   BACKBONE|DICT|INTERRES
   205  104  105 1    
   206  104  225 1    
   207  105  106 1    
   208  105  107 1    
   209  105  226 1    
   210  106  227 1    
   211  106  228 1    
   212  106  229 1    
   213  107  108 2    
   214  107  109 am   BACKBONE|DICT|INTERRES
   215  109  110 1    
   216  109  230 1    
   217  110  111 1    
   218  110  112 1    
   219  110  231 1    
   220  111  232 1    
   221  111  233 1    
   222  111  234 1    
   223  112  113 2    
   224  112  114 am   BACKBONE|DICT|INTERRES
   225  114  115 1    
   226  114  235 1    
   227  115  116 1    
   228  115  117 1    
   229  115  236 1    
   230  116  237 1    
   231  116  238 1    
   232  116  239 1    
   233  117  118 2    
   234  117  119 am   BACKBONE|DICT|INTERRES
   235  119  120 1    
   236  119  240 1    
   237  120  121 1    
   238  120  124 1    
   239  120  241 1    
   240  121  122 am   BACKBONE|DICT|INTERRES
   241  121  123 2    
   242  122  242 1    
   243  122  243 1    
   244  124  125 1    
   245  124  244 1    
   246  124  245 1    
   247  125  126 1    
   248  126  246 1    
   249  126  247 1    
@<TRIPOS>SUBSTRUCTURE
     1 UNK         1 GROUP             0       ****    0 ROOT    
