@<TRIPOS>MOLECULE
3R540
247   249    1
SMALL
USER_CHARGES


@<TRIPOS>ATOM
      1 CA         -2.8179   -8.5237  -44.2197 C.3       0 UNK        -0.1800 
      2 C          -3.1461   -9.2663  -45.5070 C.2       0 UNK         0.5000 
      3 O          -2.6943   -8.8631  -46.5787 O.2       0 UNK        -0.5000 
      4 N          -3.9311  -10.3462  -45.4090 N.am      1 UNK        -0.5000 
      5 CA         -4.2604  -11.2384  -46.5235 C.3       1 UNK         0.1400 
      6 C6         -5.5452  -12.0536  -46.2342 C.3       23 UNK        -0.0398 
      7 S7         -6.4944  -12.4104  -47.7506 S.3       23 UNK        -0.2404 
      8 C8         -7.0027  -14.1359  -47.4794 C.3       23 UNK        -0.0205 
      9 C9         -5.9084  -15.1128  -47.8760 C.ar      23 UNK        -0.0193 
     10 C10        -5.7910  -15.5243  -49.2076 C.ar      23 UNK        -0.1150 
     11 C11        -4.7983  -16.4324  -49.5855 C.ar      23 UNK        -0.0193 
     12 C12        -3.9108  -16.9124  -48.6205 C.ar      23 UNK        -0.1150 
     13 C13        -4.0272  -16.5234  -47.2838 C.ar      23 UNK        -0.0193 
     14 C14        -5.0294  -15.6229  -46.9159 C.ar      23 UNK        -0.1150 
     15 C15        -3.0568  -17.0636  -46.2457 C.3       23 UNK        -0.0205 
     16 S16        -3.6638  -18.5839  -45.4346 S.3       23 UNK        -0.2404 
     17 C17        -3.7710  -19.7486  -46.8383 C.3       23 UNK        -0.0398 
     18 CA         -3.4199  -21.2311  -46.5606 C.3       11 UNK         0.1400 
     19 N          -1.9769  -21.4855  -46.4900 N.am      11 UNK        -0.5000 
     20 C          -1.4217  -22.6824  -46.7240 C.2       10 UNK         0.5000 
     21 O          -2.0786  -23.6753  -47.0386 O.2       10 UNK        -0.5000 
     22 CA          0.1010  -22.8199  -46.5453 C.3       10 UNK         0.1400 
     23 CB          0.8400  -22.4239  -47.8268 C.3       10 UNK        -0.1800 
     24 N           0.6372  -22.0621  -45.4158 N.am      10 UNK        -0.5000 
     25 C           0.3421  -22.3101  -44.1329 C.2       9 UNK         0.5000 
     26 O          -0.4642  -23.1685  -43.7759 O.2       9 UNK        -0.5000 
     27 CA          1.0366  -21.4339  -43.0760 C.3       9 UNK         0.1400 
     28 CB          2.5136  -21.8242  -42.9159 C.3       9 UNK        -0.1800 
     29 N           0.9342  -20.0137  -43.3993 N.am      9 UNK        -0.5000 
     30 C          -0.2151  -19.3251  -43.3929 C.2       8 UNK         0.5000 
     31 O          -1.2875  -19.7888  -43.0048 O.2       8 UNK        -0.5000 
     32 CA         -0.1630  -17.8906  -43.9478 C.3       8 UNK         0.1400 
     33 CB          0.2912  -16.9006  -42.8656 C.3       8 UNK        -0.1800 
     34 N           0.6946  -17.7589  -45.1279 N.am      8 UNK        -0.5000 
     35 C           0.5258  -18.4162  -46.2852 C.2       7 UNK         0.5000 
     36 O          -0.3929  -19.2015  -46.5040 O.2       7 UNK        -0.5000 
     37 CA          1.5883  -18.1943  -47.3709 C.3       7 UNK         0.1400 
     38 CB          1.3530  -16.8651  -48.1018 C.3       7 UNK        -0.1800 
     39 N           2.9406  -18.2346  -46.8187 N.am      7 UNK        -0.5000 
     40 C           3.5139  -19.3384  -46.3172 C.2       6 UNK         0.5000 
     41 O           2.9752  -20.4447  -46.2987 O.2       6 UNK        -0.5000 
     42 CA          4.9038  -19.1605  -45.6830 C.3       6 UNK         0.1400 
     43 CB          5.9971  -19.1460  -46.7618 C.3       6 UNK        -0.1800 
     44 N           4.9914  -17.9394  -44.8818 N.am      6 UNK        -0.5000 
     45 C           4.3003  -17.7260  -43.7531 C.2       5 UNK         0.5000 
     46 O           3.5449  -18.5545  -43.2446 O.2       5 UNK        -0.5000 
     47 CA          4.4465  -16.3339  -43.1132 C.3       5 UNK         0.1400 
     48 CB          5.6802  -16.2856  -42.1995 C.3       5 UNK        -0.1800 
     49 N           4.5255  -15.2500  -44.0981 N.am      5 UNK        -0.5000 
     50 C           3.5361  -14.9154  -44.9360 C.2       4 UNK         0.5000 
     51 O           2.4640  -15.5195  -45.0093 O.2       4 UNK        -0.5000 
     52 CA          3.7859  -13.7231  -45.8637 C.3       4 UNK         0.1400 
     53 CB          4.2456  -14.1888  -47.2550 C.3       4 UNK        -0.1800 
     54 N           2.5430  -12.9671  -45.9751 N.am      4 UNK        -0.5000 
     55 C           2.4646  -11.6392  -46.1084 C.2       3 UNK         0.5000 
     56 O           3.4518  -10.9137  -46.2481 O.2       3 UNK        -0.5000 
     57 CA          1.0509  -11.0217  -46.0442 C.3       3 UNK         0.1400 
     58 CB          1.0226   -9.5422  -46.4824 C.3       3 UNK        -0.1800 
     59 N           0.0250  -11.7867  -46.7618 N.am      3 UNK        -0.5000 
     60 C          -0.0246  -12.0748  -48.0700 C.2       2 UNK         0.5000 
     61 O           0.8803  -11.8176  -48.8643 O.2       2 UNK        -0.5000 
     62 CA         -1.3276  -12.7130  -48.6019 C.3       2 UNK         0.1400 
     63 CB         -1.3180  -14.2429  -48.4357 C.3       2 UNK        -0.1800 
     64 N          -2.5609  -12.1058  -48.0732 N.am      2 UNK        -0.5000 
     65 C          -3.0403  -12.1342  -46.8218 C.2       1 UNK         0.5000 
     66 O          -2.5228  -12.7713  -45.9006 O.2       1 UNK        -0.5000 
     67 C          -4.2088  -21.8570  -45.3886 C.2       11 UNK         0.5000 
     68 O          -5.4190  -22.0433  -45.5157 O.2       11 UNK        -0.5000 
     69 N          -3.5188  -22.2117  -44.2963 N.am      12 UNK        -0.5000 
     70 CA         -4.0732  -23.0027  -43.2022 C.3       12 UNK         0.1400 
     71 CB         -3.3931  -22.6023  -41.8831 C.3       12 UNK        -0.1800 
     72 C          -3.9130  -24.5095  -43.4747 C.2       12 UNK         0.5000 
     73 O          -4.8763  -25.2593  -43.3142 O.2       12 UNK        -0.5000 
     74 N          -2.6990  -24.9270  -43.8611 N.am      13 UNK        -0.5000 
     75 CA         -2.3137  -26.3285  -44.0225 C.3       13 UNK         0.1400 
     76 CB         -0.7802  -26.4379  -44.0111 C.3       13 UNK        -0.1800 
     77 C          -2.8969  -26.9922  -45.2820 C.2       13 UNK         0.5000 
     78 O          -3.5238  -28.0472  -45.1743 O.2       13 UNK        -0.5000 
     79 N          -2.6558  -26.3850  -46.4502 N.am      14 UNK        -0.5000 
     80 CA         -3.0651  -26.9095  -47.7542 C.3       14 UNK         0.1400 
     81 CB         -1.9679  -26.6148  -48.7897 C.3       14 UNK        -0.1800 
     82 C          -4.3986  -26.3027  -48.2101 C.2       14 UNK         0.5000 
     83 O          -5.2166  -27.0126  -48.7969 O.2       14 UNK        -0.5000 
     84 N          -4.5849  -25.0035  -47.9346 N.am      15 UNK        -0.5000 
     85 CA         -5.7393  -24.1562  -48.2566 C.3       15 UNK         0.1400 
     86 CB         -7.0331  -24.6737  -47.6000 C.3       15 UNK        -0.1800 
     87 C          -5.9230  -23.8920  -49.7615 C.2       15 UNK         0.5000 
     88 O          -5.9167  -22.7303  -50.1715 O.2       15 UNK        -0.5000 
     89 N          -6.0572  -24.9604  -50.5571 N.am      16 UNK        -0.5000 
     90 CA         -6.2156  -24.9452  -52.0118 C.3       16 UNK         0.1400 
     91 CB         -6.3536  -26.3899  -52.5160 C.3       16 UNK        -0.1800 
     92 C          -5.0387  -24.2293  -52.6970 C.2       16 UNK         0.5000 
     93 O          -3.9031  -24.6965  -52.5884 O.2       16 UNK        -0.5000 
     94 N          -5.3284  -23.0710  -53.3112 N.am      17 UNK        -0.5000 
     95 CA         -4.3902  -22.1333  -53.9505 C.3       17 UNK         0.1400 
     96 CB         -3.7538  -22.7865  -55.1949 C.3       17 UNK        -0.1800 
     97 C          -3.3156  -21.5584  -52.9979 C.2       17 UNK         0.5000 
     98 O          -2.3154  -21.0106  -53.4722 O.2       17 UNK        -0.5000 
     99 N          -3.5218  -21.7212  -51.6791 N.am      18 UNK        -0.5000 
    100 CA        -2.5364  -21.5646  -50.6059 C.3       18 UNK         0.1400 
    101 CB        -2.2739  -20.0754  -50.3288 C.3       18 UNK        -0.1800 
    102 C         -1.2582  -22.3763  -50.8991 C.2       18 UNK         0.5000 
    103 O         -0.1552  -21.8255  -50.8899 O.2       18 UNK        -0.5000 
    104 N         -1.4586  -23.6535  -51.2614 N.am      19 UNK        -0.5000 
    105 CA        -0.5065  -24.6025  -51.8489 C.3       19 UNK         0.1400 
    106 CB         0.7023  -24.8720  -50.9298 C.3       19 UNK        -0.1800 
    107 C         -0.0779  -24.1725  -53.2640 C.2       19 UNK         0.5000 
    108 O         -0.3847  -24.8638  -54.2357 O.2       19 UNK        -0.5000 
    109 N          0.5931  -23.0212  -53.3449 N.am      20 UNK        -0.5000 
    110 CA         0.9853  -22.3330  -54.5702 C.3       20 UNK         0.1400 
    111 CB         2.2365  -23.0065  -55.1682 C.3       20 UNK        -0.1800 
    112 C          1.2112  -20.8240  -54.3421 C.2       20 UNK         0.5000 
    113 O          1.6299  -20.1435  -55.2799 O.2       20 UNK        -0.5000 
    114 N          0.9707  -20.3119  -53.1223 N.am      21 UNK        -0.5000 
    115 CA         1.2481  -18.9204  -52.7587 C.3       21 UNK         0.1400 
    116 CB         1.3217  -18.7901  -51.2297 C.3       21 UNK        -0.1800 
    117 C          0.2426  -17.9163  -53.3526 C.2       21 UNK         0.5000 
    118 O          0.6306  -16.7787  -53.6237 O.2       21 UNK        -0.5000 
    119 N         -1.0073  -18.3488  -53.5598 N.am      22 UNK        -0.5000 
    120 CA        -2.0618  -17.5662  -54.2265 C.3       22 UNK         0.1400 
    121 C         -2.3955  -18.1151  -55.6405 C.2       22 UNK         0.5000 
    122 N         -2.2180  -19.4028  -55.9096 N.am      22 UNK        -0.7600 
    123 O         -2.8124  -17.3572  -56.5119 O.2       22 UNK        -0.5000 
    124 C124       -3.3509  -17.4758  -53.3740 C.3       23 UNK        -0.0398 
    125 S125       -3.1043  -16.6017  -51.7930 S.3       23 UNK        -0.2404 
    126 C126       -4.7164  -16.9380  -51.0187 C.3       23 UNK        -0.0205 
    127 H127       -3.1646   -7.4922  -44.2824 H         1 UNK         0.0600 
    128 H128       -1.7398   -8.5131  -44.0588 H         1 UNK         0.0600 
    129 H129       -3.2869   -8.9884  -43.3521 H         1 UNK         0.0600 
    130 H130       -4.2416  -10.6498  -44.4971 H         1 UNK         0.3000 
    131 H131       -4.4492  -10.6040  -47.3929 H         1 UNK         0.0600 
    132 H132       -5.3258  -12.9678  -45.6813 H         1 UNK         0.0800 
    133 H133       -6.2151  -11.4804  -45.5915 H         1 UNK         0.0800 
    134 H134       -7.8967  -14.3333  -48.0728 H         1 UNK         0.0800 
    135 H135       -7.2956  -14.2817  -46.4384 H         1 UNK         0.0800 
    136 H136       -6.4823  -15.1436  -49.9464 H         1 UNK         0.1150 
    137 H137       -3.1245  -17.5895  -48.9167 H         1 UNK         0.1150 
    138 H138       -5.1213  -15.3210  -45.8825 H         1 UNK         0.1150 
    139 H139       -2.0918  -17.2513  -46.7136 H         1 UNK         0.0800 
    140 H140       -2.8775  -16.3034  -45.4840 H         1 UNK         0.0800 
    141 H141       -4.7836  -19.6806  -47.2396 H         1 UNK         0.0800 
    142 H142       -3.1147  -19.3951  -47.6297 H         1 UNK         0.0800 
    143 H143       -3.7656  -21.7645  -47.4468 H         1 UNK         0.0600 
    144 H144       -1.3782  -20.6842  -46.2904 H         1 UNK         0.3000 
    145 H145        0.3104  -23.8747  -46.3562 H         1 UNK         0.0600 
    146 H146        1.9176  -22.5462  -47.7195 H         1 UNK         0.0600 
    147 H147        0.5283  -23.0588  -48.6536 H         1 UNK         0.0600 
    148 H148        0.6435  -21.3883  -48.1069 H         1 UNK         0.0600 
    149 H149        1.3203  -21.3441  -45.6375 H         1 UNK         0.3000 
    150 H150        0.5364  -21.6035  -42.1202 H         1 UNK         0.0600 
    151 H151        2.6131  -22.8809  -42.6648 H         1 UNK         0.0600 
    152 H152        2.9857  -21.2531  -42.1163 H         1 UNK         0.0600 
    153 H153        3.0817  -21.6477  -43.8296 H         1 UNK         0.0600 
    154 H154        1.7887  -19.5398  -43.6721 H         1 UNK         0.3000 
    155 H155       -1.1744  -17.6159  -44.2427 H         1 UNK         0.0600 
    156 H156        1.3051  -17.1120  -42.5273 H         1 UNK         0.0600 
    157 H157       -0.3626  -16.9494  -41.9940 H         1 UNK         0.0600 
    158 H158        0.2668  -15.8748  -43.2339 H         1 UNK         0.0600 
    159 H159        1.4564  -17.0889  -45.0566 H         1 UNK         0.3000 
    160 H160        1.4991  -19.0015  -48.1012 H         1 UNK         0.0600 
    161 H161        1.3365  -16.0175  -47.4162 H         1 UNK         0.0600 
    162 H162        0.3951  -16.8844  -48.6227 H         1 UNK         0.0600 
    163 H163        2.1256  -16.6788  -48.8473 H         1 UNK         0.0600 
    164 H164        3.4314  -17.3568  -46.7471 H         1 UNK         0.3000 
    165 H165        5.0824  -20.0137  -45.0250 H         1 UNK         0.0600 
    166 H166        6.9903  -19.0949  -46.3153 H         1 UNK         0.0600 
    167 H167        5.9598  -20.0536  -47.3660 H         1 UNK         0.0600 
    168 H168        5.8884  -18.2969  -47.4377 H         1 UNK         0.0600 
    169 H169        5.5908  -17.2045  -45.2269 H         1 UNK         0.3000 
    170 H170        3.5624  -16.1603  -42.4967 H         1 UNK         0.0600 
    171 H171        5.6374  -17.0720  -41.4445 H         1 UNK         0.0600 
    172 H172        6.6052  -16.4201  -42.7615 H         1 UNK         0.0600 
    173 H173        5.7429  -15.3340  -41.6714 H         1 UNK         0.0600 
    174 H174        5.3784  -14.7090  -44.1029 H         1 UNK         0.3000 
    175 H175        4.5626  -13.0977  -45.4182 H         1 UNK         0.0600 
    176 H176        3.4874  -14.7973  -47.7475 H         1 UNK         0.0600 
    177 H177        4.4583  -13.3376  -47.9021 H         1 UNK         0.0600 
    178 H178        5.1574  -14.7835  -47.1896 H         1 UNK         0.0600 
    179 H179        1.7009  -13.5091  -45.8299 H         1 UNK         0.3000 
    180 H180        0.7630  -11.0514  -44.9925 H         1 UNK         0.0600 
    181 H181        1.3362   -9.4215  -47.5197 H         1 UNK         0.0600 
    182 H182        1.6878   -8.9365  -45.8660 H         1 UNK         0.0600 
    183 H183        0.0228   -9.1208  -46.3841 H         1 UNK         0.0600 
    184 H184       -0.7755  -12.0827  -46.2094 H         1 UNK         0.3000 
    185 H185       -1.3497  -12.5121  -49.6742 H         1 UNK         0.0600 
    186 H186       -0.4580  -14.6749  -48.9468 H         1 UNK         0.0600 
    187 H187       -1.2669  -14.5492  -47.3908 H         1 UNK         0.0600 
    188 H188       -2.2101  -14.6859  -48.8762 H         1 UNK         0.0600 
    189 H189       -3.0475  -11.5197  -48.7373 H         1 UNK         0.3000 
    190 H190       -2.5271  -22.0166  -44.2621 H         1 UNK         0.3000 
    191 H191       -5.1395  -22.7906  -43.0985 H         1 UNK         0.0600 
    192 H192       -2.3188  -22.7853  -41.9030 H         1 UNK         0.0600 
    193 H193       -3.8064  -23.1652  -41.0454 H         1 UNK         0.0600 
    194 H194       -3.5439  -21.5436  -41.6709 H         1 UNK         0.0600 
    195 H195       -1.9459  -24.2459  -43.9284 H         1 UNK         0.3000 
    196 H196       -2.6882  -26.8807  -43.1578 H         1 UNK         0.0600 
    197 H197       -0.4602  -27.4753  -44.1171 H         1 UNK         0.0600 
    198 H198       -0.3670  -26.0645  -43.0739 H         1 UNK         0.0600 
    199 H199       -0.3271  -25.8687  -44.8235 H         1 UNK         0.0600 
    200 H200       -2.1998  -25.4779  -46.4548 H         1 UNK         0.3000 
    201 H201       -3.1892  -27.9932  -47.6993 H         1 UNK         0.0600 
    202 H202       -1.0175  -27.0596  -48.4948 H         1 UNK         0.0600 
    203 H203       -1.8103  -25.5441  -48.9201 H         1 UNK         0.0600 
    204 H204       -2.2312  -27.0258  -49.7652 H         1 UNK         0.0600 
    205 H205       -3.8075  -24.5216  -47.4940 H         1 UNK         0.3000 
    206 H206       -5.5285  -23.1873  -47.8110 H         1 UNK         0.0600 
    207 H207       -6.9097  -24.7727  -46.5212 H         1 UNK         0.0600 
    208 H208       -7.8570  -23.9795  -47.7693 H         1 UNK         0.0600 
    209 H209       -7.3396  -25.6430  -47.9933 H         1 UNK         0.0600 
    210 H210       -5.9685  -25.8722  -50.1170 H         1 UNK         0.3000 
    211 H211       -7.1412  -24.4137  -52.2414 H         1 UNK         0.0600 
    212 H212       -5.4758  -26.9883  -52.2679 H         1 UNK         0.0600 
    213 H213       -6.4744  -26.4159  -53.5997 H         1 UNK         0.0600 
    214 H214       -7.2250  -26.8783  -52.0794 H         1 UNK         0.0600 
    215 H215       -6.2906  -22.7612  -53.2958 H         1 UNK         0.3000 
    216 H216       -4.9837  -21.2818  -54.2860 H         1 UNK         0.0600 
    217 H217       -3.1844  -22.0619  -55.7760 H         1 UNK         0.0600 
    218 H218       -4.5147  -23.2006  -55.8563 H         1 UNK         0.0600 
    219 H219       -3.0701  -23.5920  -54.9239 H         1 UNK         0.0600 
    220 H220       -4.4040  -22.1333  -51.3921 H         1 UNK         0.3000 
    221 H221       -2.9758  -21.9997  -49.7079 H         1 UNK         0.0600 
    222 H222       -1.8497  -19.5703  -51.1945 H         1 UNK         0.0600 
    223 H223       -3.2024  -19.5674  -50.0755 H         1 UNK         0.0600 
    224 H224       -1.5844  -19.9444  -49.4936 H         1 UNK         0.0600 
    225 H225       -2.4229  -23.9538  -51.3599 H         1 UNK         0.3000 
    226 H226       -1.0526  -25.5416  -51.9531 H         1 UNK         0.0600 
    227 H227        0.3835  -25.2063  -49.9436 H         1 UNK         0.0600 
    228 H228        1.3340  -25.6563  -51.3479 H         1 UNK         0.0600 
    229 H229        1.3306  -23.9916  -50.7961 H         1 UNK         0.0600 
    230 H230        0.7535  -22.5287  -52.4737 H         1 UNK         0.3000 
    231 H231        0.1656  -22.4141  -55.2872 H         1 UNK         0.0600 
    232 H232        2.5397  -22.5242  -56.0981 H         1 UNK         0.0600 
    233 H233        2.0535  -24.0559  -55.3990 H         1 UNK         0.0600 
    234 H234        3.0814  -22.9575  -54.4805 H         1 UNK         0.0600 
    235 H235        0.5674  -20.8841  -52.3883 H         1 UNK         0.3000 
    236 H236        2.2329  -18.6607  -53.1534 H         1 UNK         0.0600 
    237 H237        2.0794  -19.4527  -50.8112 H         1 UNK         0.0600 
    238 H238        1.5857  -17.7717  -50.9448 H         1 UNK         0.0600 
    239 H239        0.3723  -19.0267  -50.7527 H         1 UNK         0.0600 
    240 H240       -1.2427  -19.3090  -53.3348 H         1 UNK         0.3000 
    241 H241       -1.7155  -16.5431  -54.3839 H         1 UNK         0.0600 
    242 H242       -2.4209  -19.7452  -56.8349 H         1 UNK         0.3800 
    243 H243       -1.9625  -20.0491  -55.1732 H         1 UNK         0.3800 
    244 H244       -4.1352  -16.9485  -53.9206 H         1 UNK         0.0800 
    245 H245       -3.7364  -18.4755  -53.1682 H         1 UNK         0.0800 
    246 H246       -4.9013  -18.0130  -51.0177 H         1 UNK         0.0800 
    247 H247       -5.5006  -16.4896  -51.6305 H         1 UNK         0.0800 
@<TRIPOS>BOND
     1    1    2 1    
     2    1  127 1    
     3    1  128 1    
     4    1  129 1    
     5    2    3 2    
     6    2    4 am   BACKBONE|DICT|INTERRES
     7    4    5 1    
     8    4  130 1    
     9    5    6 1    
    10    5   65 1    
    11    5  131 1    
    12    6    7 1    
    13    6  132 1    
    14    6  133 1    
    15    7    8 1    
    16    8    9 1    
    17    8  134 1    
    18    8  135 1    
    19    9   10 ar   
    20    9   14 ar   
    21   10   11 ar   
    22   10  136 1    
    23   11   12 ar   
    24   11  126 1    
    25   12   13 ar   
    26   12  137 1    
    27   13   14 ar   
    28   13   15 1    
    29   14  138 1    
    30   15   16 1    
    31   15  139 1    
    32   15  140 1    
    33   16   17 1    
    34   17   18 1    
    35   17  141 1    
    36   17  142 1    
    37   18   19 1    
    38   18   67 1    
    39   18  143 1    
    40   19   20 am   BACKBONE|DICT|INTERRES
    41   19  144 1    
    42   20   21 2    
    43   20   22 1    
    44   22   23 1    
    45   22   24 1    
    46   22  145 1    
    47   23  146 1    
    48   23  147 1    
    49   23  148 1    
    50   24   25 am   BACKBONE|DICT|INTERRES
    51   24  149 1    
    52   25   26 2    
    53   25   27 1    
    54   27   28 1    
    55   27   29 1    
    56   27  150 1    
    57   28  151 1    
    58   28  152 1    
    59   28  153 1    
    60   29   30 am   BACKBONE|DICT|INTERRES
    61   29  154 1    
    62   30   31 2    
    63   30   32 1    
    64   32   33 1    
    65   32   34 1    
    66   32  155 1    
    67   33  156 1    
    68   33  157 1    
    69   33  158 1    
    70   34   35 am   BACKBONE|DICT|INTERRES
    71   34  159 1    
    72   35   36 2    
    73   35   37 1    
    74   37   38 1    
    75   37   39 1    
    76   37  160 1    
    77   38  161 1    
    78   38  162 1    
    79   38  163 1    
    80   39   40 am   BACKBONE|DICT|INTERRES
    81   39  164 1    
    82   40   41 2    
    83   40   42 1    
    84   42   43 1    
    85   42   44 1    
    86   42  165 1    
    87   43  166 1    
    88   43  167 1    
    89   43  168 1    
    90   44   45 am   BACKBONE|DICT|INTERRES
    91   44  169 1    
    92   45   46 2    
    93   45   47 1    
    94   47   48 1    
    95   47   49 1    
    96   47  170 1    
    97   48  171 1    
    98   48  172 1    
    99   48  173 1    
   100   49   50 am   BACKBONE|DICT|INTERRES
   101   49  174 1    
   102   50   51 2    
   103   50   52 1    
   104   52   53 1    
   105   52   54 1    
   106   52  175 1    
   107   53  176 1    
   108   53  177 1    
   109   53  178 1    
   110   54   55 am   BACKBONE|DICT|INTERRES
   111   54  179 1    
   112   55   56 2    
   113   55   57 1    
   114   57   58 1    
   115   57   59 1    
   116   57  180 1    
   117   58  181 1    
   118   58  182 1    
   119   58  183 1    
   120   59   60 am   BACKBONE|DICT|INTERRES
   121   59  184 1    
   122   60   61 2    
   123   60   62 1    
   124   62   63 1    
   125   62   64 1    
   126   62  185 1    
   127   63  186 1    
   128   63  187 1    
   129   63  188 1    
   130   64   65 am   BACKBONE|DICT|INTERRES
   131   64  189 1    
   132   65   66 2    
   133   67   68 2    
   134   67   69 am   BACKBONE|DICT|INTERRES
   135   69   70 1    
   136   69  190 1    
   137   70   71 1    
   138   70   72 1    
   139   70  191 1    
   140   71  192 1    
   141   71  193 1    
   142   71  194 1    
   143   72   73 2    
   144   72   74 am   BACKBONE|DICT|INTERRES
   145   74   75 1    
   146   74  195 1    
   147   75   76 1    
   148   75   77 1    
   149   75  196 1    
   150   76  197 1    
   151   76  198 1    
   152   76  199 1    
   153   77   78 2    
   154   77   79 am   BACKBONE|DICT|INTERRES
   155   79   80 1    
   156   79  200 1    
   157   80   81 1    
   158   80   82 1    
   159   80  201 1    
   160   81  202 1    
   161   81  203 1    
   162   81  204 1    
   163   82   83 2    
   164   82   84 am   BACKBONE|DICT|INTERRES
   165   84   85 1    
   166   84  205 1    
   167   85   86 1    
   168   85   87 1    
   169   85  206 1    
   170   86  207 1    
   171   86  208 1    
   172   86  209 1    
   173   87   88 2    
   174   87   89 am   BACKBONE|DICT|INTERRES
   175   89   90 1    
   176   89  210 1    
   177   90   91 1    
   178   90   92 1    
   179   90  211 1    
   180   91  212 1    
   181   91  213 1    
   182   91  214 1    
   183   92   93 2    
   184   92   94 am   BACKBONE|DICT|INTERRES
   185   94   95 1    
   186   94  215 1    
   187   95   96 1    
   188   95   97 1    
   189   95  216 1    
   190   96  217 1    
   191   96  218 1    
   192   96  219 1    
   193   97   98 2    
   194   97   99 am   BACKBONE|DICT|INTERRES
   195   99  100 1    
   196   99  220 1    
   197  100  101 1    
   198  100  102 1    
   199  100  221 1    
   200  101  222 1    
   201  101  223 1    
   202  101  224 1    
   203  102  103 2    
   204  102  104 am   BACKBONE|DICT|INTERRES
   205  104  105 1    
   206  104  225 1    
   207  105  106 1    
   208  105  107 1    
   209  105  226 1    
   210  106  227 1    
   211  106  228 1    
   212  106  229 1    
   213  107  108 2    
   214  107  109 am   BACKBONE|DICT|INTERRES
   215  109  110 1    
   216  109  230 1    
   217  110  111 1    
   218  110  112 1    
   219  110  231 1    
   220  111  232 1    
   221  111  233 1    
   222  111  234 1    
   223  112  113 2    
   224  112  114 am   BACKBONE|DICT|INTERRES
   225  114  115 1    
   226  114  235 1    
   227  115  116 1    
   228  115  117 1    
   229  115  236 1    
   230  116  237 1    
   231  116  238 1    
   232  116  239 1    
   233  117  118 2    
   234  117  119 am   BACKBONE|DICT|INTERRES
   235  119  120 1    
   236  119  240 1    
   237  120  121 1    
   238  120  124 1    
   239  120  241 1    
   240  121  122 am   BACKBONE|DICT|INTERRES
   241  121  123 2    
   242  122  242 1    
   243  122  243 1    
   244  124  125 1    
   245  124  244 1    
   246  124  245 1    
   247  125  126 1    
   248  126  246 1    
   249  126  247 1    
@<TRIPOS>SUBSTRUCTURE
     1 UNK         1 GROUP             0       ****    0 ROOT    
