@<TRIPOS>MOLECULE
3R540
247   249    1
SMALL
USER_CHARGES


@<TRIPOS>ATOM
      1 CA         -3.4343  -10.4305  -51.3041 C.3       0 UNK        -0.1800 
      2 C          -2.6427  -11.6865  -50.9693 C.2       0 UNK         0.5000 
      3 O          -1.6591  -11.9893  -51.6436 O.2       0 UNK        -0.5000 
      4 N          -3.0600  -12.4108  -49.9231 N.am      1 UNK        -0.5000 
      5 CA         -2.4517  -13.6721  -49.4715 C.3       1 UNK         0.1400 
      6 C6         -3.4330  -14.5282  -48.6288 C.3       23 UNK        -0.0398 
      7 S7         -5.0410  -14.8044  -49.4432 S.3       23 UNK        -0.2404 
      8 C8         -6.0429  -15.4658  -48.0699 C.3       23 UNK        -0.0205 
      9 C9         -6.2420  -16.9725  -48.1696 C.ar      23 UNK        -0.0193 
     10 C10        -7.0472  -17.4948  -49.1863 C.ar      23 UNK        -0.1150 
     11 C11        -7.2868  -18.8681  -49.2737 C.ar      23 UNK        -0.0193 
     12 C12        -6.7109  -19.7251  -48.3335 C.ar      23 UNK        -0.1150 
     13 C13        -5.9212  -19.2186  -47.2957 C.ar      23 UNK        -0.0193 
     14 C14        -5.6828  -17.8400  -47.2235 C.ar      23 UNK        -0.1150 
     15 C15        -5.4163  -20.1635  -46.2117 C.3       23 UNK        -0.0205 
     16 S16        -3.6137  -20.1043  -45.9684 S.3       23 UNK        -0.2404 
     17 C17        -3.3937  -21.5231  -44.8347 C.3       23 UNK        -0.0398 
     18 CA         -2.2608  -22.4421  -45.3367 C.3       11 UNK         0.1400 
     19 N          -0.9411  -21.8367  -45.1426 N.am      11 UNK        -0.5000 
     20 C           0.1690  -22.1909  -45.7991 C.2       10 UNK         0.5000 
     21 O           0.2054  -23.0628  -46.6679 O.2       10 UNK        -0.5000 
     22 CA          1.4602  -21.4702  -45.3885 C.3       10 UNK         0.1400 
     23 CB          1.5609  -20.1131  -46.0943 C.3       10 UNK        -0.1800 
     24 N           1.5441  -21.2957  -43.9355 N.am      10 UNK        -0.5000 
     25 C           1.8168  -22.3083  -43.0991 C.2       9 UNK         0.5000 
     26 O           2.0129  -23.4620  -43.4796 O.2       9 UNK        -0.5000 
     27 CA          1.8542  -22.0123  -41.5876 C.3       9 UNK         0.1400 
     28 CB          3.2714  -21.6091  -41.1533 C.3       9 UNK        -0.1800 
     29 N           0.9000  -21.0080  -41.1120 N.am      9 UNK        -0.5000 
     30 C          -0.4288  -21.0511  -41.2747 C.2       8 UNK         0.5000 
     31 O          -1.0004  -21.8788  -41.9870 O.2       8 UNK        -0.5000 
     32 CA         -1.2724  -20.0116  -40.5184 C.3       8 UNK         0.1400 
     33 CB         -0.4639  -18.8847  -39.8434 C.3       8 UNK        -0.1800 
     34 N          -2.2220  -19.4326  -41.4554 N.am      8 UNK        -0.5000 
     35 C          -3.4942  -19.1101  -41.1964 C.2       7 UNK         0.5000 
     36 O          -4.0297  -19.2823  -40.1001 O.2       7 UNK        -0.5000 
     37 CA         -4.3116  -18.5112  -42.3651 C.3       7 UNK         0.1400 
     38 CB         -5.3168  -17.4372  -41.9011 C.3       7 UNK        -0.1800 
     39 N          -3.4823  -18.0136  -43.4714 N.am      7 UNK        -0.5000 
     40 C          -2.5845  -17.0202  -43.4291 C.2       6 UNK         0.5000 
     41 O          -2.3798  -16.3032  -42.4470 O.2       6 UNK        -0.5000 
     42 CA         -1.7639  -16.8086  -44.7115 C.3       6 UNK         0.1400 
     43 CB         -2.2892  -15.5866  -45.4725 C.3       6 UNK        -0.1800 
     44 N          -0.3435  -16.6178  -44.4299 N.am      6 UNK        -0.5000 
     45 C           0.4643  -17.4842  -43.8086 C.2       5 UNK         0.5000 
     46 O           0.1194  -18.6193  -43.4634 O.2       5 UNK        -0.5000 
     47 CA          1.9119  -17.0006  -43.5715 C.3       5 UNK         0.1400 
     48 CB          2.6948  -17.9328  -42.6303 C.3       5 UNK        -0.1800 
     49 N           2.6767  -16.8599  -44.8132 N.am      5 UNK        -0.5000 
     50 C           2.5100  -15.9198  -45.7523 C.2       4 UNK         0.5000 
     51 O           1.6622  -15.0251  -45.6816 O.2       4 UNK        -0.5000 
     52 CA          3.4666  -15.9806  -46.9564 C.3       4 UNK         0.1400 
     53 CB          3.6153  -17.3985  -47.5428 C.3       4 UNK        -0.1800 
     54 N           3.0027  -15.0554  -47.9842 N.am      4 UNK        -0.5000 
     55 C           3.7787  -14.4345  -48.8811 C.2       3 UNK         0.5000 
     56 O           4.9868  -14.6441  -48.9994 O.2       3 UNK        -0.5000 
     57 CA          3.1055  -13.3833  -49.7894 C.3       3 UNK         0.1400 
     58 CB          2.8086  -13.9833  -51.1718 C.3       3 UNK        -0.1800 
     59 N           1.8637  -12.8457  -49.2304 N.am      3 UNK        -0.5000 
     60 C           1.7729  -12.0832  -48.1328 C.2       2 UNK         0.5000 
     61 O           2.7609  -11.6439  -47.5422 O.2       2 UNK        -0.5000 
     62 CA          0.3620  -11.7611  -47.5832 C.3       2 UNK         0.1400 
     63 CB          0.2029  -10.2548  -47.3133 C.3       2 UNK        -0.1800 
     64 N          -0.7749  -12.1993  -48.4026 N.am      2 UNK        -0.5000 
     65 C          -1.1263  -13.4585  -48.6998 C.2       1 UNK         0.5000 
     66 O          -0.4446  -14.4315  -48.3843 O.2       1 UNK        -0.5000 
     67 C          -2.3397  -23.8609  -44.7445 C.2       11 UNK         0.5000 
     68 O          -3.0255  -24.7103  -45.3137 O.2       11 UNK        -0.5000 
     69 N          -1.6008  -24.1126  -43.6562 N.am      12 UNK        -0.5000 
     70 CA         -1.3900  -25.4469  -43.0970 C.3       12 UNK         0.1400 
     71 CB         -0.7132  -25.3237  -41.7237 C.3       12 UNK        -0.1800 
     72 C          -0.5649  -26.3499  -44.0356 C.2       12 UNK         0.5000 
     73 O          -0.8483  -27.5450  -44.1251 O.2       12 UNK        -0.5000 
     74 N           0.4298  -25.7647  -44.7190 N.am      13 UNK        -0.5000 
     75 CA          1.2909  -26.4505  -45.6787 C.3       13 UNK         0.1400 
     76 CB          2.5621  -25.6235  -45.9323 C.3       13 UNK        -0.1800 
     77 C           0.5705  -26.7819  -46.9974 C.2       13 UNK         0.5000 
     78 O           0.5317  -27.9540  -47.3760 O.2       13 UNK        -0.5000 
     79 N           0.0355  -25.7606  -47.6842 N.am      14 UNK        -0.5000 
     80 CA         -0.5383  -25.9143  -49.0277 C.3       14 UNK         0.1400 
     81 CB          0.5972  -26.0601  -50.0629 C.3       14 UNK        -0.1800 
     82 C          -1.4870  -24.7853  -49.4682 C.2       14 UNK         0.5000 
     83 O          -2.2108  -24.9813  -50.4439 O.2       14 UNK        -0.5000 
     84 N          -1.4301  -23.6097  -48.8249 N.am      15 UNK        -0.5000 
     85 CA         -2.1285  -22.3509  -49.1445 C.3       15 UNK         0.1400 
     86 CB         -3.6606  -22.5090  -49.1295 C.3       15 UNK        -0.1800 
     87 C          -1.6485  -21.6599  -50.4333 C.2       15 UNK         0.5000 
     88 O          -1.6421  -20.4304  -50.4808 O.2       15 UNK        -0.5000 
     89 N          -1.1896  -22.4342  -51.4241 N.am      16 UNK        -0.5000 
     90 CA         -0.6189  -21.9723  -52.6914 C.3       16 UNK         0.1400 
     91 CB         -0.3042  -23.1909  -53.5709 C.3       16 UNK        -0.1800 
     92 C           0.6354  -21.0896  -52.5323 C.2       16 UNK         0.5000 
     93 O           0.8947  -20.2477  -53.3897 O.2       16 UNK        -0.5000 
     94 N           1.3737  -21.2648  -51.4284 N.am      17 UNK        -0.5000 
     95 CA          2.5154  -20.4256  -51.0589 C.3       17 UNK         0.1400 
     96 CB          3.2754  -21.1015  -49.9066 C.3       17 UNK        -0.1800 
     97 C           2.1151  -18.9859  -50.6729 C.2       17 UNK         0.5000 
     98 O           2.9233  -18.0724  -50.8366 O.2       17 UNK        -0.5000 
     99 N           0.8872  -18.8164  -50.1660 N.am      18 UNK        -0.5000 
    100 CA         0.3311  -17.5444  -49.7183 C.3       18 UNK         0.1400 
    101 CB        -0.3984  -17.7691  -48.3780 C.3       18 UNK        -0.1800 
    102 C         -0.6199  -16.9645  -50.7755 C.2       18 UNK         0.5000 
    103 O         -0.3761  -15.8786  -51.2992 O.2       18 UNK        -0.5000 
    104 N         -1.7033  -17.6969  -51.0490 N.am      19 UNK        -0.5000 
    105 CA        -2.8692  -17.2245  -51.7913 C.3       19 UNK         0.1400 
    106 CB        -4.1005  -17.8947  -51.1725 C.3       19 UNK        -0.1800 
    107 C         -2.8146  -17.5202  -53.2995 C.2       19 UNK         0.5000 
    108 O         -3.6525  -16.9975  -54.0357 O.2       19 UNK        -0.5000 
    109 N         -1.8645  -18.3622  -53.7319 N.am      20 UNK        -0.5000 
    110 CA        -1.6676  -18.8761  -55.0933 C.3       20 UNK         0.1400 
    111 CB        -1.3618  -17.7458  -56.0981 C.3       20 UNK        -0.1800 
    112 C         -2.8169  -19.7885  -55.5600 C.2       20 UNK         0.5000 
    113 O         -2.6449  -21.0075  -55.6072 O.2       20 UNK        -0.5000 
    114 N         -3.9709  -19.1882  -55.8759 N.am      21 UNK        -0.5000 
    115 CA        -5.1568  -19.8439  -56.4333 C.3       21 UNK         0.1400 
    116 CB        -6.1910  -18.7685  -56.7990 C.3       21 UNK        -0.1800 
    117 C         -5.7882  -20.9054  -55.5125 C.2       21 UNK         0.5000 
    118 O         -6.4037  -21.8482  -56.0121 O.2       21 UNK        -0.5000 
    119 N         -5.6183  -20.7399  -54.1956 N.am      22 UNK        -0.5000 
    120 CA        -6.1010  -21.6748  -53.1655 C.3       22 UNK         0.1400 
    121 C         -5.2061  -22.9358  -52.9813 C.2       22 UNK         0.5000 
    122 N         -4.0519  -23.0438  -53.6303 N.am      22 UNK        -0.7600 
    123 O         -5.5766  -23.8441  -52.2438 O.2       22 UNK        -0.5000 
    124 C124       -6.3581  -20.9707  -51.8075 C.3       23 UNK        -0.0398 
    125 S125       -7.4194  -19.4931  -51.9767 S.3       23 UNK        -0.2404 
    126 C126       -8.2188  -19.4120  -50.3466 C.3       23 UNK        -0.0205 
    127 H127       -4.2727  -10.2855  -50.6223 H         1 UNK         0.0600 
    128 H128       -3.8287  -10.4955  -52.3182 H         1 UNK         0.0600 
    129 H129       -2.7903   -9.5532  -51.2431 H         1 UNK         0.0600 
    130 H130       -3.8848  -12.1205  -49.4167 H         1 UNK         0.3000 
    131 H131       -2.2015  -14.2484  -50.3625 H         1 UNK         0.0600 
    132 H132       -3.6124  -14.0488  -47.6651 H         1 UNK         0.0800 
    133 H133       -3.0016  -15.5084  -48.4205 H         1 UNK         0.0800 
    134 H134       -7.0213  -14.9839  -48.0957 H         1 UNK         0.0800 
    135 H135       -5.6033  -15.1950  -47.1092 H         1 UNK         0.0800 
    136 H136       -7.4974  -16.8271  -49.9076 H         1 UNK         0.1150 
    137 H137       -6.9132  -20.7856  -48.3878 H         1 UNK         0.1150 
    138 H138       -5.0870  -17.4430  -46.4144 H         1 UNK         0.1150 
    139 H139       -5.7014  -21.1892  -46.4513 H         1 UNK         0.0800 
    140 H140       -5.9126  -19.9166  -45.2722 H         1 UNK         0.0800 
    141 H141       -3.1822  -21.1601  -43.8281 H         1 UNK         0.0800 
    142 H142       -4.3327  -22.0752  -44.7649 H         1 UNK         0.0800 
    143 H143       -2.4108  -22.5841  -46.4038 H         1 UNK         0.0600 
    144 H144       -0.8645  -21.1423  -44.4131 H         1 UNK         0.3000 
    145 H145        2.3054  -22.0799  -45.7154 H         1 UNK         0.0600 
    146 H146        1.6058  -20.2370  -47.1762 H         1 UNK         0.0600 
    147 H147        2.4586  -19.5792  -45.7878 H         1 UNK         0.0600 
    148 H148        0.6980  -19.4846  -45.8808 H         1 UNK         0.0600 
    149 H149        1.3063  -20.3852  -43.5592 H         1 UNK         0.3000 
    150 H150        1.6061  -22.9451  -41.0781 H         1 UNK         0.0600 
    151 H151        3.5711  -20.6541  -41.5843 H         1 UNK         0.0600 
    152 H152        4.0035  -22.3543  -41.4679 H         1 UNK         0.0600 
    153 H153        3.3433  -21.5252  -40.0688 H         1 UNK         0.0600 
    154 H154        1.2801  -20.2755  -40.5314 H         1 UNK         0.3000 
    155 H155       -1.8085  -20.5642  -39.7444 H         1 UNK         0.0600 
    156 H156       -1.1251  -18.2032  -39.3078 H         1 UNK         0.0600 
    157 H157        0.0889  -18.2932  -40.5732 H         1 UNK         0.0600 
    158 H158        0.2437  -19.2778  -39.1127 H         1 UNK         0.0600 
    159 H159       -1.8518  -19.2597  -42.3808 H         1 UNK         0.3000 
    160 H160       -4.8896  -19.3401  -42.7760 H         1 UNK         0.0600 
    161 H161       -4.8209  -16.6053  -41.4006 H         1 UNK         0.0600 
    162 H162       -6.0393  -17.8546  -41.1990 H         1 UNK         0.0600 
    163 H163       -5.8805  -17.0353  -42.7431 H         1 UNK         0.0600 
    164 H164       -3.5631  -18.5412  -44.3322 H         1 UNK         0.3000 
    165 H165       -1.8539  -17.6869  -45.3536 H         1 UNK         0.0600 
    166 H166       -1.7053  -15.4148  -46.3728 H         1 UNK         0.0600 
    167 H167       -3.3282  -15.7286  -45.7706 H         1 UNK         0.0600 
    168 H168       -2.2383  -14.6805  -44.8672 H         1 UNK         0.0600 
    169 H169        0.0682  -15.7456  -44.7453 H         1 UNK         0.3000 
    170 H170        1.8493  -16.0217  -43.0917 H         1 UNK         0.0600 
    171 H171        3.6710  -17.5137  -42.3858 H         1 UNK         0.0600 
    172 H172        2.8573  -18.9117  -43.0800 H         1 UNK         0.0600 
    173 H173        2.1660  -18.0823  -41.6892 H         1 UNK         0.0600 
    174 H174        3.3976  -17.5505  -44.9584 H         1 UNK         0.3000 
    175 H175        4.4414  -15.6443  -46.5976 H         1 UNK         0.0600 
    176 H176        4.0942  -18.0758  -46.8360 H         1 UNK         0.0600 
    177 H177        2.6515  -17.8262  -47.8131 H         1 UNK         0.0600 
    178 H178        4.2362  -17.3927  -48.4387 H         1 UNK         0.0600 
    179 H179        2.0297  -14.7826  -47.9004 H         1 UNK         0.3000 
    180 H180        3.8067  -12.5561  -49.9159 H         1 UNK         0.0600 
    181 H181        3.7230  -14.3416  -51.6462 H         1 UNK         0.0600 
    182 H182        2.3632  -13.2447  -51.8385 H         1 UNK         0.0600 
    183 H183        2.1249  -14.8301  -51.1019 H         1 UNK         0.0600 
    184 H184        1.0029  -13.2016  -49.6224 H         1 UNK         0.3000 
    185 H185        0.2860  -12.2831  -46.6271 H         1 UNK         0.0600 
    186 H186        0.9780   -9.8873  -46.6397 H         1 UNK         0.0600 
    187 H187        0.2665   -9.6752  -48.2350 H         1 UNK         0.0600 
    188 H188       -0.7565  -10.0363  -46.8438 H         1 UNK         0.0600 
    189 H189       -1.3827  -11.4660  -48.7366 H         1 UNK         0.3000 
    190 H190       -1.1410  -23.3372  -43.1861 H         1 UNK         0.3000 
    191 H191       -2.3669  -25.9135  -42.9543 H         1 UNK         0.0600 
    192 H192       -1.3034  -24.7065  -41.0460 H         1 UNK         0.0600 
    193 H193       -0.5977  -26.3027  -41.2573 H         1 UNK         0.0600 
    194 H194        0.2789  -24.8796  -41.8029 H         1 UNK         0.0600 
    195 H195        0.6367  -24.7898  -44.5418 H         1 UNK         0.3000 
    196 H196        1.6048  -27.3959  -45.2308 H         1 UNK         0.0600 
    197 H197        3.2130  -26.1197  -46.6532 H         1 UNK         0.0600 
    198 H198        3.1354  -25.4951  -45.0141 H         1 UNK         0.0600 
    199 H199        2.3360  -24.6323  -46.3240 H         1 UNK         0.0600 
    200 H200        0.0964  -24.8238  -47.2962 H         1 UNK         0.3000 
    201 H201       -1.1391  -26.8263  -49.0421 H         1 UNK         0.0600 
    202 H202        0.2022  -26.1543  -51.0755 H         1 UNK         0.0600 
    203 H203        1.2009  -26.9479  -49.8758 H         1 UNK         0.0600 
    204 H204        1.2617  -25.1954  -50.0492 H         1 UNK         0.0600 
    205 H205       -0.7681  -23.5173  -48.0580 H         1 UNK         0.3000 
    206 H206       -1.8661  -21.6587  -48.3440 H         1 UNK         0.0600 
    207 H207       -4.1492  -21.5372  -49.2125 H         1 UNK         0.0600 
    208 H208       -4.0167  -23.1228  -49.9569 H         1 UNK         0.0600 
    209 H209       -4.0048  -22.9652  -48.2016 H         1 UNK         0.0600 
    210 H210       -1.3020  -23.4353  -51.3089 H         1 UNK         0.3000 
    211 H211       -1.3812  -21.3726  -53.1903 H         1 UNK         0.0600 
    212 H212        0.4414  -23.8388  -53.1081 H         1 UNK         0.0600 
    213 H213        0.0840  -22.8810  -54.5421 H         1 UNK         0.0600 
    214 H214       -1.1968  -23.7875  -53.7566 H         1 UNK         0.0600 
    215 H215        1.1054  -21.9887  -50.7790 H         1 UNK         0.3000 
    216 H216        3.1862  -20.3600  -51.9183 H         1 UNK         0.0600 
    217 H217        4.1195  -20.4915  -49.5818 H         1 UNK         0.0600 
    218 H218        2.6343  -21.2641  -49.0403 H         1 UNK         0.0600 
    219 H219        3.6738  -22.0688  -50.2129 H         1 UNK         0.0600 
    220 H220        0.2576  -19.6085  -50.1455 H         1 UNK         0.3000 
    221 H221        1.1220  -16.8101  -49.5513 H         1 UNK         0.0600 
    222 H222       -1.0439  -18.6478  -48.3991 H         1 UNK         0.0600 
    223 H223        0.3114  -17.8956  -47.5632 H         1 UNK         0.0600 
    224 H224       -1.0262  -16.9192  -48.1176 H         1 UNK         0.0600 
    225 H225       -1.7816  -18.6284  -50.6457 H         1 UNK         0.3000 
    226 H226       -2.9709  -16.1443  -51.6703 H         1 UNK         0.0600 
    227 H227       -4.0489  -18.9760  -51.2812 H         1 UNK         0.0600 
    228 H228       -4.1757  -17.6754  -50.1078 H         1 UNK         0.0600 
    229 H229       -5.0219  -17.5497  -51.6429 H         1 UNK         0.0600 
    230 H230       -1.2247  -18.7236  -53.0384 H         1 UNK         0.3000 
    231 H231       -0.7807  -19.5058  -55.0649 H         1 UNK         0.0600 
    232 H232       -2.1851  -17.0395  -56.2033 H         1 UNK         0.0600 
    233 H233       -1.1579  -18.1543  -57.0885 H         1 UNK         0.0600 
    234 H234       -0.4797  -17.1828  -55.7929 H         1 UNK         0.0600 
    235 H235       -4.0409  -18.1933  -55.6929 H         1 UNK         0.3000 
    236 H236       -4.8510  -20.3511  -57.3506 H         1 UNK         0.0600 
    237 H237       -5.7871  -18.0625  -57.5248 H         1 UNK         0.0600 
    238 H238       -7.0815  -19.2158  -57.2429 H         1 UNK         0.0600 
    239 H239       -6.5090  -18.2040  -55.9214 H         1 UNK         0.0600 
    240 H240       -5.1142  -19.9288  -53.8714 H         1 UNK         0.3000 
    241 H241       -7.0667  -22.0562  -53.5032 H         1 UNK         0.0600 
    242 H242       -3.7402  -22.3279  -54.2740 H         1 UNK         0.3800 
    243 H243       -3.5016  -23.8765  -53.4998 H         1 UNK         0.3800 
    244 H244       -5.4201  -20.6842  -51.3352 H         1 UNK         0.0800 
    245 H245       -6.8381  -21.6660  -51.1168 H         1 UNK         0.0800 
    246 H246       -9.0913  -18.7613  -50.4213 H         1 UNK         0.0800 
    247 H247       -8.6021  -20.3955  -50.0709 H         1 UNK         0.0800 
@<TRIPOS>BOND
     1    1    2 1    
     2    1  127 1    
     3    1  128 1    
     4    1  129 1    
     5    2    3 2    
     6    2    4 am   BACKBONE|DICT|INTERRES
     7    4    5 1    
     8    4  130 1    
     9    5    6 1    
    10    5   65 1    
    11    5  131 1    
    12    6    7 1    
    13    6  132 1    
    14    6  133 1    
    15    7    8 1    
    16    8    9 1    
    17    8  134 1    
    18    8  135 1    
    19    9   10 ar   
    20    9   14 ar   
    21   10   11 ar   
    22   10  136 1    
    23   11   12 ar   
    24   11  126 1    
    25   12   13 ar   
    26   12  137 1    
    27   13   14 ar   
    28   13   15 1    
    29   14  138 1    
    30   15   16 1    
    31   15  139 1    
    32   15  140 1    
    33   16   17 1    
    34   17   18 1    
    35   17  141 1    
    36   17  142 1    
    37   18   19 1    
    38   18   67 1    
    39   18  143 1    
    40   19   20 am   BACKBONE|DICT|INTERRES
    41   19  144 1    
    42   20   21 2    
    43   20   22 1    
    44   22   23 1    
    45   22   24 1    
    46   22  145 1    
    47   23  146 1    
    48   23  147 1    
    49   23  148 1    
    50   24   25 am   BACKBONE|DICT|INTERRES
    51   24  149 1    
    52   25   26 2    
    53   25   27 1    
    54   27   28 1    
    55   27   29 1    
    56   27  150 1    
    57   28  151 1    
    58   28  152 1    
    59   28  153 1    
    60   29   30 am   BACKBONE|DICT|INTERRES
    61   29  154 1    
    62   30   31 2    
    63   30   32 1    
    64   32   33 1    
    65   32   34 1    
    66   32  155 1    
    67   33  156 1    
    68   33  157 1    
    69   33  158 1    
    70   34   35 am   BACKBONE|DICT|INTERRES
    71   34  159 1    
    72   35   36 2    
    73   35   37 1    
    74   37   38 1    
    75   37   39 1    
    76   37  160 1    
    77   38  161 1    
    78   38  162 1    
    79   38  163 1    
    80   39   40 am   BACKBONE|DICT|INTERRES
    81   39  164 1    
    82   40   41 2    
    83   40   42 1    
    84   42   43 1    
    85   42   44 1    
    86   42  165 1    
    87   43  166 1    
    88   43  167 1    
    89   43  168 1    
    90   44   45 am   BACKBONE|DICT|INTERRES
    91   44  169 1    
    92   45   46 2    
    93   45   47 1    
    94   47   48 1    
    95   47   49 1    
    96   47  170 1    
    97   48  171 1    
    98   48  172 1    
    99   48  173 1    
   100   49   50 am   BACKBONE|DICT|INTERRES
   101   49  174 1    
   102   50   51 2    
   103   50   52 1    
   104   52   53 1    
   105   52   54 1    
   106   52  175 1    
   107   53  176 1    
   108   53  177 1    
   109   53  178 1    
   110   54   55 am   BACKBONE|DICT|INTERRES
   111   54  179 1    
   112   55   56 2    
   113   55   57 1    
   114   57   58 1    
   115   57   59 1    
   116   57  180 1    
   117   58  181 1    
   118   58  182 1    
   119   58  183 1    
   120   59   60 am   BACKBONE|DICT|INTERRES
   121   59  184 1    
   122   60   61 2    
   123   60   62 1    
   124   62   63 1    
   125   62   64 1    
   126   62  185 1    
   127   63  186 1    
   128   63  187 1    
   129   63  188 1    
   130   64   65 am   BACKBONE|DICT|INTERRES
   131   64  189 1    
   132   65   66 2    
   133   67   68 2    
   134   67   69 am   BACKBONE|DICT|INTERRES
   135   69   70 1    
   136   69  190 1    
   137   70   71 1    
   138   70   72 1    
   139   70  191 1    
   140   71  192 1    
   141   71  193 1    
   142   71  194 1    
   143   72   73 2    
   144   72   74 am   BACKBONE|DICT|INTERRES
   145   74   75 1    
   146   74  195 1    
   147   75   76 1    
   148   75   77 1    
   149   75  196 1    
   150   76  197 1    
   151   76  198 1    
   152   76  199 1    
   153   77   78 2    
   154   77   79 am   BACKBONE|DICT|INTERRES
   155   79   80 1    
   156   79  200 1    
   157   80   81 1    
   158   80   82 1    
   159   80  201 1    
   160   81  202 1    
   161   81  203 1    
   162   81  204 1    
   163   82   83 2    
   164   82   84 am   BACKBONE|DICT|INTERRES
   165   84   85 1    
   166   84  205 1    
   167   85   86 1    
   168   85   87 1    
   169   85  206 1    
   170   86  207 1    
   171   86  208 1    
   172   86  209 1    
   173   87   88 2    
   174   87   89 am   BACKBONE|DICT|INTERRES
   175   89   90 1    
   176   89  210 1    
   177   90   91 1    
   178   90   92 1    
   179   90  211 1    
   180   91  212 1    
   181   91  213 1    
   182   91  214 1    
   183   92   93 2    
   184   92   94 am   BACKBONE|DICT|INTERRES
   185   94   95 1    
   186   94  215 1    
   187   95   96 1    
   188   95   97 1    
   189   95  216 1    
   190   96  217 1    
   191   96  218 1    
   192   96  219 1    
   193   97   98 2    
   194   97   99 am   BACKBONE|DICT|INTERRES
   195   99  100 1    
   196   99  220 1    
   197  100  101 1    
   198  100  102 1    
   199  100  221 1    
   200  101  222 1    
   201  101  223 1    
   202  101  224 1    
   203  102  103 2    
   204  102  104 am   BACKBONE|DICT|INTERRES
   205  104  105 1    
   206  104  225 1    
   207  105  106 1    
   208  105  107 1    
   209  105  226 1    
   210  106  227 1    
   211  106  228 1    
   212  106  229 1    
   213  107  108 2    
   214  107  109 am   BACKBONE|DICT|INTERRES
   215  109  110 1    
   216  109  230 1    
   217  110  111 1    
   218  110  112 1    
   219  110  231 1    
   220  111  232 1    
   221  111  233 1    
   222  111  234 1    
   223  112  113 2    
   224  112  114 am   BACKBONE|DICT|INTERRES
   225  114  115 1    
   226  114  235 1    
   227  115  116 1    
   228  115  117 1    
   229  115  236 1    
   230  116  237 1    
   231  116  238 1    
   232  116  239 1    
   233  117  118 2    
   234  117  119 am   BACKBONE|DICT|INTERRES
   235  119  120 1    
   236  119  240 1    
   237  120  121 1    
   238  120  124 1    
   239  120  241 1    
   240  121  122 am   BACKBONE|DICT|INTERRES
   241  121  123 2    
   242  122  242 1    
   243  122  243 1    
   244  124  125 1    
   245  124  244 1    
   246  124  245 1    
   247  125  126 1    
   248  126  246 1    
   249  126  247 1    
@<TRIPOS>SUBSTRUCTURE
     1 UNK         1 GROUP             0       ****    0 ROOT    
