@<TRIPOS>MOLECULE
3R540
247   249    1
SMALL
USER_CHARGES


@<TRIPOS>ATOM
      1 CA          2.5379  -13.0206  -46.8508 C.3       0 UNK        -0.1800 
      2 C           1.1009  -12.6469  -46.5163 C.2       0 UNK         0.5000 
      3 O           0.6989  -11.5082  -46.7547 O.2       0 UNK        -0.5000 
      4 N           0.3330  -13.6019  -45.9722 N.am      1 UNK        -0.5000 
      5 CA         -1.0733  -13.4601  -45.5549 C.3       1 UNK         0.1400 
      6 C6         -2.0663  -13.3226  -46.7420 C.3       23 UNK        -0.0398 
      7 S7         -2.1561  -14.8502  -47.7382 S.3       23 UNK        -0.2404 
      8 C8         -1.1004  -14.3994  -49.1481 C.3       23 UNK        -0.0205 
      9 C9         -0.7526  -15.6051  -50.0063 C.ar      23 UNK        -0.0193 
     10 C10        -1.1921  -15.6890  -51.3309 C.ar      23 UNK        -0.1150 
     11 C11        -0.8085  -16.7608  -52.1440 C.ar      23 UNK        -0.0193 
     12 C12         0.0141  -17.7606  -51.6082 C.ar      23 UNK        -0.1150 
     13 C13         0.4415  -17.7000  -50.2786 C.ar      23 UNK        -0.0193 
     14 C14         0.0603  -16.6155  -49.4872 C.ar      23 UNK        -0.1150 
     15 C15         1.3421  -18.7863  -49.7060 C.3       23 UNK        -0.0205 
     16 S16         0.4814  -19.8470  -48.5002 S.3       23 UNK        -0.2404 
     17 C17        -0.7553  -20.6777  -49.5568 C.3       23 UNK        -0.0398 
     18 CA         -2.0443  -21.0639  -48.7944 C.3       11 UNK         0.1400 
     19 N          -2.6159  -19.9239  -48.0592 N.am      11 UNK        -0.5000 
     20 C          -3.6361  -19.9810  -47.1920 C.2       10 UNK         0.5000 
     21 O          -4.3202  -20.9904  -47.0226 O.2       10 UNK        -0.5000 
     22 CA         -3.9508  -18.6959  -46.3984 C.3       10 UNK         0.1400 
     23 CB         -4.8220  -18.9682  -45.1544 C.3       10 UNK        -0.1800 
     24 N          -2.7573  -17.9256  -46.0289 N.am      10 UNK        -0.5000 
     25 C          -1.7144  -18.3470  -45.2979 C.2       9 UNK         0.5000 
     26 O          -1.5866  -19.4870  -44.8460 O.2       9 UNK        -0.5000 
     27 CA         -0.6387  -17.2968  -45.0097 C.3       9 UNK         0.1400 
     28 CB         -0.7871  -16.7171  -43.5931 C.3       9 UNK        -0.1800 
     29 N           0.6774  -17.9020  -45.1482 N.am      9 UNK        -0.5000 
     30 C           1.7036  -17.3352  -45.7882 C.2       8 UNK         0.5000 
     31 O           1.6506  -16.2120  -46.2913 O.2       8 UNK        -0.5000 
     32 CA          3.0067  -18.1468  -45.8247 C.3       8 UNK         0.1400 
     33 CB          4.1349  -17.4366  -46.5952 C.3       8 UNK        -0.1800 
     34 N           3.4359  -18.3699  -44.4497 N.am      8 UNK        -0.5000 
     35 C           3.7870  -19.5445  -43.9129 C.2       7 UNK         0.5000 
     36 O           3.8238  -20.5993  -44.5473 O.2       7 UNK        -0.5000 
     37 CA          4.1657  -19.5544  -42.4154 C.3       7 UNK         0.1400 
     38 CB          5.6910  -19.6410  -42.2491 C.3       7 UNK        -0.1800 
     39 N           3.6800  -18.3845  -41.6802 N.am      7 UNK        -0.5000 
     40 C           2.3960  -18.1411  -41.3840 C.2       6 UNK         0.5000 
     41 O           1.4839  -18.9354  -41.6131 O.2       6 UNK        -0.5000 
     42 CA          2.0685  -16.7730  -40.7490 C.3       6 UNK         0.1400 
     43 CB          1.8653  -16.9175  -39.2335 C.3       6 UNK        -0.1800 
     44 N           3.0561  -15.7149  -40.9967 N.am      6 UNK        -0.5000 
     45 C           3.4156  -15.2475  -42.2021 C.2       5 UNK         0.5000 
     46 O           3.0438  -15.7516  -43.2609 O.2       5 UNK        -0.5000 
     47 CA          4.3291  -14.0097  -42.2191 C.3       5 UNK         0.1400 
     48 CB          4.2921  -13.2640  -43.5664 C.3       5 UNK        -0.1800 
     49 N           3.9383  -13.0885  -41.1549 N.am      5 UNK        -0.5000 
     50 C           4.7721  -12.4659  -40.3120 C.2       4 UNK         0.5000 
     51 O           5.9934  -12.6248  -40.3242 O.2       4 UNK        -0.5000 
     52 CA          4.1540  -11.4893  -39.2875 C.3       4 UNK         0.1400 
     53 CB          4.5043  -10.0380  -39.6530 C.3       4 UNK        -0.1800 
     54 N           2.6985  -11.5995  -39.1740 N.am      4 UNK        -0.5000 
     55 C           2.0446  -12.5954  -38.5613 C.2       3 UNK         0.5000 
     56 O           2.6053  -13.5147  -37.9649 O.2       3 UNK        -0.5000 
     57 CA          0.5057  -12.5812  -38.6727 C.3       3 UNK         0.1400 
     58 CB         -0.1155  -11.8982  -37.4450 C.3       3 UNK        -0.1800 
     59 N           0.0006  -11.9337  -39.8916 N.am      3 UNK        -0.5000 
     60 C           0.2514  -12.3593  -41.1363 C.2       2 UNK         0.5000 
     61 O           0.9730  -13.3257  -41.3915 O.2       2 UNK        -0.5000 
     62 CA         -0.3617  -11.5549  -42.2887 C.3       2 UNK         0.1400 
     63 CB          0.4623  -10.2875  -42.5733 C.3       2 UNK        -0.1800 
     64 N          -0.3657  -12.4072  -43.4706 N.am      2 UNK        -0.5000 
     65 C          -1.2518  -12.3725  -44.4700 C.2       1 UNK         0.5000 
     66 O          -2.1657  -11.5486  -44.5436 O.2       1 UNK        -0.5000 
     67 C          -3.0366  -21.7617  -49.7522 C.2       11 UNK         0.5000 
     68 O          -2.8133  -22.9126  -50.1257 O.2       11 UNK        -0.5000 
     69 N          -4.1162  -21.0672  -50.1337 N.am      12 UNK        -0.5000 
     70 CA         -5.2216  -21.6264  -50.9094 C.3       12 UNK         0.1400 
     71 CB         -6.0438  -20.4745  -51.5026 C.3       12 UNK        -0.1800 
     72 C          -6.1298  -22.5608  -50.0850 C.2       12 UNK         0.5000 
     73 O          -6.8051  -23.4055  -50.6713 O.2       12 UNK        -0.5000 
     74 N          -6.1418  -22.3923  -48.7564 N.am      13 UNK        -0.5000 
     75 CA         -6.9406  -23.1792  -47.8200 C.3       13 UNK         0.1400 
     76 CB         -7.6734  -22.2297  -46.8585 C.3       13 UNK        -0.1800 
     77 C          -6.0584  -24.1632  -47.0386 C.2       13 UNK         0.5000 
     78 O          -6.4269  -25.3311  -46.9142 O.2       13 UNK        -0.5000 
     79 N          -4.9094  -23.6839  -46.5394 N.am      14 UNK        -0.5000 
     80 CA         -3.9298  -24.4272  -45.7456 C.3       14 UNK         0.1400 
     81 CB         -2.8459  -23.4550  -45.2513 C.3       14 UNK        -0.1800 
     82 C          -3.3244  -25.5945  -46.5446 C.2       14 UNK         0.5000 
     83 O          -2.4465  -25.3767  -47.3815 O.2       14 UNK        -0.5000 
     84 N          -3.8770  -26.7980  -46.3275 N.am      15 UNK        -0.5000 
     85 CA         -3.5906  -28.0616  -47.0237 C.3       15 UNK         0.1400 
     86 CB         -2.1587  -28.5362  -46.6997 C.3       15 UNK        -0.1800 
     87 C          -3.8529  -28.0210  -48.5481 C.2       15 UNK         0.5000 
     88 O          -3.3940  -28.9116  -49.2650 O.2       15 UNK        -0.5000 
     89 N          -4.5566  -26.9763  -49.0159 N.am      16 UNK        -0.5000 
     90 CA         -4.7462  -26.5753  -50.4145 C.3       16 UNK         0.1400 
     91 CB         -5.7008  -27.5558  -51.1261 C.3       16 UNK        -0.1800 
     92 C          -3.4148  -26.3694  -51.1779 C.2       16 UNK         0.5000 
     93 O          -3.3647  -26.5930  -52.3885 O.2       16 UNK        -0.5000 
     94 N          -2.3582  -25.9654  -50.4543 N.am      17 UNK        -0.5000 
     95 CA         -0.9607  -25.9455  -50.8957 C.3       17 UNK         0.1400 
     96 CB         -0.0808  -25.4346  -49.7445 C.3       17 UNK        -0.1800 
     97 C          -0.6809  -25.1416  -52.1782 C.2       17 UNK         0.5000 
     98 O           0.1489  -25.5664  -52.9837 O.2       17 UNK        -0.5000 
     99 N          -1.3757  -24.0115  -52.3457 N.am      18 UNK        -0.5000 
    100 CA        -1.2541  -23.1217  -53.5011 C.3       18 UNK         0.1400 
    101 CB        -0.6255  -21.7951  -53.0444 C.3       18 UNK        -0.1800 
    102 C         -2.6087  -22.8903  -54.1925 C.2       18 UNK         0.5000 
    103 O         -2.7261  -21.9463  -54.9737 O.2       18 UNK        -0.5000 
    104 N         -3.6128  -23.7353  -53.9106 N.am      19 UNK        -0.5000 
    105 CA        -5.0050  -23.5816  -54.3565 C.3       19 UNK         0.1400 
    106 CB        -5.8443  -24.7355  -53.7935 C.3       19 UNK        -0.1800 
    107 C         -5.1978  -23.4818  -55.8810 C.2       19 UNK         0.5000 
    108 O         -6.1138  -22.7923  -56.3300 O.2       19 UNK        -0.5000 
    109 N         -4.3132  -24.1349  -56.6455 N.am      20 UNK        -0.5000 
    110 CA        -4.2912  -24.1101  -58.1090 C.3       20 UNK         0.1400 
    111 CB        -3.2911  -25.1658  -58.6053 C.3       20 UNK        -0.1800 
    112 C         -3.9569  -22.7287  -58.7106 C.2       20 UNK         0.5000 
    113 O         -4.3233  -22.4762  -59.8594 O.2       20 UNK        -0.5000 
    114 N         -3.2712  -21.8720  -57.9419 N.am      21 UNK        -0.5000 
    115 CA        -2.8737  -20.5237  -58.3452 C.3       21 UNK         0.1400 
    116 CB        -1.3528  -20.3795  -58.1701 C.3       21 UNK        -0.1800 
    117 C         -3.6080  -19.4525  -57.5242 C.2       21 UNK         0.5000 
    118 O         -4.0746  -18.4648  -58.0934 O.2       21 UNK        -0.5000 
    119 N         -3.6784  -19.6567  -56.2049 N.am      22 UNK        -0.5000 
    120 CA        -4.1678  -18.6797  -55.2206 C.3       22 UNK         0.1400 
    121 C         -5.6788  -18.8222  -54.8843 C.2       22 UNK         0.5000 
    122 N         -6.3816  -19.8444  -55.3578 N.am      22 UNK        -0.7600 
    123 O         -6.2317  -17.9760  -54.1878 O.2       22 UNK        -0.5000 
    124 C124       -3.2972  -18.6992  -53.9342 C.3       23 UNK        -0.0398 
    125 S125       -1.5286  -18.4285  -54.3046 S.3       23 UNK        -0.2404 
    126 C126       -1.2193  -16.7685  -53.6156 C.3       23 UNK        -0.0205 
    127 H127        3.2097  -12.1967  -46.6100 H         1 UNK         0.0600 
    128 H128        2.6307  -13.2415  -47.9140 H         1 UNK         0.0600 
    129 H129        2.8677  -13.8938  -46.2884 H         1 UNK         0.0600 
    130 H130        0.7375  -14.5297  -45.8698 H         1 UNK         0.3000 
    131 H131       -1.3287  -14.3832  -45.0391 H         1 UNK         0.0600 
    132 H132       -3.0777  -13.1354  -46.3777 H         1 UNK         0.0800 
    133 H133       -1.8115  -12.4694  -47.3722 H         1 UNK         0.0800 
    134 H134       -0.1727  -13.9559  -48.7873 H         1 UNK         0.0800 
    135 H135       -1.6019  -13.6310  -49.7383 H         1 UNK         0.0800 
    136 H136       -1.8063  -14.8993  -51.7407 H         1 UNK         0.1150 
    137 H137        0.3367  -18.5838  -52.2296 H         1 UNK         0.1150 
    138 H138        0.4031  -16.5515  -48.4656 H         1 UNK         0.1150 
    139 H139        1.7532  -19.4096  -50.5017 H         1 UNK         0.0800 
    140 H140        2.1956  -18.3177  -49.2148 H         1 UNK         0.0800 
    141 H141       -0.2846  -21.5648  -49.9847 H         1 UNK         0.0800 
    142 H142       -1.0069  -20.0274  -50.3941 H         1 UNK         0.0800 
    143 H143       -1.7696  -21.8103  -48.0472 H         1 UNK         0.0600 
    144 H144       -2.0984  -19.0596  -48.1290 H         1 UNK         0.3000 
    145 H145       -4.5284  -18.0611  -47.0716 H         1 UNK         0.0600 
    146 H146       -5.7774  -19.4139  -45.4339 H         1 UNK         0.0600 
    147 H147       -4.3327  -19.6531  -44.4609 H         1 UNK         0.0600 
    148 H148       -5.0417  -18.0460  -44.6166 H         1 UNK         0.0600 
    149 H149       -2.7446  -16.9735  -46.3709 H         1 UNK         0.3000 
    150 H150       -0.7549  -16.4946  -45.7378 H         1 UNK         0.0600 
    151 H151       -1.7684  -16.2621  -43.4544 H         1 UNK         0.0600 
    152 H152       -0.0375  -15.9485  -43.4020 H         1 UNK         0.0600 
    153 H153       -0.6738  -17.4898  -42.8318 H         1 UNK         0.0600 
    154 H154        0.7688  -18.8361  -44.7713 H         1 UNK         0.3000 
    155 H155        2.7843  -19.0920  -46.3241 H         1 UNK         0.0600 
    156 H156        4.3940  -16.4818  -46.1354 H         1 UNK         0.0600 
    157 H157        3.8403  -17.2370  -47.6259 H         1 UNK         0.0600 
    158 H158        5.0358  -18.0493  -46.6258 H         1 UNK         0.0600 
    159 H159        3.3785  -17.5475  -43.8536 H         1 UNK         0.3000 
    160 H160        3.7213  -20.4474  -41.9709 H         1 UNK         0.0600 
    161 H161        6.1912  -18.7667  -42.6676 H         1 UNK         0.0600 
    162 H162        6.0904  -20.5210  -42.7550 H         1 UNK         0.0600 
    163 H163        5.9701  -19.7181  -41.1981 H         1 UNK         0.0600 
    164 H164        4.3618  -17.6764  -41.4516 H         1 UNK         0.3000 
    165 H165        1.1255  -16.4378  -41.1847 H         1 UNK         0.0600 
    166 H166        1.5096  -15.9859  -38.7934 H         1 UNK         0.0600 
    167 H167        1.1229  -17.6843  -39.0079 H         1 UNK         0.0600 
    168 H168        2.7911  -17.1965  -38.7290 H         1 UNK         0.0600 
    169 H169        3.4043  -15.2322  -40.1807 H         1 UNK         0.3000 
    170 H170        5.3444  -14.3751  -42.0537 H         1 UNK         0.0600 
    171 H171        4.6175  -13.9095  -44.3833 H         1 UNK         0.0600 
    172 H172        3.2855  -12.9147  -43.8004 H         1 UNK         0.0600 
    173 H173        4.9534  -12.3976  -43.5560 H         1 UNK         0.0600 
    174 H174        2.9374  -12.9516  -41.0566 H         1 UNK         0.3000 
    175 H175        4.5960  -11.7138  -38.3145 H         1 UNK         0.0600 
    176 H176        4.1280   -9.3404  -38.9044 H         1 UNK         0.0600 
    177 H177        4.0845   -9.7543  -40.6190 H         1 UNK         0.0600 
    178 H178        5.5845   -9.8975  -39.7106 H         1 UNK         0.0600 
    179 H179        2.1543  -10.8869  -39.6372 H         1 UNK         0.3000 
    180 H180        0.1735  -13.6215  -38.6890 H         1 UNK         0.0600 
    181 H181       -1.2035  -11.9644  -37.4645 H         1 UNK         0.0600 
    182 H182        0.1571  -10.8435  -37.3903 H         1 UNK         0.0600 
    183 H183        0.2205  -12.3726  -36.5219 H         1 UNK         0.0600 
    184 H184       -0.5906  -11.1256  -39.7582 H         1 UNK         0.3000 
    185 H185       -1.3850  -11.2849  -42.0195 H         1 UNK         0.0600 
    186 H186        0.0406   -9.7227  -43.4049 H         1 UNK         0.0600 
    187 H187        0.4794   -9.6249  -41.7073 H         1 UNK         0.0600 
    188 H188        1.4959  -10.5292  -42.8257 H         1 UNK         0.0600 
    189 H189        0.3347  -13.1385  -43.4484 H         1 UNK         0.3000 
    190 H190       -4.2242  -20.1221  -49.7968 H         1 UNK         0.3000 
    191 H191       -4.8010  -22.2097  -51.7288 H         1 UNK         0.0600 
    192 H192       -6.8162  -20.8510  -52.1745 H         1 UNK         0.0600 
    193 H193       -5.4157  -19.7965  -52.0776 H         1 UNK         0.0600 
    194 H194       -6.5388  -19.8904  -50.7258 H         1 UNK         0.0600 
    195 H195       -5.5138  -21.7125  -48.3401 H         1 UNK         0.3000 
    196 H196       -7.6954  -23.7607  -48.3536 H         1 UNK         0.0600 
    197 H197       -6.9787  -21.6127  -46.2874 H         1 UNK         0.0600 
    198 H198       -8.3427  -21.5623  -47.4016 H         1 UNK         0.0600 
    199 H199       -8.2801  -22.7886  -46.1449 H         1 UNK         0.0600 
    200 H200       -4.6856  -22.7045  -46.7034 H         1 UNK         0.3000 
    201 H201       -4.4418  -24.8296  -44.8692 H         1 UNK         0.0600 
    202 H202       -3.2763  -22.6583  -44.6440 H         1 UNK         0.0600 
    203 H203       -2.3133  -22.9876  -46.0794 H         1 UNK         0.0600 
    204 H204       -2.1080  -23.9721  -44.6370 H         1 UNK         0.0600 
    205 H205       -4.6458  -26.8427  -45.6721 H         1 UNK         0.3000 
    206 H206       -4.2855  -28.7979  -46.6179 H         1 UNK         0.0600 
    207 H207       -1.9868  -28.5662  -45.6238 H         1 UNK         0.0600 
    208 H208       -1.9816  -29.5420  -47.0821 H         1 UNK         0.0600 
    209 H209       -1.4062  -27.8824  -47.1419 H         1 UNK         0.0600 
    210 H210       -4.9210  -26.3323  -48.3255 H         1 UNK         0.3000 
    211 H211       -5.2306  -25.5995  -50.3862 H         1 UNK         0.0600 
    212 H212       -5.9544  -27.2064  -52.1268 H         1 UNK         0.0600 
    213 H213       -6.6360  -27.6620  -50.5764 H         1 UNK         0.0600 
    214 H214       -5.2581  -28.5466  -51.2301 H         1 UNK         0.0600 
    215 H215       -2.5048  -25.7530  -49.4730 H         1 UNK         0.3000 
    216 H216       -0.6806  -26.9806  -51.0998 H         1 UNK         0.0600 
    217 H217       -0.3689  -24.4280  -49.4377 H         1 UNK         0.0600 
    218 H218        0.9704  -25.4040  -50.0341 H         1 UNK         0.0600 
    219 H219       -0.1579  -26.0839  -48.8723 H         1 UNK         0.0600 
    220 H220       -2.0133  -23.7223  -51.6058 H         1 UNK         0.3000 
    221 H221       -0.6007  -23.5610  -54.2569 H         1 UNK         0.0600 
    222 H222        0.2892  -21.9605  -52.4752 H         1 UNK         0.0600 
    223 H223       -1.3141  -21.2200  -52.4260 H         1 UNK         0.0600 
    224 H224       -0.3619  -21.1761  -53.9025 H         1 UNK         0.0600 
    225 H225       -3.4136  -24.5312  -53.3168 H         1 UNK         0.3000 
    226 H226       -5.3815  -22.6485  -53.9341 H         1 UNK         0.0600 
    227 H227       -5.5030  -25.7006  -54.1701 H         1 UNK         0.0600 
    228 H228       -5.7935  -24.7636  -52.7066 H         1 UNK         0.0600 
    229 H229       -6.8952  -24.6271  -54.0649 H         1 UNK         0.0600 
    230 H230       -3.5897  -24.6698  -56.1879 H         1 UNK         0.3000 
    231 H231       -5.2859  -24.3878  -58.4638 H         1 UNK         0.0600 
    232 H232       -2.2780  -24.9520  -58.2624 H         1 UNK         0.0600 
    233 H233       -3.2680  -25.2011  -59.6953 H         1 UNK         0.0600 
    234 H234       -3.5620  -26.1622  -58.2556 H         1 UNK         0.0600 
    235 H235       -3.0438  -22.1440  -56.9924 H         1 UNK         0.3000 
    236 H236       -3.1073  -20.3480  -59.3973 H         1 UNK         0.0600 
    237 H237       -1.0466  -20.5489  -57.1366 H         1 UNK         0.0600 
    238 H238       -0.8162  -21.0905  -58.7984 H         1 UNK         0.0600 
    239 H239       -1.0198  -19.3797  -58.4516 H         1 UNK         0.0600 
    240 H240       -3.2664  -20.4979  -55.8060 H         1 UNK         0.3000 
    241 H241       -4.0649  -17.6817  -55.6511 H         1 UNK         0.0600 
    242 H242       -7.3627  -19.9085  -55.1393 H         1 UNK         0.3800 
    243 H243       -5.9551  -20.5559  -55.9342 H         1 UNK         0.3800 
    244 H244       -3.3880  -19.6625  -53.4301 H         1 UNK         0.0800 
    245 H245       -3.6369  -17.9476  -53.2196 H         1 UNK         0.0800 
    246 H246       -0.4113  -16.3113  -54.1876 H         1 UNK         0.0800 
    247 H247       -2.0981  -16.1425  -53.7780 H         1 UNK         0.0800 
@<TRIPOS>BOND
     1    1    2 1    
     2    1  127 1    
     3    1  128 1    
     4    1  129 1    
     5    2    3 2    
     6    2    4 am   BACKBONE|DICT|INTERRES
     7    4    5 1    
     8    4  130 1    
     9    5    6 1    
    10    5   65 1    
    11    5  131 1    
    12    6    7 1    
    13    6  132 1    
    14    6  133 1    
    15    7    8 1    
    16    8    9 1    
    17    8  134 1    
    18    8  135 1    
    19    9   10 ar   
    20    9   14 ar   
    21   10   11 ar   
    22   10  136 1    
    23   11   12 ar   
    24   11  126 1    
    25   12   13 ar   
    26   12  137 1    
    27   13   14 ar   
    28   13   15 1    
    29   14  138 1    
    30   15   16 1    
    31   15  139 1    
    32   15  140 1    
    33   16   17 1    
    34   17   18 1    
    35   17  141 1    
    36   17  142 1    
    37   18   19 1    
    38   18   67 1    
    39   18  143 1    
    40   19   20 am   BACKBONE|DICT|INTERRES
    41   19  144 1    
    42   20   21 2    
    43   20   22 1    
    44   22   23 1    
    45   22   24 1    
    46   22  145 1    
    47   23  146 1    
    48   23  147 1    
    49   23  148 1    
    50   24   25 am   BACKBONE|DICT|INTERRES
    51   24  149 1    
    52   25   26 2    
    53   25   27 1    
    54   27   28 1    
    55   27   29 1    
    56   27  150 1    
    57   28  151 1    
    58   28  152 1    
    59   28  153 1    
    60   29   30 am   BACKBONE|DICT|INTERRES
    61   29  154 1    
    62   30   31 2    
    63   30   32 1    
    64   32   33 1    
    65   32   34 1    
    66   32  155 1    
    67   33  156 1    
    68   33  157 1    
    69   33  158 1    
    70   34   35 am   BACKBONE|DICT|INTERRES
    71   34  159 1    
    72   35   36 2    
    73   35   37 1    
    74   37   38 1    
    75   37   39 1    
    76   37  160 1    
    77   38  161 1    
    78   38  162 1    
    79   38  163 1    
    80   39   40 am   BACKBONE|DICT|INTERRES
    81   39  164 1    
    82   40   41 2    
    83   40   42 1    
    84   42   43 1    
    85   42   44 1    
    86   42  165 1    
    87   43  166 1    
    88   43  167 1    
    89   43  168 1    
    90   44   45 am   BACKBONE|DICT|INTERRES
    91   44  169 1    
    92   45   46 2    
    93   45   47 1    
    94   47   48 1    
    95   47   49 1    
    96   47  170 1    
    97   48  171 1    
    98   48  172 1    
    99   48  173 1    
   100   49   50 am   BACKBONE|DICT|INTERRES
   101   49  174 1    
   102   50   51 2    
   103   50   52 1    
   104   52   53 1    
   105   52   54 1    
   106   52  175 1    
   107   53  176 1    
   108   53  177 1    
   109   53  178 1    
   110   54   55 am   BACKBONE|DICT|INTERRES
   111   54  179 1    
   112   55   56 2    
   113   55   57 1    
   114   57   58 1    
   115   57   59 1    
   116   57  180 1    
   117   58  181 1    
   118   58  182 1    
   119   58  183 1    
   120   59   60 am   BACKBONE|DICT|INTERRES
   121   59  184 1    
   122   60   61 2    
   123   60   62 1    
   124   62   63 1    
   125   62   64 1    
   126   62  185 1    
   127   63  186 1    
   128   63  187 1    
   129   63  188 1    
   130   64   65 am   BACKBONE|DICT|INTERRES
   131   64  189 1    
   132   65   66 2    
   133   67   68 2    
   134   67   69 am   BACKBONE|DICT|INTERRES
   135   69   70 1    
   136   69  190 1    
   137   70   71 1    
   138   70   72 1    
   139   70  191 1    
   140   71  192 1    
   141   71  193 1    
   142   71  194 1    
   143   72   73 2    
   144   72   74 am   BACKBONE|DICT|INTERRES
   145   74   75 1    
   146   74  195 1    
   147   75   76 1    
   148   75   77 1    
   149   75  196 1    
   150   76  197 1    
   151   76  198 1    
   152   76  199 1    
   153   77   78 2    
   154   77   79 am   BACKBONE|DICT|INTERRES
   155   79   80 1    
   156   79  200 1    
   157   80   81 1    
   158   80   82 1    
   159   80  201 1    
   160   81  202 1    
   161   81  203 1    
   162   81  204 1    
   163   82   83 2    
   164   82   84 am   BACKBONE|DICT|INTERRES
   165   84   85 1    
   166   84  205 1    
   167   85   86 1    
   168   85   87 1    
   169   85  206 1    
   170   86  207 1    
   171   86  208 1    
   172   86  209 1    
   173   87   88 2    
   174   87   89 am   BACKBONE|DICT|INTERRES
   175   89   90 1    
   176   89  210 1    
   177   90   91 1    
   178   90   92 1    
   179   90  211 1    
   180   91  212 1    
   181   91  213 1    
   182   91  214 1    
   183   92   93 2    
   184   92   94 am   BACKBONE|DICT|INTERRES
   185   94   95 1    
   186   94  215 1    
   187   95   96 1    
   188   95   97 1    
   189   95  216 1    
   190   96  217 1    
   191   96  218 1    
   192   96  219 1    
   193   97   98 2    
   194   97   99 am   BACKBONE|DICT|INTERRES
   195   99  100 1    
   196   99  220 1    
   197  100  101 1    
   198  100  102 1    
   199  100  221 1    
   200  101  222 1    
   201  101  223 1    
   202  101  224 1    
   203  102  103 2    
   204  102  104 am   BACKBONE|DICT|INTERRES
   205  104  105 1    
   206  104  225 1    
   207  105  106 1    
   208  105  107 1    
   209  105  226 1    
   210  106  227 1    
   211  106  228 1    
   212  106  229 1    
   213  107  108 2    
   214  107  109 am   BACKBONE|DICT|INTERRES
   215  109  110 1    
   216  109  230 1    
   217  110  111 1    
   218  110  112 1    
   219  110  231 1    
   220  111  232 1    
   221  111  233 1    
   222  111  234 1    
   223  112  113 2    
   224  112  114 am   BACKBONE|DICT|INTERRES
   225  114  115 1    
   226  114  235 1    
   227  115  116 1    
   228  115  117 1    
   229  115  236 1    
   230  116  237 1    
   231  116  238 1    
   232  116  239 1    
   233  117  118 2    
   234  117  119 am   BACKBONE|DICT|INTERRES
   235  119  120 1    
   236  119  240 1    
   237  120  121 1    
   238  120  124 1    
   239  120  241 1    
   240  121  122 am   BACKBONE|DICT|INTERRES
   241  121  123 2    
   242  122  242 1    
   243  122  243 1    
   244  124  125 1    
   245  124  244 1    
   246  124  245 1    
   247  125  126 1    
   248  126  246 1    
   249  126  247 1    
@<TRIPOS>SUBSTRUCTURE
     1 UNK         1 GROUP             0       ****    0 ROOT    
