@<TRIPOS>MOLECULE
3R540
247   249    1
SMALL
USER_CHARGES


@<TRIPOS>ATOM
      1 CA          1.7066  -11.4415  -44.2437 C.3       0 UNK        -0.1800 
      2 C           2.5687  -11.3328  -45.4939 C.2       0 UNK         0.5000 
      3 O           3.5830  -10.6360  -45.4866 O.2       0 UNK        -0.5000 
      4 N           2.1618  -12.0095  -46.5741 N.am      1 UNK        -0.5000 
      5 CA          2.8775  -12.0525  -47.8557 C.3       1 UNK         0.1400 
      6 C6          1.9207  -12.3806  -49.0274 C.3       23 UNK        -0.0398 
      7 S7          1.0192  -13.9598  -48.8319 S.3       23 UNK        -0.2404 
      8 C8          1.7787  -14.9554  -50.1546 C.3       23 UNK        -0.0205 
      9 C9          1.1012  -16.3094  -50.3028 C.ar      23 UNK        -0.0193 
     10 C10        -0.2642  -16.3753  -50.5921 C.ar      23 UNK        -0.1150 
     11 C11        -0.9006  -17.6076  -50.7454 C.ar      23 UNK        -0.0193 
     12 C12        -0.1623  -18.7858  -50.6119 C.ar      23 UNK        -0.1150 
     13 C13         1.2082  -18.7368  -50.3389 C.ar      23 UNK        -0.0193 
     14 C14         1.8350  -17.4944  -50.1856 C.ar      23 UNK        -0.1150 
     15 C15         2.0032  -20.0330  -50.2360 C.3       23 UNK        -0.0205 
     16 S16         2.9457  -20.2047  -48.6835 S.3       23 UNK        -0.2404 
     17 C17         1.7001  -19.8508  -47.3998 C.3       23 UNK        -0.0398 
     18 CA          0.9026  -21.0978  -46.9404 C.3       11 UNK         0.1400 
     19 N           0.5751  -21.0339  -45.5134 N.am      11 UNK        -0.5000 
     20 C           0.0297  -22.0237  -44.7950 C.2       10 UNK         0.5000 
     21 O          -0.1927  -23.1453  -45.2452 O.2       10 UNK        -0.5000 
     22 CA         -0.3873  -21.6946  -43.3482 C.3       10 UNK         0.1400 
     23 CB          0.7757  -21.9266  -42.3730 C.3       10 UNK        -0.1800 
     24 N          -0.9002  -20.3300  -43.2039 N.am      10 UNK        -0.5000 
     25 C          -2.0181  -19.8802  -43.7928 C.2       9 UNK         0.5000 
     26 O          -2.7666  -20.5934  -44.4602 O.2       9 UNK        -0.5000 
     27 CA         -2.3225  -18.3755  -43.6687 C.3       9 UNK         0.1400 
     28 CB         -3.0014  -18.0596  -42.3282 C.3       9 UNK        -0.1800 
     29 N          -1.1276  -17.5449  -43.8319 N.am      9 UNK        -0.5000 
     30 C          -0.4062  -17.4718  -44.9605 C.2       8 UNK         0.5000 
     31 O          -0.7163  -18.0500  -46.0026 O.2       8 UNK        -0.5000 
     32 CA          0.9134  -16.6773  -44.8953 C.3       8 UNK         0.1400 
     33 CB          0.6680  -15.1699  -45.0512 C.3       8 UNK        -0.1800 
     34 N           1.6530  -16.9270  -43.6573 N.am      8 UNK        -0.5000 
     35 C           2.1623  -18.1146  -43.3028 C.2       7 UNK         0.5000 
     36 O           2.1169  -19.1131  -44.0184 O.2       7 UNK        -0.5000 
     37 CA          2.7481  -18.2341  -41.8849 C.3       7 UNK         0.1400 
     38 CB          4.2062  -17.7586  -41.8262 C.3       7 UNK        -0.1800 
     39 N           1.9463  -17.5055  -40.9027 N.am      7 UNK        -0.5000 
     40 C           0.7356  -17.8963  -40.4816 C.2       6 UNK         0.5000 
     41 O           0.1915  -18.9373  -40.8477 O.2       6 UNK        -0.5000 
     42 CA         -0.0044  -16.9515  -39.5162 C.3       6 UNK         0.1400 
     43 CB          0.4081  -17.2337  -38.0640 C.3       6 UNK        -0.1800 
     44 N           0.2303  -15.5390  -39.8191 N.am      6 UNK        -0.5000 
     45 C          -0.2167  -14.9147  -40.9182 C.2       5 UNK         0.5000 
     46 O          -0.9231  -15.4534  -41.7696 O.2       5 UNK        -0.5000 
     47 CA          0.2610  -13.4637  -41.1286 C.3       5 UNK         0.1400 
     48 CB         -0.6658  -12.4749  -40.4072 C.3       5 UNK        -0.1800 
     49 N           1.6455  -13.2458  -40.6921 N.am      5 UNK        -0.5000 
     50 C           2.7030  -13.8805  -41.2147 C.2       4 UNK         0.5000 
     51 O           2.6079  -14.7007  -42.1285 O.2       4 UNK        -0.5000 
     52 CA          4.0696  -13.6085  -40.5570 C.3       4 UNK         0.1400 
     53 CB          4.1836  -14.3876  -39.2362 C.3       4 UNK        -0.1800 
     54 N           5.1901  -13.9944  -41.4163 N.am      4 UNK        -0.5000 
     55 C           5.5321  -13.3790  -42.5549 C.2       3 UNK         0.5000 
     56 O           4.9841  -12.3536  -42.9614 O.2       3 UNK        -0.5000 
     57 CA          6.7032  -13.9705  -43.3691 C.3       3 UNK         0.1400 
     58 CB          7.3532  -15.2310  -42.7511 C.3       3 UNK        -0.1800 
     59 N           6.3196  -14.1969  -44.7663 N.am      3 UNK        -0.5000 
     60 C           5.4070  -15.0664  -45.2215 C.2       2 UNK         0.5000 
     61 O           4.7841  -15.8571  -44.5148 O.2       2 UNK        -0.5000 
     62 CA          5.1064  -14.9922  -46.7224 C.3       2 UNK         0.1400 
     63 CB          4.5991  -16.3282  -47.2982 C.3       2 UNK        -0.1800 
     64 N           4.0833  -13.9731  -46.9058 N.am      2 UNK        -0.5000 
     65 C           4.0906  -13.0097  -47.8334 C.2       1 UNK         0.5000 
     66 O           4.9933  -12.8615  -48.6582 O.2       1 UNK        -0.5000 
     67 C          -0.3602  -21.3180  -47.8027 C.2       11 UNK         0.5000 
     68 O          -0.3641  -22.1926  -48.6690 O.2       11 UNK        -0.5000 
     69 N          -1.4295  -20.5609  -47.5166 N.am      12 UNK        -0.5000 
     70 CA         -2.7397  -20.7117  -48.1549 C.3       12 UNK         0.1400 
     71 CB         -3.6378  -19.5286  -47.7671 C.3       12 UNK        -0.1800 
     72 C          -3.4164  -22.0574  -47.8226 C.2       12 UNK         0.5000 
     73 O          -4.0440  -22.6555  -48.6970 O.2       12 UNK        -0.5000 
     74 N          -3.2463  -22.5348  -46.5812 N.am      13 UNK        -0.5000 
     75 CA         -3.7032  -23.8514  -46.1326 C.3       13 UNK         0.1400 
     76 CB         -3.5985  -23.9516  -44.6042 C.3       13 UNK        -0.1800 
     77 C          -2.9444  -25.0053  -46.8154 C.2       13 UNK         0.5000 
     78 O          -3.5691  -25.9970  -47.1890 O.2       13 UNK        -0.5000 
     79 N          -1.6285  -24.8455  -47.0187 N.am      14 UNK        -0.5000 
     80 CA         -0.7800  -25.7713  -47.7766 C.3       14 UNK         0.1400 
     81 CB          0.6976  -25.3994  -47.5812 C.3       14 UNK        -0.1800 
     82 C          -1.1432  -25.8215  -49.2742 C.2       14 UNK         0.5000 
     83 O          -1.0492  -26.8846  -49.8879 O.2       14 UNK        -0.5000 
     84 N          -1.6116  -24.6891  -49.8165 N.am      15 UNK        -0.5000 
     85 CA         -2.2097  -24.5637  -51.1488 C.3       15 UNK         0.1400 
     86 CB         -2.0892  -23.1012  -51.6090 C.3       15 UNK        -0.1800 
     87 C          -3.6760  -25.0555  -51.2122 C.2       15 UNK         0.5000 
     88 O          -4.3057  -24.9379  -52.2647 O.2       15 UNK        -0.5000 
     89 N          -4.2011  -25.5834  -50.0940 N.am      16 UNK        -0.5000 
     90 CA         -5.5308  -26.1721  -49.8964 C.3       16 UNK         0.1400 
     91 CB         -5.6934  -27.4361  -50.7665 C.3       16 UNK        -0.1800 
     92 C          -6.6991  -25.1828  -50.0796 C.2       16 UNK         0.5000 
     93 O          -7.8376  -25.6222  -50.2511 O.2       16 UNK        -0.5000 
     94 N          -6.4031  -23.8733  -50.0579 N.am      17 UNK        -0.5000 
     95 CA         -7.3025  -22.7575  -50.3700 C.3       17 UNK         0.1400 
     96 CB         -8.3418  -22.5721  -49.2456 C.3       17 UNK        -0.1800 
     97 C          -7.9430  -22.8613  -51.7758 C.2       17 UNK         0.5000 
     98 O          -9.0705  -22.4031  -51.9729 O.2       17 UNK        -0.5000 
     99 N          -7.2325  -23.5018  -52.7166 N.am      18 UNK        -0.5000 
    100 CA        -7.7121  -23.8224  -54.0593 C.3       18 UNK         0.1400 
    101 CB        -6.7097  -24.7772  -54.7260 C.3       18 UNK        -0.1800 
    102 C         -7.9119  -22.5723  -54.9309 C.2       18 UNK         0.5000 
    103 O         -7.1187  -21.6344  -54.8474 O.2       18 UNK        -0.5000 
    104 N         -8.9258  -22.6093  -55.8057 N.am      19 UNK        -0.5000 
    105 CA        -9.2455  -21.5400  -56.7599 C.3       19 UNK         0.1400 
    106 CB       -10.6018  -21.8429  -57.4151 C.3       19 UNK        -0.1800 
    107 C         -8.1611  -21.3263  -57.8365 C.2       19 UNK         0.5000 
    108 O         -8.0519  -20.2280  -58.3819 O.2       19 UNK        -0.5000 
    109 N         -7.3676  -22.3724  -58.1044 N.am      20 UNK        -0.5000 
    110 CA        -6.1999  -22.3443  -58.9865 C.3       20 UNK         0.1400 
    111 CB        -5.8785  -23.7860  -59.4124 C.3       20 UNK        -0.1800 
    112 C         -4.9614  -21.6841  -58.3422 C.2       20 UNK         0.5000 
    113 O         -3.9946  -21.4067  -59.0536 O.2       20 UNK        -0.5000 
    114 N         -4.9985  -21.4598  -57.0230 N.am      21 UNK        -0.5000 
    115 CA        -3.9459  -20.8344  -56.2332 C.3       21 UNK         0.1400 
    116 CB        -3.2420  -21.9187  -55.3893 C.3       21 UNK        -0.1800 
    117 C         -4.5878  -19.7023  -55.4131 C.2       21 UNK         0.5000 
    118 O         -5.1049  -18.7510  -56.0024 O.2       21 UNK        -0.5000 
    119 N         -4.5626  -19.8230  -54.0848 N.am      22 UNK        -0.5000 
    120 CA        -5.1615  -18.9003  -53.1187 C.3       22 UNK         0.1400 
    121 C         -5.3128  -19.5832  -51.7355 C.2       22 UNK         0.5000 
    122 N         -6.1389  -19.0346  -50.8546 N.am      22 UNK        -0.7600 
    123 O         -4.6766  -20.5927  -51.4426 O.2       22 UNK        -0.5000 
    124 C124       -4.4247  -17.5333  -53.0302 C.3       23 UNK        -0.0398 
    125 S125       -2.6066  -17.6505  -52.8875 S.3       23 UNK        -0.2404 
    126 C126       -2.3782  -17.6583  -51.0851 C.3       23 UNK        -0.0205 
    127 H127        2.2821  -11.8853  -43.4323 H         1 UNK         0.0600 
    128 H128        0.8236  -12.0584  -44.4112 H         1 UNK         0.0600 
    129 H129        1.3758  -10.4527  -43.9265 H         1 UNK         0.0600 
    130 H130        1.3059  -12.5454  -46.5414 H         1 UNK         0.3000 
    131 H131        3.2800  -11.0552  -48.0467 H         1 UNK         0.0600 
    132 H132        1.1764  -11.5879  -49.1135 H         1 UNK         0.0800 
    133 H133        2.4604  -12.3702  -49.9760 H         1 UNK         0.0800 
    134 H134        2.8430  -15.0736  -49.9464 H         1 UNK         0.0800 
    135 H135        1.7009  -14.4216  -51.1028 H         1 UNK         0.0800 
    136 H136       -0.8319  -15.4621  -50.7036 H         1 UNK         0.1150 
    137 H137       -0.6543  -19.7402  -50.7398 H         1 UNK         0.1150 
    138 H138        2.8949  -17.4547  -49.9777 H         1 UNK         0.1150 
    139 H139        1.3478  -20.8984  -50.3426 H         1 UNK         0.0800 
    140 H140        2.7010  -20.0799  -51.0728 H         1 UNK         0.0800 
    141 H141        1.0475  -19.0317  -47.7033 H         1 UNK         0.0800 
    142 H142        2.2731  -19.4513  -46.5637 H         1 UNK         0.0800 
    143 H143        1.5370  -21.9783  -47.0632 H         1 UNK         0.0600 
    144 H144        0.8014  -20.1674  -45.0354 H         1 UNK         0.3000 
    145 H145       -1.1923  -22.3776  -43.0721 H         1 UNK         0.0600 
    146 H146        0.4709  -21.7392  -41.3433 H         1 UNK         0.0600 
    147 H147        1.1264  -22.9580  -42.4261 H         1 UNK         0.0600 
    148 H148        1.6254  -21.2819  -42.5935 H         1 UNK         0.0600 
    149 H149       -0.3661  -19.7002  -42.6139 H         1 UNK         0.3000 
    150 H150       -3.0186  -18.1135  -44.4682 H         1 UNK         0.0600 
    151 H151       -3.9144  -18.6439  -42.2070 H         1 UNK         0.0600 
    152 H152       -3.2779  -17.0070  -42.2650 H         1 UNK         0.0600 
    153 H153       -2.3529  -18.2862  -41.4825 H         1 UNK         0.0600 
    154 H154       -0.8442  -16.9882  -43.0316 H         1 UNK         0.3000 
    155 H155        1.5381  -17.0056  -45.7278 H         1 UNK         0.0600 
    156 H156        0.0413  -14.7778  -44.2504 H         1 UNK         0.0600 
    157 H157        1.6080  -14.6187  -45.0393 H         1 UNK         0.0600 
    158 H158        0.1689  -14.9533  -45.9962 H         1 UNK         0.0600 
    159 H159        1.8142  -16.1312  -43.0449 H         1 UNK         0.3000 
    160 H160        2.7375  -19.2919  -41.6140 H         1 UNK         0.0600 
    161 H161        4.2909  -16.6936  -42.0340 H         1 UNK         0.0600 
    162 H162        4.8171  -18.2826  -42.5623 H         1 UNK         0.0600 
    163 H163        4.6435  -17.9446  -40.8453 H         1 UNK         0.0600 
    164 H164        2.2949  -16.6047  -40.6133 H         1 UNK         0.3000 
    165 H165       -1.0744  -17.1478  -39.6117 H         1 UNK         0.0600 
    166 H166       -0.1635  -16.6219  -37.3658 H         1 UNK         0.0600 
    167 H167        0.2271  -18.2774  -37.8033 H         1 UNK         0.0600 
    168 H168        1.4673  -17.0327  -37.8983 H         1 UNK         0.0600 
    169 H169        0.8008  -15.0200  -39.1685 H         1 UNK         0.3000 
    170 H170        0.2120  -13.2558  -42.1991 H         1 UNK         0.0600 
    171 H171       -1.7003  -12.6053  -40.7279 H         1 UNK         0.0600 
    172 H172       -0.6376  -12.6103  -39.3253 H         1 UNK         0.0600 
    173 H173       -0.3874  -11.4436  -40.6248 H         1 UNK         0.0600 
    174 H174        1.7847  -12.5896  -39.9371 H         1 UNK         0.3000 
    175 H175        4.1459  -12.5396  -40.3479 H         1 UNK         0.0600 
    176 H176        4.1169  -15.4647  -39.3956 H         1 UNK         0.0600 
    177 H177        5.1320  -14.1821  -38.7393 H         1 UNK         0.0600 
    178 H178        3.3910  -14.1085  -38.5410 H         1 UNK         0.0600 
    179 H179        5.6740  -14.8444  -41.1704 H         1 UNK         0.3000 
    180 H180        7.4688  -13.1937  -43.3903 H         1 UNK         0.0600 
    181 H181        6.6517  -16.0601  -42.6593 H         1 UNK         0.0600 
    182 H182        7.7526  -15.0214  -41.7581 H         1 UNK         0.0600 
    183 H183        8.1879  -15.5750  -43.3619 H         1 UNK         0.0600 
    184 H184        6.7244  -13.5501  -45.4285 H         1 UNK         0.3000 
    185 H185        6.0284  -14.7210  -47.2411 H         1 UNK         0.0600 
    186 H186        5.3155  -17.1298  -47.1150 H         1 UNK         0.0600 
    187 H187        3.6493  -16.6286  -46.8551 H         1 UNK         0.0600 
    188 H188        4.4556  -16.2602  -48.3761 H         1 UNK         0.0600 
    189 H189        3.3266  -13.9895  -46.2376 H         1 UNK         0.3000 
    190 H190       -1.3400  -19.8354  -46.8123 H         1 UNK         0.3000 
    191 H191       -2.5900  -20.6784  -49.2358 H         1 UNK         0.0600 
    192 H192       -3.8284  -19.4997  -46.6943 H         1 UNK         0.0600 
    193 H193       -4.6022  -19.5928  -48.2714 H         1 UNK         0.0600 
    194 H194       -3.1830  -18.5794  -48.0516 H         1 UNK         0.0600 
    195 H195       -2.7876  -21.9466  -45.8923 H         1 UNK         0.3000 
    196 H196       -4.7575  -23.9440  -46.4023 H         1 UNK         0.0600 
    197 H197       -4.0248  -24.8899  -44.2476 H         1 UNK         0.0600 
    198 H198       -4.1397  -23.1409  -44.1159 H         1 UNK         0.0600 
    199 H199       -2.5637  -23.9163  -44.2668 H         1 UNK         0.0600 
    200 H200       -1.1658  -24.0390  -46.6074 H         1 UNK         0.3000 
    201 H201       -0.9323  -26.7723  -47.3677 H         1 UNK         0.0600 
    202 H202        0.9741  -25.4252  -46.5271 H         1 UNK         0.0600 
    203 H203        0.9179  -24.4016  -47.9598 H         1 UNK         0.0600 
    204 H204        1.3485  -26.0999  -48.1057 H         1 UNK         0.0600 
    205 H205       -1.5896  -23.8460  -49.2538 H         1 UNK         0.3000 
    206 H206       -1.6378  -25.1807  -51.8444 H         1 UNK         0.0600 
    207 H207       -1.0529  -22.7632  -51.5888 H         1 UNK         0.0600 
    208 H208       -2.4509  -22.9796  -52.6301 H         1 UNK         0.0600 
    209 H209       -2.6703  -22.4311  -50.9767 H         1 UNK         0.0600 
    210 H210       -3.6190  -25.5940  -49.2658 H         1 UNK         0.3000 
    211 H211       -5.5722  -26.4871  -48.8536 H         1 UNK         0.0600 
    212 H212       -5.7458  -27.1928  -51.8282 H         1 UNK         0.0600 
    213 H213       -6.6062  -27.9751  -50.5104 H         1 UNK         0.0600 
    214 H214       -4.8614  -28.1249  -50.6201 H         1 UNK         0.0600 
    215 H215       -5.4442  -23.6066  -49.8533 H         1 UNK         0.3000 
    216 H216       -6.6788  -21.8663  -50.3824 H         1 UNK         0.0600 
    217 H217       -8.9223  -21.6611  -49.3955 H         1 UNK         0.0600 
    218 H218       -7.8574  -22.4897  -48.2726 H         1 UNK         0.0600 
    219 H219       -9.0442  -23.4048  -49.2023 H         1 UNK         0.0600 
    220 H220       -6.3063  -23.8353  -52.4786 H         1 UNK         0.3000 
    221 H221       -8.6695  -24.3377  -53.9576 H         1 UNK         0.0600 
    222 H222       -5.7282  -24.3144  -54.8387 H         1 UNK         0.0600 
    223 H223       -6.5820  -25.6870  -54.1387 H         1 UNK         0.0600 
    224 H224       -7.0489  -25.0764  -55.7184 H         1 UNK         0.0600 
    225 H225       -9.5291  -23.4192  -55.8239 H         1 UNK         0.3000 
    226 H226       -9.3364  -20.6068  -56.1999 H         1 UNK         0.0600 
    227 H227      -11.3935  -21.9151  -56.6692 H         1 UNK         0.0600 
    228 H228      -10.8849  -21.0522  -58.1113 H         1 UNK         0.0600 
    229 H229      -10.5787  -22.7793  -57.9740 H         1 UNK         0.0600 
    230 H230       -7.5441  -23.2388  -57.6183 H         1 UNK         0.3000 
    231 H231       -6.4496  -21.7703  -59.8813 H         1 UNK         0.0600 
    232 H232       -5.0356  -23.8117  -60.1044 H         1 UNK         0.0600 
    233 H233       -6.7265  -24.2463  -59.9199 H         1 UNK         0.0600 
    234 H234       -5.6190  -24.4099  -58.5561 H         1 UNK         0.0600 
    235 H235       -5.8568  -21.6437  -56.5157 H         1 UNK         0.3000 
    236 H236       -3.2023  -20.3655  -56.8806 H         1 UNK         0.0600 
    237 H237       -2.7809  -22.6698  -56.0308 H         1 UNK         0.0600 
    238 H238       -2.4471  -21.4896  -54.7780 H         1 UNK         0.0600 
    239 H239       -3.9374  -22.4367  -54.7269 H         1 UNK         0.0600 
    240 H240       -4.1560  -20.6458  -53.6600 H         1 UNK         0.3000 
    241 H241       -6.1805  -18.7128  -53.4631 H         1 UNK         0.0600 
    242 H242       -6.6771  -18.2104  -51.0718 H         1 UNK         0.3800 
    243 H243       -6.2352  -19.4587  -49.9472 H         1 UNK         0.3800 
    244 H244       -4.6327  -16.9639  -53.9366 H         1 UNK         0.0800 
    245 H245       -4.8189  -16.9215  -52.2174 H         1 UNK         0.0800 
    246 H246       -2.8264  -18.5558  -50.6584 H         1 UNK         0.0800 
    247 H247       -2.8958  -16.8071  -50.6402 H         1 UNK         0.0800 
@<TRIPOS>BOND
     1    1    2 1    
     2    1  127 1    
     3    1  128 1    
     4    1  129 1    
     5    2    3 2    
     6    2    4 am   BACKBONE|DICT|INTERRES
     7    4    5 1    
     8    4  130 1    
     9    5    6 1    
    10    5   65 1    
    11    5  131 1    
    12    6    7 1    
    13    6  132 1    
    14    6  133 1    
    15    7    8 1    
    16    8    9 1    
    17    8  134 1    
    18    8  135 1    
    19    9   10 ar   
    20    9   14 ar   
    21   10   11 ar   
    22   10  136 1    
    23   11   12 ar   
    24   11  126 1    
    25   12   13 ar   
    26   12  137 1    
    27   13   14 ar   
    28   13   15 1    
    29   14  138 1    
    30   15   16 1    
    31   15  139 1    
    32   15  140 1    
    33   16   17 1    
    34   17   18 1    
    35   17  141 1    
    36   17  142 1    
    37   18   19 1    
    38   18   67 1    
    39   18  143 1    
    40   19   20 am   BACKBONE|DICT|INTERRES
    41   19  144 1    
    42   20   21 2    
    43   20   22 1    
    44   22   23 1    
    45   22   24 1    
    46   22  145 1    
    47   23  146 1    
    48   23  147 1    
    49   23  148 1    
    50   24   25 am   BACKBONE|DICT|INTERRES
    51   24  149 1    
    52   25   26 2    
    53   25   27 1    
    54   27   28 1    
    55   27   29 1    
    56   27  150 1    
    57   28  151 1    
    58   28  152 1    
    59   28  153 1    
    60   29   30 am   BACKBONE|DICT|INTERRES
    61   29  154 1    
    62   30   31 2    
    63   30   32 1    
    64   32   33 1    
    65   32   34 1    
    66   32  155 1    
    67   33  156 1    
    68   33  157 1    
    69   33  158 1    
    70   34   35 am   BACKBONE|DICT|INTERRES
    71   34  159 1    
    72   35   36 2    
    73   35   37 1    
    74   37   38 1    
    75   37   39 1    
    76   37  160 1    
    77   38  161 1    
    78   38  162 1    
    79   38  163 1    
    80   39   40 am   BACKBONE|DICT|INTERRES
    81   39  164 1    
    82   40   41 2    
    83   40   42 1    
    84   42   43 1    
    85   42   44 1    
    86   42  165 1    
    87   43  166 1    
    88   43  167 1    
    89   43  168 1    
    90   44   45 am   BACKBONE|DICT|INTERRES
    91   44  169 1    
    92   45   46 2    
    93   45   47 1    
    94   47   48 1    
    95   47   49 1    
    96   47  170 1    
    97   48  171 1    
    98   48  172 1    
    99   48  173 1    
   100   49   50 am   BACKBONE|DICT|INTERRES
   101   49  174 1    
   102   50   51 2    
   103   50   52 1    
   104   52   53 1    
   105   52   54 1    
   106   52  175 1    
   107   53  176 1    
   108   53  177 1    
   109   53  178 1    
   110   54   55 am   BACKBONE|DICT|INTERRES
   111   54  179 1    
   112   55   56 2    
   113   55   57 1    
   114   57   58 1    
   115   57   59 1    
   116   57  180 1    
   117   58  181 1    
   118   58  182 1    
   119   58  183 1    
   120   59   60 am   BACKBONE|DICT|INTERRES
   121   59  184 1    
   122   60   61 2    
   123   60   62 1    
   124   62   63 1    
   125   62   64 1    
   126   62  185 1    
   127   63  186 1    
   128   63  187 1    
   129   63  188 1    
   130   64   65 am   BACKBONE|DICT|INTERRES
   131   64  189 1    
   132   65   66 2    
   133   67   68 2    
   134   67   69 am   BACKBONE|DICT|INTERRES
   135   69   70 1    
   136   69  190 1    
   137   70   71 1    
   138   70   72 1    
   139   70  191 1    
   140   71  192 1    
   141   71  193 1    
   142   71  194 1    
   143   72   73 2    
   144   72   74 am   BACKBONE|DICT|INTERRES
   145   74   75 1    
   146   74  195 1    
   147   75   76 1    
   148   75   77 1    
   149   75  196 1    
   150   76  197 1    
   151   76  198 1    
   152   76  199 1    
   153   77   78 2    
   154   77   79 am   BACKBONE|DICT|INTERRES
   155   79   80 1    
   156   79  200 1    
   157   80   81 1    
   158   80   82 1    
   159   80  201 1    
   160   81  202 1    
   161   81  203 1    
   162   81  204 1    
   163   82   83 2    
   164   82   84 am   BACKBONE|DICT|INTERRES
   165   84   85 1    
   166   84  205 1    
   167   85   86 1    
   168   85   87 1    
   169   85  206 1    
   170   86  207 1    
   171   86  208 1    
   172   86  209 1    
   173   87   88 2    
   174   87   89 am   BACKBONE|DICT|INTERRES
   175   89   90 1    
   176   89  210 1    
   177   90   91 1    
   178   90   92 1    
   179   90  211 1    
   180   91  212 1    
   181   91  213 1    
   182   91  214 1    
   183   92   93 2    
   184   92   94 am   BACKBONE|DICT|INTERRES
   185   94   95 1    
   186   94  215 1    
   187   95   96 1    
   188   95   97 1    
   189   95  216 1    
   190   96  217 1    
   191   96  218 1    
   192   96  219 1    
   193   97   98 2    
   194   97   99 am   BACKBONE|DICT|INTERRES
   195   99  100 1    
   196   99  220 1    
   197  100  101 1    
   198  100  102 1    
   199  100  221 1    
   200  101  222 1    
   201  101  223 1    
   202  101  224 1    
   203  102  103 2    
   204  102  104 am   BACKBONE|DICT|INTERRES
   205  104  105 1    
   206  104  225 1    
   207  105  106 1    
   208  105  107 1    
   209  105  226 1    
   210  106  227 1    
   211  106  228 1    
   212  106  229 1    
   213  107  108 2    
   214  107  109 am   BACKBONE|DICT|INTERRES
   215  109  110 1    
   216  109  230 1    
   217  110  111 1    
   218  110  112 1    
   219  110  231 1    
   220  111  232 1    
   221  111  233 1    
   222  111  234 1    
   223  112  113 2    
   224  112  114 am   BACKBONE|DICT|INTERRES
   225  114  115 1    
   226  114  235 1    
   227  115  116 1    
   228  115  117 1    
   229  115  236 1    
   230  116  237 1    
   231  116  238 1    
   232  116  239 1    
   233  117  118 2    
   234  117  119 am   BACKBONE|DICT|INTERRES
   235  119  120 1    
   236  119  240 1    
   237  120  121 1    
   238  120  124 1    
   239  120  241 1    
   240  121  122 am   BACKBONE|DICT|INTERRES
   241  121  123 2    
   242  122  242 1    
   243  122  243 1    
   244  124  125 1    
   245  124  244 1    
   246  124  245 1    
   247  125  126 1    
   248  126  246 1    
   249  126  247 1    
@<TRIPOS>SUBSTRUCTURE
     1 UNK         1 GROUP             0       ****    0 ROOT    
