@<TRIPOS>MOLECULE
3R540
247   249    1
SMALL
USER_CHARGES


@<TRIPOS>ATOM
      1 CA          5.8079  -10.4065  -48.0764 C.3       0 UNK        -0.1800 
      2 C           5.0214  -11.6862  -48.3202 C.2       0 UNK         0.5000 
      3 O           4.3731  -12.1927  -47.4046 O.2       0 UNK        -0.5000 
      4 N           5.0616  -12.2075  -49.5530 N.am      1 UNK        -0.5000 
      5 CA          4.3724  -13.4262  -49.9967 C.3       1 UNK         0.1400 
      6 C6          5.1324  -14.0775  -51.1861 C.3       23 UNK        -0.0398 
      7 S7          4.9305  -15.8757  -51.4937 S.3       23 UNK        -0.2404 
      8 C8          3.6052  -16.4710  -50.3931 C.3       23 UNK        -0.0205 
      9 C9          3.2778  -17.9265  -50.6850 C.ar      23 UNK        -0.0193 
     10 C10         2.5054  -18.2546  -51.8041 C.ar      23 UNK        -0.1150 
     11 C11         2.1792  -19.5859  -52.0760 C.ar      23 UNK        -0.0193 
     12 C12         2.6313  -20.5912  -51.2207 C.ar      23 UNK        -0.1150 
     13 C13         3.3842  -20.2753  -50.0878 C.ar      23 UNK        -0.0193 
     14 C14         3.7148  -18.9418  -49.8274 C.ar      23 UNK        -0.1150 
     15 C15         3.8142  -21.3854  -49.1464 C.3       23 UNK        -0.0205 
     16 S16         2.4038  -21.9745  -48.1615 S.3       23 UNK        -0.2404 
     17 C17         3.1006  -23.5315  -47.5150 C.3       23 UNK        -0.0398 
     18 CA          2.1464  -24.3394  -46.6033 C.3       11 UNK         0.1400 
     19 N           1.6691  -23.5484  -45.4691 N.am      11 UNK        -0.5000 
     20 C           1.1424  -24.0738  -44.3564 C.2       10 UNK         0.5000 
     21 O           1.1735  -25.2770  -44.0896 O.2       10 UNK        -0.5000 
     22 CA          0.4447  -23.0838  -43.4073 C.3       10 UNK         0.1400 
     23 CB          0.0971  -23.6894  -42.0322 C.3       10 UNK        -0.1800 
     24 N           1.1798  -21.8293  -43.2574 N.am      10 UNK        -0.5000 
     25 C           2.4009  -21.6418  -42.7378 C.2       9 UNK         0.5000 
     26 O           3.1333  -22.5464  -42.3355 O.2       9 UNK        -0.5000 
     27 CA          2.8717  -20.1780  -42.6280 C.3       9 UNK         0.1400 
     28 CB          3.7155  -19.7921  -43.8530 C.3       9 UNK        -0.1800 
     29 N           1.7571  -19.2357  -42.4875 N.am      9 UNK        -0.5000 
     30 C           0.9447  -19.1665  -41.4220 C.2       8 UNK         0.5000 
     31 O           1.1172  -19.8133  -40.3881 O.2       8 UNK        -0.5000 
     32 CA         -0.2850  -18.2475  -41.5405 C.3       8 UNK         0.1400 
     33 CB          0.0854  -16.7990  -41.1887 C.3       8 UNK        -0.1800 
     34 N          -0.9076  -18.2955  -42.8665 N.am      8 UNK        -0.5000 
     35 C          -1.5477  -19.3615  -43.3711 C.2       7 UNK         0.5000 
     36 O          -1.7227  -20.4090  -42.7494 O.2       7 UNK        -0.5000 
     37 CA         -2.0451  -19.2634  -44.8259 C.3       7 UNK         0.1400 
     38 CB         -3.4146  -18.5728  -44.8998 C.3       7 UNK        -0.1800 
     39 N          -1.0996  -18.5769  -45.7051 N.am      7 UNK        -0.5000 
     40 C           0.1150  -19.0476  -46.0233 C.2       6 UNK         0.5000 
     41 O           0.5513  -20.1298  -45.6285 O.2       6 UNK        -0.5000 
     42 CA          1.0049  -18.1304  -46.8842 C.3       6 UNK         0.1400 
     43 CB          0.5823  -18.1709  -48.3599 C.3       6 UNK        -0.1800 
     44 N           0.9802  -16.7434  -46.4204 N.am      6 UNK        -0.5000 
     45 C           1.3980  -16.3301  -45.2163 C.2       5 UNK         0.5000 
     46 O           1.9019  -17.0709  -44.3739 O.2       5 UNK        -0.5000 
     47 CA          1.1617  -14.8501  -44.8742 C.3       5 UNK         0.1400 
     48 CB          2.2500  -13.9599  -45.4914 C.3       5 UNK        -0.1800 
     49 N          -0.1601  -14.3951  -45.3060 N.am      5 UNK        -0.5000 
     50 C          -1.3139  -14.8041  -44.7589 C.2       4 UNK         0.5000 
     51 O          -1.3822  -15.5837  -43.8108 O.2       4 UNK        -0.5000 
     52 CA         -2.6111  -14.2848  -45.4027 C.3       4 UNK         0.1400 
     53 CB         -2.9817  -12.9056  -44.8378 C.3       4 UNK        -0.1800 
     54 N          -2.5207  -14.2034  -46.8598 N.am      4 UNK        -0.5000 
     55 C          -2.3962  -15.2628  -47.6721 C.2       3 UNK         0.5000 
     56 O          -2.3697  -16.4282  -47.2788 O.2       3 UNK        -0.5000 
     57 CA         -2.2178  -14.9488  -49.1692 C.3       3 UNK         0.1400 
     58 CB         -3.5795  -14.6420  -49.8118 C.3       3 UNK        -0.1800 
     59 N          -1.3114  -13.8192  -49.4054 N.am      3 UNK        -0.5000 
     60 C          -0.0256  -13.7836  -49.0316 C.2       2 UNK         0.5000 
     61 O           0.5449  -14.7157  -48.4600 O.2       2 UNK        -0.5000 
     62 CA          0.7185  -12.4579  -49.2687 C.3       2 UNK         0.1400 
     63 CB          0.3690  -11.4475  -48.1640 C.3       2 UNK        -0.1800 
     64 N           2.1639  -12.6634  -49.2631 N.am      2 UNK        -0.5000 
     65 C           2.8817  -13.1288  -50.2905 C.2       1 UNK         0.5000 
     66 O           2.4149  -13.3026  -51.4175 O.2       1 UNK        -0.5000 
     67 C           0.9417  -24.9325  -47.3677 C.2       11 UNK         0.5000 
     68 O          -0.1265  -24.3165  -47.3959 O.2       11 UNK        -0.5000 
     69 N           1.1209  -26.1183  -47.9652 N.am      12 UNK        -0.5000 
     70 CA          0.0560  -26.9568  -48.5364 C.3       12 UNK         0.1400 
     71 CB          0.6871  -28.2338  -49.1123 C.3       12 UNK        -0.1800 
     72 C          -0.8471  -26.2847  -49.5925 C.2       12 UNK         0.5000 
     73 O          -2.0004  -26.6886  -49.7438 O.2       12 UNK        -0.5000 
     74 N          -0.3206  -25.2698  -50.2883 N.am      13 UNK        -0.5000 
     75 CA         -1.0492  -24.4742  -51.2754 C.3       13 UNK         0.1400 
     76 CB         -0.0297  -23.7466  -52.1652 C.3       13 UNK        -0.1800 
     77 C          -2.0324  -23.4579  -50.6575 C.2       13 UNK         0.5000 
     78 O          -2.9400  -23.0157  -51.3627 O.2       13 UNK        -0.5000 
     79 N          -1.8321  -23.0839  -49.3851 N.am      14 UNK        -0.5000 
     80 CA         -2.5346  -21.9745  -48.7359 C.3       14 UNK         0.1400 
     81 CB         -1.5681  -20.7901  -48.6316 C.3       14 UNK        -0.1800 
     82 C          -3.1244  -22.3165  -47.3579 C.2       14 UNK         0.5000 
     83 O          -3.9361  -21.5384  -46.8567 O.2       14 UNK        -0.5000 
     84 N          -2.7472  -23.4613  -46.7697 N.am      15 UNK        -0.5000 
     85 CA         -3.1590  -23.9330  -45.4396 C.3       15 UNK         0.1400 
     86 CB         -2.4946  -25.2917  -45.1679 C.3       15 UNK        -0.1800 
     87 C          -4.6815  -24.0448  -45.2157 C.2       15 UNK         0.5000 
     88 O          -5.1299  -23.9931  -44.0702 O.2       15 UNK        -0.5000 
     89 N          -5.4476  -24.1795  -46.3060 N.am      16 UNK        -0.5000 
     90 CA         -6.9104  -24.1739  -46.3150 C.3       16 UNK         0.1400 
     91 CB         -7.3917  -24.6850  -47.6823 C.3       16 UNK        -0.1800 
     92 C          -7.5327  -22.7930  -46.0159 C.2       16 UNK         0.5000 
     93 O          -8.7307  -22.7334  -45.7359 O.2       16 UNK        -0.5000 
     94 N          -6.7381  -21.7142  -46.1150 N.am      17 UNK        -0.5000 
     95 CA         -7.0735  -20.2906  -45.9636 C.3       17 UNK         0.1400 
     96 CB         -7.6466  -19.9791  -44.5688 C.3       17 UNK        -0.1800 
     97 C          -7.9730  -19.7381  -47.0868 C.2       17 UNK         0.5000 
     98 O          -7.6895  -18.6647  -47.6198 O.2       17 UNK        -0.5000 
     99 N          -9.0131  -20.4897  -47.4631 N.am      18 UNK        -0.5000 
    100 CA        -9.8015  -20.2794  -48.6723 C.3       18 UNK         0.1400 
    101 CB       -11.0508  -21.1717  -48.6214 C.3       18 UNK        -0.1800 
    102 C         -8.9485  -20.5983  -49.9130 C.2       18 UNK         0.5000 
    103 O         -8.3076  -21.6513  -49.9511 O.2       18 UNK        -0.5000 
    104 N         -8.9498  -19.6780  -50.8873 N.am      19 UNK        -0.5000 
    105 CA        -8.1779  -19.7215  -52.1368 C.3       19 UNK         0.1400 
    106 CB        -8.6598  -20.8747  -53.0427 C.3       19 UNK        -0.1800 
    107 C         -6.6459  -19.7239  -51.9223 C.2       19 UNK         0.5000 
    108 O         -5.9098  -20.2647  -52.7483 O.2       19 UNK        -0.5000 
    109 N         -6.1865  -19.0897  -50.8323 N.am      20 UNK        -0.5000 
    110 CA        -4.7729  -18.9708  -50.4570 C.3       20 UNK         0.1400 
    111 CB        -4.6786  -18.5742  -48.9756 C.3       20 UNK        -0.1800 
    112 C         -3.9570  -18.0018  -51.3365 C.2       20 UNK         0.5000 
    113 O         -2.7357  -17.9468  -51.1987 O.2       20 UNK        -0.5000 
    114 N         -4.6221  -17.2579  -52.2306 N.am      21 UNK        -0.5000 
    115 CA        -4.0190  -16.3639  -53.2212 C.3       21 UNK         0.1400 
    116 CB        -5.0704  -15.3251  -53.6503 C.3       21 UNK        -0.1800 
    117 C         -3.4170  -17.1404  -54.4140 C.2       21 UNK         0.5000 
    118 O         -3.7907  -16.9084  -55.5650 O.2       21 UNK        -0.5000 
    119 N         -2.4992  -18.0621  -54.1081 N.am      22 UNK        -0.5000 
    120 CA        -1.7513  -18.8960  -55.0611 C.3       22 UNK         0.1400 
    121 C         -0.6043  -18.1618  -55.8170 C.2       22 UNK         0.5000 
    122 N         -0.2305  -16.9428  -55.4466 N.am      22 UNK        -0.7600 
    123 O         -0.0488  -18.7067  -56.7668 O.2       22 UNK        -0.5000 
    124 C124       -1.2633  -20.2169  -54.4030 C.3       23 UNK        -0.0398 
    125 S125       -0.4347  -19.9908  -52.7900 S.3       23 UNK        -0.2404 
    126 C126        1.3152  -19.9385  -53.2735 C.3       23 UNK        -0.0205 
    127 H127        6.3302  -10.0738  -48.9737 H         1 UNK         0.0600 
    128 H128        6.5472  -10.5651  -47.2914 H         1 UNK         0.0600 
    129 H129        5.1364   -9.6092  -47.7579 H         1 UNK         0.0600 
    130 H130        5.5822  -11.7198  -50.2686 H         1 UNK         0.3000 
    131 H131        4.4022  -14.1275  -49.1617 H         1 UNK         0.0600 
    132 H132        6.2042  -13.9460  -51.0297 H         1 UNK         0.0800 
    133 H133        4.9234  -13.5459  -52.1161 H         1 UNK         0.0800 
    134 H134        2.6981  -15.8846  -50.5364 H         1 UNK         0.0800 
    135 H135        3.9011  -16.3538  -49.3498 H         1 UNK         0.0800 
    136 H136        2.1513  -17.4707  -52.4590 H         1 UNK         0.1150 
    137 H137        2.3738  -21.6211  -51.4195 H         1 UNK         0.1150 
    138 H138        4.2964  -18.6934  -48.9509 H         1 UNK         0.1150 
    139 H139        4.2287  -22.2084  -49.7305 H         1 UNK         0.0800 
    140 H140        4.6066  -21.0453  -48.4779 H         1 UNK         0.0800 
    141 H141        4.0039  -23.2852  -46.9550 H         1 UNK         0.0800 
    142 H142        3.4315  -24.1455  -48.3544 H         1 UNK         0.0800 
    143 H143        2.7205  -25.1779  -46.2029 H         1 UNK         0.0600 
    144 H144        1.5611  -22.5565  -45.6374 H         1 UNK         0.3000 
    145 H145       -0.4951  -22.8185  -43.8926 H         1 UNK         0.0600 
    146 H146       -0.4148  -22.9614  -41.4024 H         1 UNK         0.0600 
    147 H147       -0.5670  -24.5476  -42.1407 H         1 UNK         0.0600 
    148 H148        0.9867  -24.0278  -41.5004 H         1 UNK         0.0600 
    149 H149        0.7094  -21.0112  -43.6252 H         1 UNK         0.3000 
    150 H150        3.4998  -20.0960  -41.7387 H         1 UNK         0.0600 
    151 H151        4.5672  -20.4636  -43.9685 H         1 UNK         0.0600 
    152 H152        4.1094  -18.7802  -43.7574 H         1 UNK         0.0600 
    153 H153        3.1341  -19.8388  -44.7743 H         1 UNK         0.0600 
    154 H154        1.5966  -18.6046  -43.2684 H         1 UNK         0.3000 
    155 H155       -1.0237  -18.5908  -40.8132 H         1 UNK         0.0600 
    156 H156        0.5446  -16.7414  -40.2011 H         1 UNK         0.0600 
    157 H157       -0.7972  -16.1595  -41.1732 H         1 UNK         0.0600 
    158 H158        0.7918  -16.3786  -41.9046 H         1 UNK         0.0600 
    159 H159       -0.8645  -17.4427  -43.4162 H         1 UNK         0.3000 
    160 H160       -2.1620  -20.2825  -45.1991 H         1 UNK         0.0600 
    161 H161       -3.3618  -17.5363  -44.5657 H         1 UNK         0.0600 
    162 H162       -4.1456  -19.0871  -44.2748 H         1 UNK         0.0600 
    163 H163       -3.7995  -18.5771  -45.9199 H         1 UNK         0.0600 
    164 H164       -1.4090  -17.6996  -46.1137 H         1 UNK         0.3000 
    165 H165        2.0340  -18.4883  -46.8124 H         1 UNK         0.0600 
    166 H166        1.1362  -17.4424  -48.9497 H         1 UNK         0.0600 
    167 H167        0.7777  -19.1520  -48.7931 H         1 UNK         0.0600 
    168 H168       -0.4781  -17.9542  -48.4902 H         1 UNK         0.0600 
    169 H169        0.6203  -16.0533  -47.0740 H         1 UNK         0.3000 
    170 H170        1.2172  -14.7444  -43.7888 H         1 UNK         0.0600 
    171 H171        3.2381  -14.2491  -45.1315 H         1 UNK         0.0600 
    172 H172        2.2690  -14.0329  -46.5783 H         1 UNK         0.0600 
    173 H173        2.1039  -12.9125  -45.2276 H         1 UNK         0.0600 
    174 H174       -0.1939  -13.7980  -46.1174 H         1 UNK         0.3000 
    175 H175       -3.4110  -14.9845  -45.1513 H         1 UNK         0.0600 
    176 H176       -3.0718  -12.9411  -43.7512 H         1 UNK         0.0600 
    177 H177       -2.2298  -12.1536  -45.0805 H         1 UNK         0.0600 
    178 H178       -3.9391  -12.5629  -45.2308 H         1 UNK         0.0600 
    179 H179       -2.5341  -13.2808  -47.2677 H         1 UNK         0.3000 
    180 H180       -1.7925  -15.8321  -49.6505 H         1 UNK         0.0600 
    181 H181       -4.2671  -15.4791  -49.6902 H         1 UNK         0.0600 
    182 H182       -4.0507  -13.7662  -49.3640 H         1 UNK         0.0600 
    183 H183       -3.4795  -14.4534  -50.8796 H         1 UNK         0.0600 
    184 H184       -1.7106  -13.0122  -49.8625 H         1 UNK         0.3000 
    185 H185        0.4142  -12.0485  -50.2343 H         1 UNK         0.0600 
    186 H186       -0.7013  -11.2391  -48.1418 H         1 UNK         0.0600 
    187 H187        0.6543  -11.8124  -47.1766 H         1 UNK         0.0600 
    188 H188        0.8785  -10.4975  -48.3266 H         1 UNK         0.0600 
    189 H189        2.6412  -12.5450  -48.3756 H         1 UNK         0.3000 
    190 H190        2.0327  -26.5497  -47.9158 H         1 UNK         0.3000 
    191 H191       -0.5949  -27.2462  -47.7088 H         1 UNK         0.0600 
    192 H192        1.3894  -28.0067  -49.9153 H         1 UNK         0.0600 
    193 H193       -0.0750  -28.8988  -49.5211 H         1 UNK         0.0600 
    194 H194        1.2226  -28.7921  -48.3442 H         1 UNK         0.0600 
    195 H195        0.6308  -24.9963  -50.0926 H         1 UNK         0.3000 
    196 H196       -1.6286  -25.1510  -51.9070 H         1 UNK         0.0600 
    197 H197        0.6507  -24.4482  -52.6480 H         1 UNK         0.0600 
    198 H198        0.5655  -23.0391  -51.5883 H         1 UNK         0.0600 
    199 H199       -0.5304  -23.1844  -52.9546 H         1 UNK         0.0600 
    200 H200       -1.0790  -23.5131  -48.8551 H         1 UNK         0.3000 
    201 H201       -3.3869  -21.6619  -49.3397 H         1 UNK         0.0600 
    202 H202       -2.0187  -19.9559  -48.0946 H         1 UNK         0.0600 
    203 H203       -0.6574  -21.0715  -48.1021 H         1 UNK         0.0600 
    204 H204       -1.2845  -20.4255  -49.6195 H         1 UNK         0.0600 
    205 H205       -2.0022  -23.9929  -47.2077 H         1 UNK         0.3000 
    206 H206       -2.7828  -23.2118  -44.7117 H         1 UNK         0.0600 
    207 H207       -1.4097  -25.2207  -45.2088 H         1 UNK         0.0600 
    208 H208       -2.7536  -25.6659  -44.1765 H         1 UNK         0.0600 
    209 H209       -2.8059  -26.0419  -45.8958 H         1 UNK         0.0600 
    210 H210       -4.9884  -24.2188  -47.2039 H         1 UNK         0.3000 
    211 H211       -7.2613  -24.8650  -45.5458 H         1 UNK         0.0600 
    212 H212       -8.4806  -24.7381  -47.7199 H         1 UNK         0.0600 
    213 H213       -7.0120  -25.6861  -47.8872 H         1 UNK         0.0600 
    214 H214       -7.0694  -24.0290  -48.4924 H         1 UNK         0.0600 
    215 H215       -5.7687  -21.8734  -46.3774 H         1 UNK         0.3000 
    216 H216       -6.1216  -19.7637  -46.0444 H         1 UNK         0.0600 
    217 H217       -7.7726  -18.9042  -44.4347 H         1 UNK         0.0600 
    218 H218       -6.9777  -20.3289  -43.7824 H         1 UNK         0.0600 
    219 H219       -8.6213  -20.4414  -44.4121 H         1 UNK         0.0600 
    220 H220       -9.1506  -21.3674  -46.9706 H         1 UNK         0.3000 
    221 H221      -10.1196  -19.2351  -48.7038 H         1 UNK         0.0600 
    222 H222      -10.7879  -22.2292  -48.5669 H         1 UNK         0.0600 
    223 H223      -11.6687  -20.9354  -47.7549 H         1 UNK         0.0600 
    224 H224      -11.6673  -21.0308  -49.5100 H         1 UNK         0.0600 
    225 H225       -9.5062  -18.8446  -50.7543 H         1 UNK         0.3000 
    226 H226       -8.3999  -18.7891  -52.6578 H         1 UNK         0.0600 
    227 H227       -9.7403  -20.8417  -53.1826 H         1 UNK         0.0600 
    228 H228       -8.2048  -20.8119  -54.0319 H         1 UNK         0.0600 
    229 H229       -8.4044  -21.8505  -52.6288 H         1 UNK         0.0600 
    230 H230       -6.8554  -18.6834  -50.1926 H         1 UNK         0.3000 
    231 H231       -4.3093  -19.9512  -50.5757 H         1 UNK         0.0600 
    232 H232       -5.0692  -19.3640  -48.3348 H         1 UNK         0.0600 
    233 H233       -5.2342  -17.6603  -48.7641 H         1 UNK         0.0600 
    234 H234       -3.6455  -18.4014  -48.6745 H         1 UNK         0.0600 
    235 H235       -5.6209  -17.3826  -52.2921 H         1 UNK         0.3000 
    236 H236       -3.1936  -15.8257  -52.7523 H         1 UNK         0.0600 
    237 H237       -4.6486  -14.6099  -54.3576 H         1 UNK         0.0600 
    238 H238       -5.4336  -14.7558  -52.7945 H         1 UNK         0.0600 
    239 H239       -5.9296  -15.7956  -54.1298 H         1 UNK         0.0600 
    240 H240       -2.2613  -18.1929  -53.1290 H         1 UNK         0.3000 
    241 H241       -2.4548  -19.1850  -55.8442 H         1 UNK         0.0600 
    242 H242        0.5073  -16.4757  -55.9497 H         1 UNK         0.3800 
    243 H243       -0.6731  -16.4868  -54.6661 H         1 UNK         0.3800 
    244 H244       -2.1283  -20.8563  -54.2215 H         1 UNK         0.0800 
    245 H245       -0.6210  -20.7885  -55.0753 H         1 UNK         0.0800 
    246 H246        1.4638  -19.2046  -54.0661 H         1 UNK         0.0800 
    247 H247        1.6106  -20.9058  -53.6826 H         1 UNK         0.0800 
@<TRIPOS>BOND
     1    1    2 1    
     2    1  127 1    
     3    1  128 1    
     4    1  129 1    
     5    2    3 2    
     6    2    4 am   BACKBONE|DICT|INTERRES
     7    4    5 1    
     8    4  130 1    
     9    5    6 1    
    10    5   65 1    
    11    5  131 1    
    12    6    7 1    
    13    6  132 1    
    14    6  133 1    
    15    7    8 1    
    16    8    9 1    
    17    8  134 1    
    18    8  135 1    
    19    9   10 ar   
    20    9   14 ar   
    21   10   11 ar   
    22   10  136 1    
    23   11   12 ar   
    24   11  126 1    
    25   12   13 ar   
    26   12  137 1    
    27   13   14 ar   
    28   13   15 1    
    29   14  138 1    
    30   15   16 1    
    31   15  139 1    
    32   15  140 1    
    33   16   17 1    
    34   17   18 1    
    35   17  141 1    
    36   17  142 1    
    37   18   19 1    
    38   18   67 1    
    39   18  143 1    
    40   19   20 am   BACKBONE|DICT|INTERRES
    41   19  144 1    
    42   20   21 2    
    43   20   22 1    
    44   22   23 1    
    45   22   24 1    
    46   22  145 1    
    47   23  146 1    
    48   23  147 1    
    49   23  148 1    
    50   24   25 am   BACKBONE|DICT|INTERRES
    51   24  149 1    
    52   25   26 2    
    53   25   27 1    
    54   27   28 1    
    55   27   29 1    
    56   27  150 1    
    57   28  151 1    
    58   28  152 1    
    59   28  153 1    
    60   29   30 am   BACKBONE|DICT|INTERRES
    61   29  154 1    
    62   30   31 2    
    63   30   32 1    
    64   32   33 1    
    65   32   34 1    
    66   32  155 1    
    67   33  156 1    
    68   33  157 1    
    69   33  158 1    
    70   34   35 am   BACKBONE|DICT|INTERRES
    71   34  159 1    
    72   35   36 2    
    73   35   37 1    
    74   37   38 1    
    75   37   39 1    
    76   37  160 1    
    77   38  161 1    
    78   38  162 1    
    79   38  163 1    
    80   39   40 am   BACKBONE|DICT|INTERRES
    81   39  164 1    
    82   40   41 2    
    83   40   42 1    
    84   42   43 1    
    85   42   44 1    
    86   42  165 1    
    87   43  166 1    
    88   43  167 1    
    89   43  168 1    
    90   44   45 am   BACKBONE|DICT|INTERRES
    91   44  169 1    
    92   45   46 2    
    93   45   47 1    
    94   47   48 1    
    95   47   49 1    
    96   47  170 1    
    97   48  171 1    
    98   48  172 1    
    99   48  173 1    
   100   49   50 am   BACKBONE|DICT|INTERRES
   101   49  174 1    
   102   50   51 2    
   103   50   52 1    
   104   52   53 1    
   105   52   54 1    
   106   52  175 1    
   107   53  176 1    
   108   53  177 1    
   109   53  178 1    
   110   54   55 am   BACKBONE|DICT|INTERRES
   111   54  179 1    
   112   55   56 2    
   113   55   57 1    
   114   57   58 1    
   115   57   59 1    
   116   57  180 1    
   117   58  181 1    
   118   58  182 1    
   119   58  183 1    
   120   59   60 am   BACKBONE|DICT|INTERRES
   121   59  184 1    
   122   60   61 2    
   123   60   62 1    
   124   62   63 1    
   125   62   64 1    
   126   62  185 1    
   127   63  186 1    
   128   63  187 1    
   129   63  188 1    
   130   64   65 am   BACKBONE|DICT|INTERRES
   131   64  189 1    
   132   65   66 2    
   133   67   68 2    
   134   67   69 am   BACKBONE|DICT|INTERRES
   135   69   70 1    
   136   69  190 1    
   137   70   71 1    
   138   70   72 1    
   139   70  191 1    
   140   71  192 1    
   141   71  193 1    
   142   71  194 1    
   143   72   73 2    
   144   72   74 am   BACKBONE|DICT|INTERRES
   145   74   75 1    
   146   74  195 1    
   147   75   76 1    
   148   75   77 1    
   149   75  196 1    
   150   76  197 1    
   151   76  198 1    
   152   76  199 1    
   153   77   78 2    
   154   77   79 am   BACKBONE|DICT|INTERRES
   155   79   80 1    
   156   79  200 1    
   157   80   81 1    
   158   80   82 1    
   159   80  201 1    
   160   81  202 1    
   161   81  203 1    
   162   81  204 1    
   163   82   83 2    
   164   82   84 am   BACKBONE|DICT|INTERRES
   165   84   85 1    
   166   84  205 1    
   167   85   86 1    
   168   85   87 1    
   169   85  206 1    
   170   86  207 1    
   171   86  208 1    
   172   86  209 1    
   173   87   88 2    
   174   87   89 am   BACKBONE|DICT|INTERRES
   175   89   90 1    
   176   89  210 1    
   177   90   91 1    
   178   90   92 1    
   179   90  211 1    
   180   91  212 1    
   181   91  213 1    
   182   91  214 1    
   183   92   93 2    
   184   92   94 am   BACKBONE|DICT|INTERRES
   185   94   95 1    
   186   94  215 1    
   187   95   96 1    
   188   95   97 1    
   189   95  216 1    
   190   96  217 1    
   191   96  218 1    
   192   96  219 1    
   193   97   98 2    
   194   97   99 am   BACKBONE|DICT|INTERRES
   195   99  100 1    
   196   99  220 1    
   197  100  101 1    
   198  100  102 1    
   199  100  221 1    
   200  101  222 1    
   201  101  223 1    
   202  101  224 1    
   203  102  103 2    
   204  102  104 am   BACKBONE|DICT|INTERRES
   205  104  105 1    
   206  104  225 1    
   207  105  106 1    
   208  105  107 1    
   209  105  226 1    
   210  106  227 1    
   211  106  228 1    
   212  106  229 1    
   213  107  108 2    
   214  107  109 am   BACKBONE|DICT|INTERRES
   215  109  110 1    
   216  109  230 1    
   217  110  111 1    
   218  110  112 1    
   219  110  231 1    
   220  111  232 1    
   221  111  233 1    
   222  111  234 1    
   223  112  113 2    
   224  112  114 am   BACKBONE|DICT|INTERRES
   225  114  115 1    
   226  114  235 1    
   227  115  116 1    
   228  115  117 1    
   229  115  236 1    
   230  116  237 1    
   231  116  238 1    
   232  116  239 1    
   233  117  118 2    
   234  117  119 am   BACKBONE|DICT|INTERRES
   235  119  120 1    
   236  119  240 1    
   237  120  121 1    
   238  120  124 1    
   239  120  241 1    
   240  121  122 am   BACKBONE|DICT|INTERRES
   241  121  123 2    
   242  122  242 1    
   243  122  243 1    
   244  124  125 1    
   245  124  244 1    
   246  124  245 1    
   247  125  126 1    
   248  126  246 1    
   249  126  247 1    
@<TRIPOS>SUBSTRUCTURE
     1 UNK         1 GROUP             0       ****    0 ROOT    
