@<TRIPOS>MOLECULE
3R540
247   249    1
SMALL
USER_CHARGES


@<TRIPOS>ATOM
      1 CA         -0.9408  -11.4556  -45.4819 C.3       0 UNK        -0.1800 
      2 C          -0.1445  -11.4702  -46.7793 C.2       0 UNK         0.5000 
      3 O           0.0046  -10.4309  -47.4216 O.2       0 UNK        -0.5000 
      4 N           0.3736  -12.6439  -47.1625 N.am      1 UNK        -0.5000 
      5 CA          1.2292  -12.8513  -48.3401 C.3       1 UNK         0.1400 
      6 C6          1.2572  -14.3388  -48.7732 C.3       23 UNK        -0.0398 
      7 S7          1.7383  -15.4859  -47.4329 S.3       23 UNK        -0.2404 
      8 C8          1.3210  -17.1042  -48.1586 C.3       23 UNK        -0.0205 
      9 C9         -0.1655  -17.2538  -48.4609 C.ar      23 UNK        -0.0193 
     10 C10        -0.5993  -17.4725  -49.7720 C.ar      23 UNK        -0.1150 
     11 C11        -1.9623  -17.5947  -50.0587 C.ar      23 UNK        -0.0193 
     12 C12        -2.8955  -17.4892  -49.0227 C.ar      23 UNK        -0.1150 
     13 C13        -2.4768  -17.2630  -47.7085 C.ar      23 UNK        -0.0193 
     14 C14        -1.1094  -17.1603  -47.4343 C.ar      23 UNK        -0.1150 
     15 C15        -3.4986  -17.0676  -46.5960 C.3       23 UNK        -0.0205 
     16 S16        -3.3826  -18.3458  -45.3067 S.3       23 UNK        -0.2404 
     17 C17        -4.3996  -19.6960  -45.9944 C.3       23 UNK        -0.0398 
     18 CA         -3.6757  -20.6000  -47.0251 C.3       11 UNK         0.1400 
     19 N          -2.3014  -20.9125  -46.6230 N.am      11 UNK        -0.5000 
     20 C          -1.3927  -21.5782  -47.3458 C.2       10 UNK         0.5000 
     21 O          -1.6009  -22.0343  -48.4689 O.2       10 UNK        -0.5000 
     22 CA         -0.0445  -21.8563  -46.6581 C.3       10 UNK         0.1400 
     23 CB          0.9657  -20.7603  -47.0164 C.3       10 UNK        -0.1800 
     24 N          -0.1297  -21.9834  -45.1981 N.am      10 UNK        -0.5000 
     25 C          -0.8993  -22.8574  -44.5288 C.2       9 UNK         0.5000 
     26 O          -1.6882  -23.6256  -45.0839 O.2       9 UNK        -0.5000 
     27 CA         -0.7731  -22.8983  -42.9934 C.3       9 UNK         0.1400 
     28 CB         -0.2149  -24.2581  -42.5443 C.3       9 UNK        -0.1800 
     29 N           0.0831  -21.8394  -42.4527 N.am      9 UNK        -0.5000 
     30 C          -0.3152  -20.5909  -42.1748 C.2       8 UNK         0.5000 
     31 O          -1.4766  -20.2036  -42.3176 O.2       8 UNK        -0.5000 
     32 CA          0.7567  -19.6170  -41.6276 C.3       8 UNK         0.1400 
     33 CB          2.2098  -20.0983  -41.8449 C.3       8 UNK        -0.1800 
     34 N           0.6102  -18.2491  -42.1365 N.am      8 UNK        -0.5000 
     35 C           0.5789  -17.8639  -43.4219 C.2       7 UNK         0.5000 
     36 O           0.6340  -18.6370  -44.3774 O.2       7 UNK        -0.5000 
     37 CA          0.5208  -16.3460  -43.6776 C.3       7 UNK         0.1400 
     38 CB         -0.9196  -15.8208  -43.5968 C.3       7 UNK        -0.1800 
     39 N           1.3512  -15.5764  -42.7518 N.am      7 UNK        -0.5000 
     40 C           2.6888  -15.5964  -42.7069 C.2       6 UNK         0.5000 
     41 O           3.3872  -16.2834  -43.4537 O.2       6 UNK        -0.5000 
     42 CA          3.3424  -14.6571  -41.6710 C.3       6 UNK         0.1400 
     43 CB          4.8792  -14.7509  -41.6661 C.3       6 UNK        -0.1800 
     44 N           2.9663  -13.2610  -41.8954 N.am      6 UNK        -0.5000 
     45 C           1.8063  -12.6839  -41.5528 C.2       5 UNK         0.5000 
     46 O           0.8869  -13.2925  -41.0017 O.2       5 UNK        -0.5000 
     47 CA          1.6439  -11.1936  -41.9209 C.3       5 UNK         0.1400 
     48 CB          0.6651  -10.4436  -40.9941 C.3       5 UNK        -0.1800 
     49 N           2.9255  -10.4861  -42.0384 N.am      5 UNK        -0.5000 
     50 C           3.8143  -10.2281  -41.0638 C.2       4 UNK         0.5000 
     51 O           3.6315  -10.5147  -39.8803 O.2       4 UNK        -0.5000 
     52 CA          5.1551   -9.5782  -41.4728 C.3       4 UNK         0.1400 
     53 CB          6.3182  -10.5543  -41.2274 C.3       4 UNK        -0.1800 
     54 N           5.1988   -9.1572  -42.8743 N.am      4 UNK        -0.5000 
     55 C           4.6057   -8.0655  -43.3752 C.2       3 UNK         0.5000 
     56 O           4.0171   -7.2310  -42.6874 O.2       3 UNK        -0.5000 
     57 CA          4.6503   -7.8968  -44.9085 C.3       3 UNK         0.1400 
     58 CB          5.7758   -6.9308  -45.3090 C.3       3 UNK        -0.1800 
     59 N           4.8133   -9.1545  -45.6513 N.am      3 UNK        -0.5000 
     60 C           3.9424  -10.1724  -45.6444 C.2       2 UNK         0.5000 
     61 O           2.9211  -10.1957  -44.9521 O.2       2 UNK        -0.5000 
     62 CA          4.2989  -11.3899  -46.5073 C.3       2 UNK         0.1400 
     63 CB          5.1469  -12.3854  -45.6985 C.3       2 UNK        -0.1800 
     64 N           3.0591  -12.0448  -46.9055 N.am      2 UNK        -0.5000 
     65 C           2.6564  -12.2817  -48.1591 C.2       1 UNK         0.5000 
     66 O           3.3495  -12.0598  -49.1533 O.2       1 UNK        -0.5000 
     67 C          -4.5354  -21.8552  -47.3019 C.2       11 UNK         0.5000 
     68 O          -5.5501  -21.7454  -47.9908 O.2       11 UNK        -0.5000 
     69 N          -4.1232  -23.0114  -46.7632 N.am      12 UNK        -0.5000 
     70 CA         -4.7111  -24.3185  -47.0296 C.3       12 UNK         0.1400 
     71 CB         -5.1624  -24.9571  -45.7074 C.3       12 UNK        -0.1800 
     72 C          -3.7043  -25.2226  -47.7565 C.2       12 UNK         0.5000 
     73 O          -4.0625  -25.8124  -48.7759 O.2       12 UNK        -0.5000 
     74 N          -2.4767  -25.3207  -47.2243 N.am      13 UNK        -0.5000 
     75 CA         -1.4366  -26.2475  -47.6731 C.3       13 UNK         0.1400 
     76 CB         -0.3055  -26.2913  -46.6313 C.3       13 UNK        -0.1800 
     77 C          -0.9017  -25.9234  -49.0782 C.2       13 UNK         0.5000 
     78 O          -1.1193  -26.7016  -50.0078 O.2       13 UNK        -0.5000 
     79 N          -0.2388  -24.7661  -49.2185 N.am      14 UNK        -0.5000 
     80 CA          0.3078  -24.2683  -50.4879 C.3       14 UNK         0.1400 
     81 CB          1.2151  -23.0574  -50.2237 C.3       14 UNK        -0.1800 
     82 C          -0.7942  -23.9084  -51.5004 C.2       14 UNK         0.5000 
     83 O          -0.5767  -24.0049  -52.7075 O.2       14 UNK        -0.5000 
     84 N          -1.9727  -23.5495  -50.9772 N.am      15 UNK        -0.5000 
     85 CA         -3.2129  -23.3432  -51.7140 C.3       15 UNK         0.1400 
     86 CB         -4.2274  -22.6693  -50.7856 C.3       15 UNK        -0.1800 
     87 C          -3.8163  -24.6237  -52.3232 C.2       15 UNK         0.5000 
     88 O          -4.7787  -24.4967  -53.0779 O.2       15 UNK        -0.5000 
     89 N          -3.2631  -25.8039  -52.0037 N.am      16 UNK        -0.5000 
     90 CA         -3.6426  -27.1309  -52.4965 C.3       16 UNK         0.1400 
     91 CB         -3.4503  -27.2354  -54.0240 C.3       16 UNK        -0.1800 
     92 C          -5.0532  -27.5330  -52.0311 C.2       16 UNK         0.5000 
     93 O          -5.9418  -27.7625  -52.8522 O.2       16 UNK        -0.5000 
     94 N          -5.2223  -27.5814  -50.7029 N.am      17 UNK        -0.5000 
     95 CA         -6.4656  -27.8445  -49.9716 C.3       17 UNK         0.1400 
     96 CB         -7.0386  -29.2409  -50.2954 C.3       17 UNK        -0.1800 
     97 C          -7.4802  -26.6992  -50.1510 C.2       17 UNK         0.5000 
     98 O          -8.6676  -26.9437  -50.3706 O.2       17 UNK        -0.5000 
     99 N          -6.9681  -25.4629  -50.0488 N.am      18 UNK        -0.5000 
    100 CA        -7.6945  -24.1917  -50.1561 C.3       18 UNK         0.1400 
    101 CB        -8.6941  -24.0312  -48.9916 C.3       18 UNK        -0.1800 
    102 C         -8.3352  -23.9555  -51.5434 C.2       18 UNK         0.5000 
    103 O         -9.3725  -23.2981  -51.6403 O.2       18 UNK        -0.5000 
    104 N         -7.6879  -24.4643  -52.6011 N.am      19 UNK        -0.5000 
    105 CA        -8.0721  -24.2703  -54.0033 C.3       19 UNK         0.1400 
    106 CB        -7.5986  -25.4872  -54.8150 C.3       19 UNK        -0.1800 
    107 C         -7.5141  -22.9605  -54.6030 C.2       19 UNK         0.5000 
    108 O         -7.7926  -22.6630  -55.7651 O.2       19 UNK        -0.5000 
    109 N         -6.7349  -22.2138  -53.8059 N.am      20 UNK        -0.5000 
    110 CA        -6.0522  -20.9549  -54.1207 C.3       20 UNK         0.1400 
    111 CB        -7.0531  -19.8497  -54.5168 C.3       20 UNK        -0.1800 
    112 C         -4.8970  -21.1171  -55.1302 C.2       20 UNK         0.5000 
    113 O         -4.5431  -20.1572  -55.8182 O.2       20 UNK        -0.5000 
    114 N         -4.2772  -22.3083  -55.1618 N.am      21 UNK        -0.5000 
    115 CA        -3.1120  -22.6288  -56.0000 C.3       21 UNK         0.1400 
    116 CB        -2.8268  -24.1349  -55.9122 C.3       21 UNK        -0.1800 
    117 C         -1.8432  -21.8154  -55.6564 C.2       21 UNK         0.5000 
    118 O         -0.9223  -21.7494  -56.4711 O.2       21 UNK        -0.5000 
    119 N         -1.8357  -21.1922  -54.4727 N.am      22 UNK        -0.5000 
    120 CA        -0.8561  -20.2016  -54.0124 C.3       22 UNK         0.1400 
    121 C         -0.9102  -18.8375  -54.7656 C.2       22 UNK         0.5000 
    122 N         -1.9537  -18.5319  -55.5304 N.am      22 UNK        -0.7600 
    123 O          0.0194  -18.0431  -54.6562 O.2       22 UNK        -0.5000 
    124 C124       -0.9467  -20.0073  -52.4744 C.3       23 UNK        -0.0398 
    125 S125       -2.6260  -19.5644  -51.8933 S.3       23 UNK        -0.2404 
    126 C126       -2.4368  -17.8011  -51.4894 C.3       23 UNK        -0.0205 
    127 H127       -1.9765  -11.1800  -45.6802 H         1 UNK         0.0600 
    128 H128       -0.5183  -10.7246  -44.7925 H         1 UNK         0.0600 
    129 H129       -0.9346  -12.4287  -44.9903 H         1 UNK         0.0600 
    130 H130        0.2111  -13.4706  -46.6050 H         1 UNK         0.3000 
    131 H131        0.7863  -12.2898  -49.1656 H         1 UNK         0.0600 
    132 H132        1.9235  -14.4868  -49.6249 H         1 UNK         0.0800 
    133 H133        0.2631  -14.6156  -49.1258 H         1 UNK         0.0800 
    134 H134        1.9194  -17.2539  -49.0584 H         1 UNK         0.0800 
    135 H135        1.6242  -17.8804  -47.4567 H         1 UNK         0.0800 
    136 H136        0.1239  -17.5357  -50.5722 H         1 UNK         0.1150 
    137 H137       -3.9504  -17.5664  -49.2455 H         1 UNK         0.1150 
    138 H138       -0.7770  -16.9875  -46.4216 H         1 UNK         0.1150 
    139 H139       -3.3226  -16.0948  -46.1352 H         1 UNK         0.0800 
    140 H140       -4.5143  -17.0331  -46.9925 H         1 UNK         0.0800 
    141 H141       -5.3057  -19.2730  -46.4316 H         1 UNK         0.0800 
    142 H142       -4.7311  -20.2893  -45.1398 H         1 UNK         0.0800 
    143 H143       -3.6071  -20.0548  -47.9679 H         1 UNK         0.0600 
    144 H144       -2.0238  -20.5646  -45.7160 H         1 UNK         0.3000 
    145 H145        0.3329  -22.8046  -47.0425 H         1 UNK         0.0600 
    146 H146        1.9412  -20.9511  -46.5690 H         1 UNK         0.0600 
    147 H147        1.1079  -20.6878  -48.0948 H         1 UNK         0.0600 
    148 H148        0.6189  -19.7874  -46.6725 H         1 UNK         0.0600 
    149 H149        0.4515  -21.3545  -44.6619 H         1 UNK         0.3000 
    150 H150       -1.7796  -22.7927  -42.5831 H         1 UNK         0.0600 
    151 H151       -0.8469  -25.0766  -42.8920 H         1 UNK         0.0600 
    152 H152       -0.1692  -24.3261  -41.4572 H         1 UNK         0.0600 
    153 H153        0.7888  -24.4309  -42.9348 H         1 UNK         0.0600 
    154 H154        1.0526  -22.0799  -42.3033 H         1 UNK         0.3000 
    155 H155        0.5859  -19.5596  -40.5518 H         1 UNK         0.0600 
    156 H156        2.4345  -20.2496  -42.9016 H         1 UNK         0.0600 
    157 H157        2.9225  -19.3681  -41.4608 H         1 UNK         0.0600 
    158 H158        2.4059  -21.0340  -41.3204 H         1 UNK         0.0600 
    159 H159        0.5323  -17.5288  -41.4335 H         1 UNK         0.3000 
    160 H160        0.8928  -16.1686  -44.6875 H         1 UNK         0.0600 
    161 H161       -1.3395  -15.9449  -42.5980 H         1 UNK         0.0600 
    162 H162       -1.5678  -16.3514  -44.2909 H         1 UNK         0.0600 
    163 H163       -0.9693  -14.7627  -43.8533 H         1 UNK         0.0600 
    164 H164        0.8727  -14.9488  -42.1133 H         1 UNK         0.3000 
    165 H165        2.9871  -14.9637  -40.6850 H         1 UNK         0.0600 
    166 H166        5.3102  -14.1128  -40.8942 H         1 UNK         0.0600 
    167 H167        5.2085  -15.7707  -41.4632 H         1 UNK         0.0600 
    168 H168        5.3053  -14.4513  -42.6246 H         1 UNK         0.0600 
    169 H169        3.6481  -12.6892  -42.3697 H         1 UNK         0.3000 
    170 H170        1.2099  -11.1849  -42.9214 H         1 UNK         0.0600 
    171 H171        0.9786  -10.4842  -39.9509 H         1 UNK         0.0600 
    172 H172        0.5781   -9.3951  -41.2792 H         1 UNK         0.0600 
    173 H173       -0.3340  -10.8774  -41.0497 H         1 UNK         0.0600 
    174 H174        3.1580  -10.2046  -42.9858 H         1 UNK         0.3000 
    175 H175        5.3014   -8.7021  -40.8378 H         1 UNK         0.0600 
    176 H176        7.2773  -10.0921  -41.4620 H         1 UNK         0.0600 
    177 H177        6.2223  -11.4565  -41.8330 H         1 UNK         0.0600 
    178 H178        6.3577  -10.8642  -40.1822 H         1 UNK         0.0600 
    179 H179        5.6719   -9.7750  -43.5168 H         1 UNK         0.3000 
    180 H180        3.6982   -7.4561  -45.2113 H         1 UNK         0.0600 
    181 H181        6.7584   -7.3315  -45.0569 H         1 UNK         0.0600 
    182 H182        5.6706   -5.9732  -44.7971 H         1 UNK         0.0600 
    183 H183        5.7596   -6.7273  -46.3799 H         1 UNK         0.0600 
    184 H184        5.6378   -9.2229  -46.2311 H         1 UNK         0.3000 
    185 H185        4.8630  -11.0537  -47.3797 H         1 UNK         0.0600 
    186 H186        4.6252  -12.7291  -44.8041 H         1 UNK         0.0600 
    187 H187        5.3943  -13.2633  -46.2955 H         1 UNK         0.0600 
    188 H188        6.0874  -11.9341  -45.3799 H         1 UNK         0.0600 
    189 H189        2.3892  -12.1781  -46.1611 H         1 UNK         0.3000 
    190 H190       -3.2728  -23.0075  -46.2110 H         1 UNK         0.3000 
    191 H191       -5.5888  -24.2232  -47.6715 H         1 UNK         0.0600 
    192 H192       -5.9313  -24.3535  -45.2250 H         1 UNK         0.0600 
    193 H193       -5.5855  -25.9483  -45.8761 H         1 UNK         0.0600 
    194 H194       -4.3350  -25.0657  -45.0048 H         1 UNK         0.0600 
    195 H195       -2.2572  -24.7799  -46.3915 H         1 UNK         0.3000 
    196 H196       -1.8808  -27.2442  -47.7185 H         1 UNK         0.0600 
    197 H197        0.4846  -26.9771  -46.9398 H         1 UNK         0.0600 
    198 H198       -0.6764  -26.6375  -45.6663 H         1 UNK         0.0600 
    199 H199        0.1495  -25.3128  -46.4768 H         1 UNK         0.0600 
    200 H200       -0.1567  -24.1560  -48.4210 H         1 UNK         0.3000 
    201 H201        0.9158  -25.0625  -50.9261 H         1 UNK         0.0600 
    202 H202        1.7232  -22.7495  -51.1383 H         1 UNK         0.0600 
    203 H203        0.6474  -22.1989  -49.8668 H         1 UNK         0.0600 
    204 H204        1.9841  -23.2874  -49.4860 H         1 UNK         0.0600 
    205 H205       -2.0116  -23.3940  -49.9757 H         1 UNK         0.3000 
    206 H206       -2.9999  -22.6633  -52.5366 H         1 UNK         0.0600 
    207 H207       -3.8118  -21.7733  -50.3252 H         1 UNK         0.0600 
    208 H208       -5.1228  -22.3666  -51.3267 H         1 UNK         0.0600 
    209 H209       -4.5337  -23.3404  -49.9852 H         1 UNK         0.0600 
    210 H210       -2.4996  -25.8045  -51.3370 H         1 UNK         0.3000 
    211 H211       -2.9503  -27.8365  -52.0346 H         1 UNK         0.0600 
    212 H212       -4.1458  -26.5973  -54.5691 H         1 UNK         0.0600 
    213 H213       -3.6151  -28.2578  -54.3654 H         1 UNK         0.0600 
    214 H214       -2.4379  -26.9546  -54.3139 H         1 UNK         0.0600 
    215 H215       -4.4514  -27.2720  -50.1187 H         1 UNK         0.3000 
    216 H216       -6.1970  -27.8442  -48.9141 H         1 UNK         0.0600 
    217 H217       -7.8704  -29.4810  -49.6323 H         1 UNK         0.0600 
    218 H218       -6.2846  -30.0168  -50.1635 H         1 UNK         0.0600 
    219 H219       -7.4119  -29.3047  -51.3176 H         1 UNK         0.0600 
    220 H220       -5.9739  -25.3959  -49.8698 H         1 UNK         0.3000 
    221 H221       -6.9490  -23.4060  -50.0378 H         1 UNK         0.0600 
    222 H222       -9.5225  -24.7360  -49.0661 H         1 UNK         0.0600 
    223 H223       -8.2061  -24.1853  -48.0292 H         1 UNK         0.0600 
    224 H224       -9.1200  -23.0273  -48.9779 H         1 UNK         0.0600 
    225 H225       -6.8214  -24.9683  -52.4557 H         1 UNK         0.3000 
    226 H226       -9.1605  -24.2219  -54.0732 H         1 UNK         0.0600 
    227 H227       -8.0071  -26.4134  -54.4102 H         1 UNK         0.0600 
    228 H228       -7.9216  -25.4173  -55.8543 H         1 UNK         0.0600 
    229 H229       -6.5118  -25.5750  -54.8149 H         1 UNK         0.0600 
    230 H230       -6.5518  -22.5940  -52.8898 H         1 UNK         0.3000 
    231 H231       -5.5800  -20.6361  -53.1904 H         1 UNK         0.0600 
    232 H232       -7.5044  -20.0387  -55.4909 H         1 UNK         0.0600 
    233 H233       -6.5600  -18.8784  -54.5711 H         1 UNK         0.0600 
    234 H234       -7.8559  -19.7633  -53.7845 H         1 UNK         0.0600 
    235 H235       -4.6298  -23.0554  -54.5729 H         1 UNK         0.3000 
    236 H236       -3.3769  -22.3933  -57.0327 H         1 UNK         0.0600 
    237 H237       -3.7137  -24.7217  -56.1516 H         1 UNK         0.0600 
    238 H238       -2.0455  -24.4246  -56.6157 H         1 UNK         0.0600 
    239 H239       -2.4877  -24.4215  -54.9170 H         1 UNK         0.0600 
    240 H240       -2.6500  -21.2861  -53.8875 H         1 UNK         0.3000 
    241 H241        0.1315  -20.6146  -54.2256 H         1 UNK         0.0600 
    242 H242       -1.9678  -17.6476  -56.0130 H         1 UNK         0.3800 
    243 H243       -2.7430  -19.1613  -55.6214 H         1 UNK         0.3800 
    244 H244       -0.6668  -20.9361  -51.9774 H         1 UNK         0.0800 
    245 H245       -0.2189  -19.2710  -52.1325 H         1 UNK         0.0800 
    246 H246       -1.7551  -17.3226  -52.1941 H         1 UNK         0.0800 
    247 H247       -3.4011  -17.3099  -51.6276 H         1 UNK         0.0800 
@<TRIPOS>BOND
     1    1    2 1    
     2    1  127 1    
     3    1  128 1    
     4    1  129 1    
     5    2    3 2    
     6    2    4 am   BACKBONE|DICT|INTERRES
     7    4    5 1    
     8    4  130 1    
     9    5    6 1    
    10    5   65 1    
    11    5  131 1    
    12    6    7 1    
    13    6  132 1    
    14    6  133 1    
    15    7    8 1    
    16    8    9 1    
    17    8  134 1    
    18    8  135 1    
    19    9   10 ar   
    20    9   14 ar   
    21   10   11 ar   
    22   10  136 1    
    23   11   12 ar   
    24   11  126 1    
    25   12   13 ar   
    26   12  137 1    
    27   13   14 ar   
    28   13   15 1    
    29   14  138 1    
    30   15   16 1    
    31   15  139 1    
    32   15  140 1    
    33   16   17 1    
    34   17   18 1    
    35   17  141 1    
    36   17  142 1    
    37   18   19 1    
    38   18   67 1    
    39   18  143 1    
    40   19   20 am   BACKBONE|DICT|INTERRES
    41   19  144 1    
    42   20   21 2    
    43   20   22 1    
    44   22   23 1    
    45   22   24 1    
    46   22  145 1    
    47   23  146 1    
    48   23  147 1    
    49   23  148 1    
    50   24   25 am   BACKBONE|DICT|INTERRES
    51   24  149 1    
    52   25   26 2    
    53   25   27 1    
    54   27   28 1    
    55   27   29 1    
    56   27  150 1    
    57   28  151 1    
    58   28  152 1    
    59   28  153 1    
    60   29   30 am   BACKBONE|DICT|INTERRES
    61   29  154 1    
    62   30   31 2    
    63   30   32 1    
    64   32   33 1    
    65   32   34 1    
    66   32  155 1    
    67   33  156 1    
    68   33  157 1    
    69   33  158 1    
    70   34   35 am   BACKBONE|DICT|INTERRES
    71   34  159 1    
    72   35   36 2    
    73   35   37 1    
    74   37   38 1    
    75   37   39 1    
    76   37  160 1    
    77   38  161 1    
    78   38  162 1    
    79   38  163 1    
    80   39   40 am   BACKBONE|DICT|INTERRES
    81   39  164 1    
    82   40   41 2    
    83   40   42 1    
    84   42   43 1    
    85   42   44 1    
    86   42  165 1    
    87   43  166 1    
    88   43  167 1    
    89   43  168 1    
    90   44   45 am   BACKBONE|DICT|INTERRES
    91   44  169 1    
    92   45   46 2    
    93   45   47 1    
    94   47   48 1    
    95   47   49 1    
    96   47  170 1    
    97   48  171 1    
    98   48  172 1    
    99   48  173 1    
   100   49   50 am   BACKBONE|DICT|INTERRES
   101   49  174 1    
   102   50   51 2    
   103   50   52 1    
   104   52   53 1    
   105   52   54 1    
   106   52  175 1    
   107   53  176 1    
   108   53  177 1    
   109   53  178 1    
   110   54   55 am   BACKBONE|DICT|INTERRES
   111   54  179 1    
   112   55   56 2    
   113   55   57 1    
   114   57   58 1    
   115   57   59 1    
   116   57  180 1    
   117   58  181 1    
   118   58  182 1    
   119   58  183 1    
   120   59   60 am   BACKBONE|DICT|INTERRES
   121   59  184 1    
   122   60   61 2    
   123   60   62 1    
   124   62   63 1    
   125   62   64 1    
   126   62  185 1    
   127   63  186 1    
   128   63  187 1    
   129   63  188 1    
   130   64   65 am   BACKBONE|DICT|INTERRES
   131   64  189 1    
   132   65   66 2    
   133   67   68 2    
   134   67   69 am   BACKBONE|DICT|INTERRES
   135   69   70 1    
   136   69  190 1    
   137   70   71 1    
   138   70   72 1    
   139   70  191 1    
   140   71  192 1    
   141   71  193 1    
   142   71  194 1    
   143   72   73 2    
   144   72   74 am   BACKBONE|DICT|INTERRES
   145   74   75 1    
   146   74  195 1    
   147   75   76 1    
   148   75   77 1    
   149   75  196 1    
   150   76  197 1    
   151   76  198 1    
   152   76  199 1    
   153   77   78 2    
   154   77   79 am   BACKBONE|DICT|INTERRES
   155   79   80 1    
   156   79  200 1    
   157   80   81 1    
   158   80   82 1    
   159   80  201 1    
   160   81  202 1    
   161   81  203 1    
   162   81  204 1    
   163   82   83 2    
   164   82   84 am   BACKBONE|DICT|INTERRES
   165   84   85 1    
   166   84  205 1    
   167   85   86 1    
   168   85   87 1    
   169   85  206 1    
   170   86  207 1    
   171   86  208 1    
   172   86  209 1    
   173   87   88 2    
   174   87   89 am   BACKBONE|DICT|INTERRES
   175   89   90 1    
   176   89  210 1    
   177   90   91 1    
   178   90   92 1    
   179   90  211 1    
   180   91  212 1    
   181   91  213 1    
   182   91  214 1    
   183   92   93 2    
   184   92   94 am   BACKBONE|DICT|INTERRES
   185   94   95 1    
   186   94  215 1    
   187   95   96 1    
   188   95   97 1    
   189   95  216 1    
   190   96  217 1    
   191   96  218 1    
   192   96  219 1    
   193   97   98 2    
   194   97   99 am   BACKBONE|DICT|INTERRES
   195   99  100 1    
   196   99  220 1    
   197  100  101 1    
   198  100  102 1    
   199  100  221 1    
   200  101  222 1    
   201  101  223 1    
   202  101  224 1    
   203  102  103 2    
   204  102  104 am   BACKBONE|DICT|INTERRES
   205  104  105 1    
   206  104  225 1    
   207  105  106 1    
   208  105  107 1    
   209  105  226 1    
   210  106  227 1    
   211  106  228 1    
   212  106  229 1    
   213  107  108 2    
   214  107  109 am   BACKBONE|DICT|INTERRES
   215  109  110 1    
   216  109  230 1    
   217  110  111 1    
   218  110  112 1    
   219  110  231 1    
   220  111  232 1    
   221  111  233 1    
   222  111  234 1    
   223  112  113 2    
   224  112  114 am   BACKBONE|DICT|INTERRES
   225  114  115 1    
   226  114  235 1    
   227  115  116 1    
   228  115  117 1    
   229  115  236 1    
   230  116  237 1    
   231  116  238 1    
   232  116  239 1    
   233  117  118 2    
   234  117  119 am   BACKBONE|DICT|INTERRES
   235  119  120 1    
   236  119  240 1    
   237  120  121 1    
   238  120  124 1    
   239  120  241 1    
   240  121  122 am   BACKBONE|DICT|INTERRES
   241  121  123 2    
   242  122  242 1    
   243  122  243 1    
   244  124  125 1    
   245  124  244 1    
   246  124  245 1    
   247  125  126 1    
   248  126  246 1    
   249  126  247 1    
@<TRIPOS>SUBSTRUCTURE
     1 UNK         1 GROUP             0       ****    0 ROOT    
