@<TRIPOS>MOLECULE
3R540
247   249    1
SMALL
USER_CHARGES


@<TRIPOS>ATOM
      1 CA         -2.2569  -18.2196  -41.5067 C.3       0 UNK        -0.1800 
      2 C          -2.6875  -17.0861  -42.4277 C.2       0 UNK         0.5000 
      3 O          -3.7544  -17.1597  -43.0347 O.2       0 UNK        -0.5000 
      4 N          -1.8608  -16.0426  -42.5378 N.am      1 UNK        -0.5000 
      5 CA         -2.0822  -14.8722  -43.3801 C.3       1 UNK         0.1400 
      6 C6         -1.7817  -15.1677  -44.8718 C.3       23 UNK        -0.0398 
      7 S7         -2.3166  -13.8290  -45.9922 S.3       23 UNK        -0.2404 
      8 C8         -3.9336  -14.4287  -46.5799 C.3       23 UNK        -0.0205 
      9 C9         -3.8191  -15.6958  -47.4152 C.ar      23 UNK        -0.0193 
     10 C10        -3.0380  -15.7120  -48.5735 C.ar      23 UNK        -0.1150 
     11 C11        -2.9037  -16.8814  -49.3266 C.ar      23 UNK        -0.0193 
     12 C12        -3.5773  -18.0382  -48.9214 C.ar      23 UNK        -0.1150 
     13 C13        -4.3702  -18.0342  -47.7700 C.ar      23 UNK        -0.0193 
     14 C14        -4.4934  -16.8556  -47.0272 C.ar      23 UNK        -0.1150 
     15 C15        -5.0754  -19.3098  -47.3245 C.3       23 UNK        -0.0205 
     16 S16        -4.7784  -19.7206  -45.5700 S.3       23 UNK        -0.2404 
     17 C17        -2.9566  -19.8373  -45.5102 C.3       23 UNK        -0.0398 
     18 CA         -2.4442  -21.2401  -45.9046 C.3       11 UNK         0.1400 
     19 N          -1.0922  -21.1920  -46.4710 N.am      11 UNK        -0.5000 
     20 C          -0.5005  -22.1999  -47.1274 C.2       10 UNK         0.5000 
     21 O          -1.0239  -23.3003  -47.2969 O.2       10 UNK        -0.5000 
     22 CA          0.9279  -21.9545  -47.6436 C.3       10 UNK         0.1400 
     23 CB          0.9253  -21.0386  -48.8750 C.3       10 UNK        -0.1800 
     24 N           1.7906  -21.3876  -46.6100 N.am      10 UNK        -0.5000 
     25 C           2.1752  -22.0445  -45.5075 C.2       9 UNK         0.5000 
     26 O           1.9252  -23.2315  -45.2990 O.2       9 UNK        -0.5000 
     27 CA          2.9363  -21.2346  -44.4422 C.3       9 UNK         0.1400 
     28 CB          4.4400  -21.2081  -44.7532 C.3       9 UNK        -0.1800 
     29 N           2.4407  -19.8641  -44.3020 N.am      9 UNK        -0.5000 
     30 C           1.2081  -19.5339  -43.8913 C.2       8 UNK         0.5000 
     31 O           0.3552  -20.3540  -43.5541 O.2       8 UNK        -0.5000 
     32 CA          0.8494  -18.0375  -43.9076 C.3       8 UNK         0.1400 
     33 CB          1.4537  -17.3132  -42.6963 C.3       8 UNK        -0.1800 
     34 N           1.2640  -17.3718  -45.1421 N.am      8 UNK        -0.5000 
     35 C           0.7921  -17.6821  -46.3582 C.2       7 UNK         0.5000 
     36 O          -0.0782  -18.5275  -46.5532 O.2       7 UNK        -0.5000 
     37 CA          1.4449  -16.9771  -47.5581 C.3       7 UNK         0.1400 
     38 CB          0.8290  -15.5897  -47.7953 C.3       7 UNK        -0.1800 
     39 N           2.8940  -16.8641  -47.3950 N.am      7 UNK        -0.5000 
     40 C           3.7356  -17.9084  -47.4225 C.2       6 UNK         0.5000 
     41 O           3.3824  -19.0668  -47.6407 O.2       6 UNK        -0.5000 
     42 CA          5.2127  -17.6125  -47.1056 C.3       6 UNK         0.1400 
     43 CB          5.9438  -17.1040  -48.3570 C.3       6 UNK        -0.1800 
     44 N           5.3664  -16.6386  -46.0238 N.am      6 UNK        -0.5000 
     45 C           5.0033  -16.8528  -44.7506 C.2       5 UNK         0.5000 
     46 O           4.5545  -17.9216  -44.3407 O.2       5 UNK        -0.5000 
     47 CA          5.1091  -15.6548  -43.7879 C.3       5 UNK         0.1400 
     48 CB          6.4974  -15.6080  -43.1335 C.3       5 UNK        -0.1800 
     49 N           4.8376  -14.3760  -44.4497 N.am      5 UNK        -0.5000 
     50 C           3.6535  -14.0340  -44.9726 C.2       4 UNK         0.5000 
     51 O           2.6436  -14.7410  -44.9122 O.2       4 UNK        -0.5000 
     52 CA          3.6196  -12.7248  -45.7664 C.3       4 UNK         0.1400 
     53 CB          4.1005  -12.9781  -47.2102 C.3       4 UNK        -0.1800 
     54 N           2.2577  -12.2032  -45.7669 N.am      4 UNK        -0.5000 
     55 C           1.8987  -10.9778  -46.1661 C.2       3 UNK         0.5000 
     56 O           2.6930  -10.1253  -46.5659 O.2       3 UNK        -0.5000 
     57 CA          0.3985  -10.6419  -46.1099 C.3       3 UNK         0.1400 
     58 CB         -0.3097  -11.1578  -47.3724 C.3       3 UNK        -0.1800 
     59 N          -0.2774  -11.1646  -44.9197 N.am      3 UNK        -0.5000 
     60 C          -0.0663  -10.7234  -43.6696 C.2       2 UNK         0.5000 
     61 O           0.7802   -9.8762  -43.3823 O.2       2 UNK        -0.5000 
     62 CA         -0.9673  -11.2849  -42.5511 C.3       2 UNK         0.1400 
     63 CB         -1.9956  -10.2284  -42.1157 C.3       2 UNK        -0.1800 
     64 N          -1.6865  -12.4947  -42.9530 N.am      2 UNK        -0.5000 
     65 C          -1.2064  -13.7361  -42.8238 C.2       1 UNK         0.5000 
     66 O          -0.1213  -14.0014  -42.3012 O.2       1 UNK        -0.5000 
     67 C          -2.5894  -22.2538  -44.7482 C.2       11 UNK         0.5000 
     68 O          -3.6770  -22.7973  -44.5562 O.2       11 UNK        -0.5000 
     69 N          -1.4910  -22.5675  -44.0467 N.am      12 UNK        -0.5000 
     70 CA         -1.4133  -23.6618  -43.0726 C.3       12 UNK         0.1400 
     71 CB         -0.0671  -23.5958  -42.3366 C.3       12 UNK        -0.1800 
     72 C          -1.6346  -25.0598  -43.6961 C.2       12 UNK         0.5000 
     73 O          -2.0145  -25.9850  -42.9781 O.2       12 UNK        -0.5000 
     74 N          -1.4370  -25.1776  -45.0166 N.am      13 UNK        -0.5000 
     75 CA         -1.7652  -26.3414  -45.8397 C.3       13 UNK         0.1400 
     76 CB         -0.5085  -26.7508  -46.6282 C.3       13 UNK        -0.1800 
     77 C          -2.9581  -26.0381  -46.7752 C.2       13 UNK         0.5000 
     78 O          -3.1000  -26.6863  -47.8124 O.2       13 UNK        -0.5000 
     79 N          -3.7769  -25.0357  -46.4180 N.am      14 UNK        -0.5000 
     80 CA         -4.9697  -24.5025  -47.0927 C.3       14 UNK         0.1400 
     81 CB         -6.0420  -25.5933  -47.2768 C.3       14 UNK        -0.1800 
     82 C          -4.7134  -23.7587  -48.4187 C.2       14 UNK         0.5000 
     83 O          -5.5602  -22.9600  -48.8228 O.2       14 UNK        -0.5000 
     84 N          -3.5915  -24.0437  -49.0961 N.am      15 UNK        -0.5000 
     85 CA         -3.1637  -23.5068  -50.3972 C.3       15 UNK         0.1400 
     86 CB         -2.8549  -21.9996  -50.2767 C.3       15 UNK        -0.1800 
     87 C          -4.1572  -23.7950  -51.5468 C.2       15 UNK         0.5000 
     88 O          -4.1312  -23.1013  -52.5653 O.2       15 UNK        -0.5000 
     89 N          -5.0503  -24.7767  -51.3466 N.am      16 UNK        -0.5000 
     90 CA         -6.2434  -25.0722  -52.1497 C.3       16 UNK         0.1400 
     91 CB         -5.8505  -25.6787  -53.5109 C.3       16 UNK        -0.1800 
     92 C          -7.1920  -23.8571  -52.2790 C.2       16 UNK         0.5000 
     93 O          -7.7855  -23.6527  -53.3377 O.2       16 UNK        -0.5000 
     94 N          -7.2918  -23.0642  -51.1991 N.am      17 UNK        -0.5000 
     95 CA         -7.9827  -21.7741  -51.1063 C.3       17 UNK         0.1400 
     96 CB         -9.5009  -21.9207  -51.3450 C.3       17 UNK        -0.1800 
     97 C          -7.3137  -20.7032  -51.9936 C.2       17 UNK         0.5000 
     98 O          -7.9929  -20.0062  -52.7494 O.2       17 UNK        -0.5000 
     99 N          -5.9811  -20.6061  -51.8661 N.am      18 UNK        -0.5000 
    100 CA        -5.0779  -19.6863  -52.5691 C.3       18 UNK         0.1400 
    101 CB        -5.3834  -18.2216  -52.1889 C.3       18 UNK        -0.1800 
    102 C         -5.0521  -19.9185  -54.0952 C.2       18 UNK         0.5000 
    103 O         -5.0937  -18.9579  -54.8672 O.2       18 UNK        -0.5000 
    104 N         -4.9970  -21.1932  -54.5003 N.am      19 UNK        -0.5000 
    105 CA        -4.9991  -21.6250  -55.8992 C.3       19 UNK         0.1400 
    106 CB        -6.3096  -22.3673  -56.2008 C.3       19 UNK        -0.1800 
    107 C         -3.7896  -22.5111  -56.2362 C.2       19 UNK         0.5000 
    108 O         -3.2708  -22.4139  -57.3491 O.2       19 UNK        -0.5000 
    109 N         -3.3511  -23.3512  -55.2885 N.am      20 UNK        -0.5000 
    110 CA        -2.1890  -24.2311  -55.4445 C.3       20 UNK         0.1400 
    111 CB        -2.4140  -25.5192  -54.6376 C.3       20 UNK        -0.1800 
    112 C         -0.8817  -23.5470  -55.0089 C.2       20 UNK         0.5000 
    113 O          0.1962  -23.9899  -55.4079 O.2       20 UNK        -0.5000 
    114 N         -0.9962  -22.4851  -54.2062 N.am      21 UNK        -0.5000 
    115 CA         0.0978  -21.6624  -53.7133 C.3       21 UNK         0.1400 
    116 CB         0.6858  -22.2955  -52.4410 C.3       21 UNK        -0.1800 
    117 C         -0.4424  -20.2528  -53.4418 C.2       21 UNK         0.5000 
    118 O         -1.6499  -20.0976  -53.2434 O.2       21 UNK        -0.5000 
    119 N          0.4676  -19.2712  -53.4576 N.am      22 UNK        -0.5000 
    120 CA         0.3257  -17.8257  -53.1741 C.3       22 UNK         0.1400 
    121 C         -0.8228  -17.0125  -53.8523 C.2       22 UNK         0.5000 
    122 N         -1.8262  -17.6290  -54.4552 N.am      22 UNK        -0.7600 
    123 O         -0.7772  -15.7854  -53.8599 O.2       22 UNK        -0.5000 
    124 C124        0.4945  -17.4796  -51.6681 C.3       23 UNK        -0.0398 
    125 S125       -0.7610  -18.1755  -50.5403 S.3       23 UNK        -0.2404 
    126 C126       -2.0386  -16.8797  -50.5787 C.3       23 UNK        -0.0205 
    127 H127       -2.0537  -19.1199  -42.0869 H         1 UNK         0.0600 
    128 H128       -3.0485  -18.4448  -40.7921 H         1 UNK         0.0600 
    129 H129       -1.3570  -17.9663  -40.9460 H         1 UNK         0.0600 
    130 H130       -1.0114  -15.9875  -41.9890 H         1 UNK         0.3000 
    131 H131       -3.1287  -14.5766  -43.2766 H         1 UNK         0.0600 
    132 H132       -0.7130  -15.3288  -45.0183 H         1 UNK         0.0800 
    133 H133       -2.2611  -16.0978  -45.1785 H         1 UNK         0.0800 
    134 H134       -4.5874  -14.5843  -45.7202 H         1 UNK         0.0800 
    135 H135       -4.3992  -13.6500  -47.1853 H         1 UNK         0.0800 
    136 H136       -2.5212  -14.8122  -48.8762 H         1 UNK         0.1150 
    137 H137       -3.4717  -18.9438  -49.5019 H         1 UNK         0.1150 
    138 H138       -5.0985  -16.8507  -46.1313 H         1 UNK         0.1150 
    139 H139       -6.1479  -19.1902  -47.4816 H         1 UNK         0.0800 
    140 H140       -4.7680  -20.1578  -47.9388 H         1 UNK         0.0800 
    141 H141       -2.6102  -19.5551  -44.5149 H         1 UNK         0.0800 
    142 H142       -2.5472  -19.0814  -46.1784 H         1 UNK         0.0800 
    143 H143       -3.0786  -21.6083  -46.7139 H         1 UNK         0.0600 
    144 H144       -0.6075  -20.2990  -46.4037 H         1 UNK         0.3000 
    145 H145        1.3420  -22.9195  -47.9435 H         1 UNK         0.0600 
    146 H146        1.9176  -20.9733  -49.3212 H         1 UNK         0.0600 
    147 H147        0.2452  -21.4103  -49.6397 H         1 UNK         0.0600 
    148 H148        0.6080  -20.0278  -48.6238 H         1 UNK         0.0600 
    149 H149        2.0931  -20.4287  -46.7419 H         1 UNK         0.3000 
    150 H150        2.7954  -21.7375  -43.4832 H         1 UNK         0.0600 
    151 H151        4.8385  -22.2191  -44.8460 H         1 UNK         0.0600 
    152 H152        4.9976  -20.7102  -43.9597 H         1 UNK         0.0600 
    153 H153        4.6480  -20.6848  -45.6869 H         1 UNK         0.0600 
    154 H154        3.1036  -19.1208  -44.5075 H         1 UNK         0.3000 
    155 H155       -0.2367  -17.9604  -43.8491 H         1 UNK         0.0600 
    156 H156        1.0561  -17.7155  -41.7642 H         1 UNK         0.0600 
    157 H157        1.2284  -16.2479  -42.7189 H         1 UNK         0.0600 
    158 H158        2.5371  -17.4200  -42.6593 H         1 UNK         0.0600 
    159 H159        1.9481  -16.6272  -45.0579 H         1 UNK         0.3000 
    160 H160        1.2532  -17.5859  -48.4432 H         1 UNK         0.0600 
    161 H161        0.9965  -14.9155  -46.9560 H         1 UNK         0.0600 
    162 H162       -0.2488  -15.6679  -47.9380 H         1 UNK         0.0600 
    163 H163        1.2406  -15.1227  -48.6899 H         1 UNK         0.0600 
    164 H164        3.2563  -15.9529  -47.1613 H         1 UNK         0.3000 
    165 H165        5.6809  -18.5475  -46.7908 H         1 UNK         0.0600 
    166 H166        7.0071  -16.9632  -48.1621 H         1 UNK         0.0600 
    167 H167        5.8567  -17.8189  -49.1764 H         1 UNK         0.0600 
    168 H168        5.5373  -16.1537  -48.7055 H         1 UNK         0.0600 
    169 H169        5.7405  -15.7352  -46.2720 H         1 UNK         0.3000 
    170 H170        4.3646  -15.7930  -43.0013 H         1 UNK         0.0600 
    171 H171        6.7155  -16.5429  -42.6153 H         1 UNK         0.0600 
    172 H172        7.2863  -15.4489  -43.8697 H         1 UNK         0.0600 
    173 H173        6.5589  -14.8076  -42.3960 H         1 UNK         0.0600 
    174 H174        5.6194  -13.7434  -44.5441 H         1 UNK         0.3000 
    175 H175        4.2756  -12.0017  -45.2775 H         1 UNK         0.0600 
    176 H176        3.4297  -13.6521  -47.7441 H         1 UNK         0.0600 
    177 H177        4.1616  -12.0518  -47.7810 H         1 UNK         0.0600 
    178 H178        5.0958  -13.4236  -47.2243 H         1 UNK         0.0600 
    179 H179        1.5605  -12.8465  -45.4144 H         1 UNK         0.3000 
    180 H180        0.3039   -9.5540  -46.0935 H         1 UNK         0.0600 
    181 H181       -0.2237  -12.2406  -47.4701 H         1 UNK         0.0600 
    182 H182        0.1249  -10.7154  -48.2697 H         1 UNK         0.0600 
    183 H183       -1.3697  -10.9029  -47.3659 H         1 UNK         0.0600 
    184 H184       -0.9858  -11.8680  -45.0736 H         1 UNK         0.3000 
    185 H185       -0.3275  -11.5055  -41.6938 H         1 UNK         0.0600 
    186 H186       -1.5014   -9.3173  -41.7755 H         1 UNK         0.0600 
    187 H187       -2.6630   -9.9539  -42.9335 H         1 UNK         0.0600 
    188 H188       -2.6075  -10.5911  -41.2896 H         1 UNK         0.0600 
    189 H189       -2.5876  -12.3569  -43.3889 H         1 UNK         0.3000 
    190 H190       -0.6475  -22.0225  -44.1920 H         1 UNK         0.3000 
    191 H191       -2.2063  -23.5055  -42.3386 H         1 UNK         0.0600 
    192 H192        0.7703  -23.7661  -43.0120 H         1 UNK         0.0600 
    193 H193        0.0768  -22.6258  -41.8603 H         1 UNK         0.0600 
    194 H194       -0.0139  -24.3533  -41.5537 H         1 UNK         0.0600 
    195 H195       -1.1353  -24.3613  -45.5391 H         1 UNK         0.3000 
    196 H196       -2.0621  -27.1830  -45.2113 H         1 UNK         0.0600 
    197 H197        0.3270  -26.9536  -45.9580 H         1 UNK         0.0600 
    198 H198       -0.1975  -25.9688  -47.3220 H         1 UNK         0.0600 
    199 H199       -0.6839  -27.6572  -47.2088 H         1 UNK         0.0600 
    200 H200       -3.5435  -24.5336  -45.5682 H         1 UNK         0.3000 
    201 H201       -5.3820  -23.7573  -46.4112 H         1 UNK         0.0600 
    202 H202       -6.9696  -25.1664  -47.6605 H         1 UNK         0.0600 
    203 H203       -6.2773  -26.0779  -46.3292 H         1 UNK         0.0600 
    204 H204       -5.7264  -26.3648  -47.9793 H         1 UNK         0.0600 
    205 H205       -2.9839  -24.7462  -48.6916 H         1 UNK         0.3000 
    206 H206       -2.2367  -24.0200  -50.6559 H         1 UNK         0.0600 
    207 H207       -2.1523  -21.8019  -49.4701 H         1 UNK         0.0600 
    208 H208       -3.7515  -21.4133  -50.0794 H         1 UNK         0.0600 
    209 H209       -2.4071  -21.6140  -51.1918 H         1 UNK         0.0600 
    210 H210       -4.9690  -25.2965  -50.4845 H         1 UNK         0.3000 
    211 H211       -6.8011  -25.8321  -51.6008 H         1 UNK         0.0600 
    212 H212       -5.1825  -26.5303  -53.3844 H         1 UNK         0.0600 
    213 H213       -6.7298  -26.0344  -54.0489 H         1 UNK         0.0600 
    214 H214       -5.3531  -24.9505  -54.1490 H         1 UNK         0.0600 
    215 H215       -6.7346  -23.2978  -50.3826 H         1 UNK         0.3000 
    216 H216       -7.8507  -21.4374  -50.0768 H         1 UNK         0.0600 
    217 H217      -10.0181  -20.9854  -51.1284 H         1 UNK         0.0600 
    218 H218       -9.7314  -22.1854  -52.3770 H         1 UNK         0.0600 
    219 H219       -9.9295  -22.6857  -50.6978 H         1 UNK         0.0600 
    220 H220       -5.5291  -21.2640  -51.2484 H         1 UNK         0.3000 
    221 H221       -4.0740  -19.9115  -52.2091 H         1 UNK         0.0600 
    222 H222       -6.3554  -17.8985  -52.5619 H         1 UNK         0.0600 
    223 H223       -5.3787  -18.0820  -51.1088 H         1 UNK         0.0600 
    224 H224       -4.6377  -17.5473  -52.6099 H         1 UNK         0.0600 
    225 H225       -4.9172  -21.9158  -53.7909 H         1 UNK         0.3000 
    226 H226       -4.9472  -20.7597  -56.5631 H         1 UNK         0.0600 
    227 H227       -7.1759  -21.7431  -55.9807 H         1 UNK         0.0600 
    228 H228       -6.3667  -22.6472  -57.2534 H         1 UNK         0.0600 
    229 H229       -6.3995  -23.2810  -55.6138 H         1 UNK         0.0600 
    230 H230       -3.7893  -23.3493  -54.3722 H         1 UNK         0.3000 
    231 H231       -2.0777  -24.5121  -56.4939 H         1 UNK         0.0600 
    232 H232       -1.5587  -26.1903  -54.7259 H         1 UNK         0.0600 
    233 H233       -3.2854  -26.0622  -55.0022 H         1 UNK         0.0600 
    234 H234       -2.5600  -25.3143  -53.5772 H         1 UNK         0.0600 
    235 H235       -1.9162  -22.1441  -53.9563 H         1 UNK         0.3000 
    236 H236        0.8730  -21.5899  -54.4793 H         1 UNK         0.0600 
    237 H237        1.1529  -23.2558  -52.6595 H         1 UNK         0.0600 
    238 H238        1.4495  -21.6567  -51.9958 H         1 UNK         0.0600 
    239 H239       -0.0856  -22.4662  -51.6903 H         1 UNK         0.0600 
    240 H240        1.4157  -19.5435  -53.6731 H         1 UNK         0.3000 
    241 H241        1.2121  -17.4122  -53.6572 H         1 UNK         0.0600 
    242 H242       -2.5586  -17.1009  -54.9011 H         1 UNK         0.3800 
    243 H243       -1.9250  -18.6295  -54.3130 H         1 UNK         0.3800 
    244 H244        1.4592  -17.8591  -51.3291 H         1 UNK         0.0800 
    245 H245        0.5551  -16.3999  -51.5232 H         1 UNK         0.0800 
    246 H246       -1.5647  -15.9054  -50.7048 H         1 UNK         0.0800 
    247 H247       -2.6709  -17.0309  -51.4526 H         1 UNK         0.0800 
@<TRIPOS>BOND
     1    1    2 1    
     2    1  127 1    
     3    1  128 1    
     4    1  129 1    
     5    2    3 2    
     6    2    4 am   BACKBONE|DICT|INTERRES
     7    4    5 1    
     8    4  130 1    
     9    5    6 1    
    10    5   65 1    
    11    5  131 1    
    12    6    7 1    
    13    6  132 1    
    14    6  133 1    
    15    7    8 1    
    16    8    9 1    
    17    8  134 1    
    18    8  135 1    
    19    9   10 ar   
    20    9   14 ar   
    21   10   11 ar   
    22   10  136 1    
    23   11   12 ar   
    24   11  126 1    
    25   12   13 ar   
    26   12  137 1    
    27   13   14 ar   
    28   13   15 1    
    29   14  138 1    
    30   15   16 1    
    31   15  139 1    
    32   15  140 1    
    33   16   17 1    
    34   17   18 1    
    35   17  141 1    
    36   17  142 1    
    37   18   19 1    
    38   18   67 1    
    39   18  143 1    
    40   19   20 am   BACKBONE|DICT|INTERRES
    41   19  144 1    
    42   20   21 2    
    43   20   22 1    
    44   22   23 1    
    45   22   24 1    
    46   22  145 1    
    47   23  146 1    
    48   23  147 1    
    49   23  148 1    
    50   24   25 am   BACKBONE|DICT|INTERRES
    51   24  149 1    
    52   25   26 2    
    53   25   27 1    
    54   27   28 1    
    55   27   29 1    
    56   27  150 1    
    57   28  151 1    
    58   28  152 1    
    59   28  153 1    
    60   29   30 am   BACKBONE|DICT|INTERRES
    61   29  154 1    
    62   30   31 2    
    63   30   32 1    
    64   32   33 1    
    65   32   34 1    
    66   32  155 1    
    67   33  156 1    
    68   33  157 1    
    69   33  158 1    
    70   34   35 am   BACKBONE|DICT|INTERRES
    71   34  159 1    
    72   35   36 2    
    73   35   37 1    
    74   37   38 1    
    75   37   39 1    
    76   37  160 1    
    77   38  161 1    
    78   38  162 1    
    79   38  163 1    
    80   39   40 am   BACKBONE|DICT|INTERRES
    81   39  164 1    
    82   40   41 2    
    83   40   42 1    
    84   42   43 1    
    85   42   44 1    
    86   42  165 1    
    87   43  166 1    
    88   43  167 1    
    89   43  168 1    
    90   44   45 am   BACKBONE|DICT|INTERRES
    91   44  169 1    
    92   45   46 2    
    93   45   47 1    
    94   47   48 1    
    95   47   49 1    
    96   47  170 1    
    97   48  171 1    
    98   48  172 1    
    99   48  173 1    
   100   49   50 am   BACKBONE|DICT|INTERRES
   101   49  174 1    
   102   50   51 2    
   103   50   52 1    
   104   52   53 1    
   105   52   54 1    
   106   52  175 1    
   107   53  176 1    
   108   53  177 1    
   109   53  178 1    
   110   54   55 am   BACKBONE|DICT|INTERRES
   111   54  179 1    
   112   55   56 2    
   113   55   57 1    
   114   57   58 1    
   115   57   59 1    
   116   57  180 1    
   117   58  181 1    
   118   58  182 1    
   119   58  183 1    
   120   59   60 am   BACKBONE|DICT|INTERRES
   121   59  184 1    
   122   60   61 2    
   123   60   62 1    
   124   62   63 1    
   125   62   64 1    
   126   62  185 1    
   127   63  186 1    
   128   63  187 1    
   129   63  188 1    
   130   64   65 am   BACKBONE|DICT|INTERRES
   131   64  189 1    
   132   65   66 2    
   133   67   68 2    
   134   67   69 am   BACKBONE|DICT|INTERRES
   135   69   70 1    
   136   69  190 1    
   137   70   71 1    
   138   70   72 1    
   139   70  191 1    
   140   71  192 1    
   141   71  193 1    
   142   71  194 1    
   143   72   73 2    
   144   72   74 am   BACKBONE|DICT|INTERRES
   145   74   75 1    
   146   74  195 1    
   147   75   76 1    
   148   75   77 1    
   149   75  196 1    
   150   76  197 1    
   151   76  198 1    
   152   76  199 1    
   153   77   78 2    
   154   77   79 am   BACKBONE|DICT|INTERRES
   155   79   80 1    
   156   79  200 1    
   157   80   81 1    
   158   80   82 1    
   159   80  201 1    
   160   81  202 1    
   161   81  203 1    
   162   81  204 1    
   163   82   83 2    
   164   82   84 am   BACKBONE|DICT|INTERRES
   165   84   85 1    
   166   84  205 1    
   167   85   86 1    
   168   85   87 1    
   169   85  206 1    
   170   86  207 1    
   171   86  208 1    
   172   86  209 1    
   173   87   88 2    
   174   87   89 am   BACKBONE|DICT|INTERRES
   175   89   90 1    
   176   89  210 1    
   177   90   91 1    
   178   90   92 1    
   179   90  211 1    
   180   91  212 1    
   181   91  213 1    
   182   91  214 1    
   183   92   93 2    
   184   92   94 am   BACKBONE|DICT|INTERRES
   185   94   95 1    
   186   94  215 1    
   187   95   96 1    
   188   95   97 1    
   189   95  216 1    
   190   96  217 1    
   191   96  218 1    
   192   96  219 1    
   193   97   98 2    
   194   97   99 am   BACKBONE|DICT|INTERRES
   195   99  100 1    
   196   99  220 1    
   197  100  101 1    
   198  100  102 1    
   199  100  221 1    
   200  101  222 1    
   201  101  223 1    
   202  101  224 1    
   203  102  103 2    
   204  102  104 am   BACKBONE|DICT|INTERRES
   205  104  105 1    
   206  104  225 1    
   207  105  106 1    
   208  105  107 1    
   209  105  226 1    
   210  106  227 1    
   211  106  228 1    
   212  106  229 1    
   213  107  108 2    
   214  107  109 am   BACKBONE|DICT|INTERRES
   215  109  110 1    
   216  109  230 1    
   217  110  111 1    
   218  110  112 1    
   219  110  231 1    
   220  111  232 1    
   221  111  233 1    
   222  111  234 1    
   223  112  113 2    
   224  112  114 am   BACKBONE|DICT|INTERRES
   225  114  115 1    
   226  114  235 1    
   227  115  116 1    
   228  115  117 1    
   229  115  236 1    
   230  116  237 1    
   231  116  238 1    
   232  116  239 1    
   233  117  118 2    
   234  117  119 am   BACKBONE|DICT|INTERRES
   235  119  120 1    
   236  119  240 1    
   237  120  121 1    
   238  120  124 1    
   239  120  241 1    
   240  121  122 am   BACKBONE|DICT|INTERRES
   241  121  123 2    
   242  122  242 1    
   243  122  243 1    
   244  124  125 1    
   245  124  244 1    
   246  124  245 1    
   247  125  126 1    
   248  126  246 1    
   249  126  247 1    
@<TRIPOS>SUBSTRUCTURE
     1 UNK         1 GROUP             0       ****    0 ROOT    
