@<TRIPOS>MOLECULE
3R540
247   249    1
SMALL
USER_CHARGES


@<TRIPOS>ATOM
      1 CA          1.9454  -15.1868  -45.0363 C.3       0 UNK        -0.1800 
      2 C           0.6857  -14.7326  -45.7559 C.2       0 UNK         0.5000 
      3 O          -0.2381  -14.2317  -45.1140 O.2       0 UNK        -0.5000 
      4 N           0.6481  -14.8934  -47.0852 N.am      1 UNK        -0.5000 
      5 CA         -0.5085  -14.6374  -47.9581 C.3       1 UNK         0.1400 
      6 C6         -0.2358  -15.0645  -49.4200 C.3       23 UNK        -0.0398 
      7 S7          0.0937  -16.8483  -49.5728 S.3       23 UNK        -0.2404 
      8 C8          1.8101  -16.8757  -50.1617 C.3       23 UNK        -0.0205 
      9 C9          2.1951  -18.2712  -50.6241 C.ar      23 UNK        -0.0193 
     10 C10         2.4142  -18.5322  -51.9791 C.ar      23 UNK        -0.1150 
     11 C11         2.7788  -19.8120  -52.4059 C.ar      23 UNK        -0.0193 
     12 C12         2.9214  -20.8361  -51.4647 C.ar      23 UNK        -0.1150 
     13 C13         2.6762  -20.5940  -50.1090 C.ar      23 UNK        -0.0193 
     14 C14         2.3273  -19.3061  -49.6955 C.ar      23 UNK        -0.1150 
     15 C15         2.7921  -21.7119  -49.0819 C.3       23 UNK        -0.0205 
     16 S16         1.7930  -23.1841  -49.4854 S.3       23 UNK        -0.2404 
     17 C17         0.1158  -22.5231  -49.8096 C.3       23 UNK        -0.0398 
     18 CA         -0.7813  -22.2968  -48.5652 C.3       11 UNK         0.1400 
     19 N          -0.5897  -23.3083  -47.5235 N.am      11 UNK        -0.5000 
     20 C          -1.3349  -23.4299  -46.4187 C.2       10 UNK         0.5000 
     21 O          -2.3369  -22.7481  -46.2054 O.2       10 UNK        -0.5000 
     22 CA         -0.8434  -24.4134  -45.3374 C.3       10 UNK         0.1400 
     23 CB         -1.5680  -25.7597  -45.4778 C.3       10 UNK        -0.1800 
     24 N           0.6082  -24.6480  -45.3099 N.am      10 UNK        -0.5000 
     25 C           1.5604  -23.7061  -45.2374 C.2       9 UNK         0.5000 
     26 O           1.3224  -22.4966  -45.2818 O.2       9 UNK        -0.5000 
     27 CA          3.0169  -24.2066  -45.1338 C.3       9 UNK         0.1400 
     28 CB          3.4455  -24.9403  -46.4152 C.3       9 UNK        -0.1800 
     29 N           3.9600  -23.1128  -44.8960 N.am      9 UNK        -0.5000 
     30 C           4.0448  -22.3970  -43.7679 C.2       8 UNK         0.5000 
     31 O           3.4186  -22.6690  -42.7413 O.2       8 UNK        -0.5000 
     32 CA          4.9717  -21.1684  -43.7834 C.3       8 UNK         0.1400 
     33 CB          5.4820  -20.7676  -45.1847 C.3       8 UNK        -0.1800 
     34 N           4.2559  -20.0426  -43.1927 N.am      8 UNK        -0.5000 
     35 C           4.7807  -19.1333  -42.3653 C.2       7 UNK         0.5000 
     36 O           5.9618  -19.1331  -42.0148 O.2       7 UNK        -0.5000 
     37 CA          3.8451  -18.0190  -41.8506 C.3       7 UNK         0.1400 
     38 CB          4.2292  -16.6675  -42.4747 C.3       7 UNK        -0.1800 
     39 N           2.4198  -18.2515  -42.1024 N.am      7 UNK        -0.5000 
     40 C           1.6475  -19.1318  -41.4503 C.2       6 UNK         0.5000 
     41 O           2.0759  -19.9208  -40.6074 O.2       6 UNK        -0.5000 
     42 CA          0.1421  -19.0904  -41.7986 C.3       6 UNK         0.1400 
     43 CB         -0.7328  -19.8517  -40.7800 C.3       6 UNK        -0.1800 
     44 N          -0.3503  -17.7168  -41.9926 N.am      6 UNK        -0.5000 
     45 C          -0.3637  -16.7474  -41.0621 C.2       5 UNK         0.5000 
     46 O           0.0032  -16.9108  -39.8977 O.2       5 UNK        -0.5000 
     47 CA         -0.8310  -15.3446  -41.4872 C.3       5 UNK         0.1400 
     48 CB          0.3625  -14.3769  -41.5357 C.3       5 UNK        -0.1800 
     49 N          -1.5267  -15.2859  -42.7711 N.am      5 UNK        -0.5000 
     50 C          -2.7951  -15.6609  -42.9821 C.2       4 UNK         0.5000 
     51 O          -3.4668  -16.2941  -42.1659 O.2       4 UNK        -0.5000 
     52 CA         -3.4167  -15.1648  -44.3080 C.3       4 UNK         0.1400 
     53 CB         -4.9445  -15.3676  -44.3805 C.3       4 UNK        -0.1800 
     54 N          -3.0620  -13.7609  -44.5702 N.am      4 UNK        -0.5000 
     55 C          -3.3385  -12.6987  -43.7945 C.2       3 UNK         0.5000 
     56 O          -4.0808  -12.7454  -42.8128 O.2       3 UNK        -0.5000 
     57 CA         -2.6610  -11.3595  -44.1448 C.3       3 UNK         0.1400 
     58 CB         -1.9262  -10.7640  -42.9299 C.3       3 UNK        -0.1800 
     59 N          -1.7152  -11.4668  -45.2593 N.am      3 UNK        -0.5000 
     60 C          -1.6044  -10.5650  -46.2454 C.2       2 UNK         0.5000 
     61 O          -2.3022   -9.5532  -46.3287 O.2       2 UNK        -0.5000 
     62 CA         -0.5346  -10.8223  -47.3271 C.3       2 UNK         0.1400 
     63 CB          0.7466  -10.0360  -47.0094 C.3       2 UNK        -0.1800 
     64 N          -0.1909  -12.2346  -47.4981 N.am      2 UNK        -0.5000 
     65 C          -1.0308  -13.1851  -47.9298 C.2       1 UNK         0.5000 
     66 O          -2.1896  -12.9608  -48.2783 O.2       1 UNK        -0.5000 
     67 C          -0.6940  -20.8437  -48.0484 C.2       11 UNK         0.5000 
     68 O          -1.3907  -19.9886  -48.5906 O.2       11 UNK        -0.5000 
     69 N           0.0915  -20.5905  -46.9907 N.am      12 UNK        -0.5000 
     70 CA          0.1999  -19.2825  -46.3396 C.3       12 UNK         0.1400 
     71 CB          1.5359  -19.2023  -45.5840 C.3       12 UNK        -0.1800 
     72 C          -0.9744  -18.9885  -45.3868 C.2       12 UNK         0.5000 
     73 O          -1.1788  -17.8293  -45.0271 O.2       12 UNK        -0.5000 
     74 N          -1.7095  -20.0304  -44.9739 N.am      13 UNK        -0.5000 
     75 CA         -2.9369  -19.9226  -44.1826 C.3       13 UNK         0.1400 
     76 CB         -3.0855  -21.1698  -43.2956 C.3       13 UNK        -0.1800 
     77 C          -4.1557  -19.7707  -45.1085 C.2       13 UNK         0.5000 
     78 O          -5.0542  -18.9839  -44.8181 O.2       13 UNK        -0.5000 
     79 N          -4.1423  -20.5066  -46.2283 N.am      14 UNK        -0.5000 
     80 CA         -5.1474  -20.4649  -47.2925 C.3       14 UNK         0.1400 
     81 CB         -5.0508  -21.7780  -48.0815 C.3       14 UNK        -0.1800 
     82 C          -4.9996  -19.2495  -48.2349 C.2       14 UNK         0.5000 
     83 O          -5.8372  -19.0643  -49.1197 O.2       14 UNK        -0.5000 
     84 N          -3.9257  -18.4684  -48.0481 N.am      15 UNK        -0.5000 
     85 CA         -3.5394  -17.2670  -48.7920 C.3       15 UNK         0.1400 
     86 CB         -4.4941  -16.1012  -48.4693 C.3       15 UNK        -0.1800 
     87 C          -3.3714  -17.5138  -50.3059 C.2       15 UNK         0.5000 
     88 O          -3.7631  -16.6731  -51.1168 O.2       15 UNK        -0.5000 
     89 N          -2.8189  -18.6871  -50.6486 N.am      16 UNK        -0.5000 
     90 CA         -2.5489  -19.2587  -51.9750 C.3       16 UNK         0.1400 
     91 CB         -1.4899  -18.4353  -52.7275 C.3       16 UNK        -0.1800 
     92 C          -3.7849  -19.5073  -52.8655 C.2       16 UNK         0.5000 
     93 O          -3.7827  -20.4734  -53.6288 O.2       16 UNK        -0.5000 
     94 N          -4.8102  -18.6565  -52.7618 N.am      17 UNK        -0.5000 
     95 CA         -6.0366  -18.6830  -53.5536 C.3       17 UNK         0.1400 
     96 CB         -6.7840  -17.3544  -53.3648 C.3       17 UNK        -0.1800 
     97 C          -6.9532  -19.8700  -53.2181 C.2       17 UNK         0.5000 
     98 O          -7.5064  -20.4739  -54.1359 O.2       17 UNK        -0.5000 
     99 N          -7.0907  -20.1938  -51.9241 N.am      18 UNK        -0.5000 
    100 CA        -7.9219  -21.3060  -51.4463 C.3       18 UNK         0.1400 
    101 CB        -8.5905  -20.9017  -50.1221 C.3       18 UNK        -0.1800 
    102 C         -7.1284  -22.6191  -51.2911 C.2       18 UNK         0.5000 
    103 O         -7.7252  -23.6527  -50.9892 O.2       18 UNK        -0.5000 
    104 N         -5.8036  -22.5527  -51.4823 N.am      19 UNK        -0.5000 
    105 CA        -4.8596  -23.6671  -51.3970 C.3       19 UNK         0.1400 
    106 CB        -3.4239  -23.1484  -51.5712 C.3       19 UNK        -0.1800 
    107 C         -5.1383  -24.8685  -52.3350 C.2       19 UNK         0.5000 
    108 O         -5.0506  -25.9973  -51.8541 O.2       19 UNK        -0.5000 
    109 N         -5.4823  -24.7114  -53.6237 N.am      20 UNK        -0.5000 
    110 CA        -5.5179  -23.5099  -54.4570 C.3       20 UNK         0.1400 
    111 CB        -6.8677  -23.4704  -55.1895 C.3       20 UNK        -0.1800 
    112 C         -4.3679  -23.5451  -55.4721 C.2       20 UNK         0.5000 
    113 O         -3.9901  -24.6257  -55.9307 O.2       20 UNK        -0.5000 
    114 N         -3.8642  -22.3504  -55.8111 N.am      21 UNK        -0.5000 
    115 CA        -2.7021  -22.0797  -56.6619 C.3       21 UNK         0.1400 
    116 CB        -2.9218  -22.5843  -58.1043 C.3       21 UNK        -0.1800 
    117 C         -1.4048  -22.5971  -56.0108 C.2       21 UNK         0.5000 
    118 O         -0.6363  -23.3245  -56.6433 O.2       21 UNK        -0.5000 
    119 N         -1.2093  -22.2045  -54.7433 N.am      22 UNK        -0.5000 
    120 CA        -0.1097  -22.6248  -53.8546 C.3       22 UNK         0.1400 
    121 C         -0.2166  -24.1192  -53.4125 C.2       22 UNK         0.5000 
    122 N          0.7648  -24.6471  -52.6922 N.am      22 UNK        -0.7600 
    123 O         -1.2024  -24.8059  -53.6676 O.2       22 UNK        -0.5000 
    124 C124        1.3016  -22.2594  -54.4051 C.3       23 UNK        -0.0398 
    125 S125        1.4973  -20.4807  -54.7753 S.3       23 UNK        -0.2404 
    126 C126        3.0317  -20.0728  -53.8826 C.3       23 UNK        -0.0205 
    127 H127        2.4197  -14.3409  -44.5391 H         1 UNK         0.0600 
    128 H128        2.6676  -15.6314  -45.7211 H         1 UNK         0.0600 
    129 H129        1.6900  -15.9288  -44.2815 H         1 UNK         0.0600 
    130 H130        1.4482  -15.2993  -47.5474 H         1 UNK         0.3000 
    131 H131       -1.3232  -15.2505  -47.5696 H         1 UNK         0.0600 
    132 H132        0.5930  -14.4919  -49.8397 H         1 UNK         0.0800 
    133 H133       -1.1011  -14.8517  -50.0515 H         1 UNK         0.0800 
    134 H134        2.4797  -16.5559  -49.3625 H         1 UNK         0.0800 
    135 H135        1.9269  -16.1602  -50.9771 H         1 UNK         0.0800 
    136 H136        2.3026  -17.7391  -52.7050 H         1 UNK         0.1150 
    137 H137        3.2132  -21.8262  -51.7833 H         1 UNK         0.1150 
    138 H138        2.1449  -19.1047  -48.6503 H         1 UNK         0.1150 
    139 H139        3.8383  -22.0115  -49.0111 H         1 UNK         0.0800 
    140 H140        2.5129  -21.3607  -48.0882 H         1 UNK         0.0800 
    141 H141       -0.3736  -23.2682  -50.4367 H         1 UNK         0.0800 
    142 H142        0.1741  -21.6315  -50.4366 H         1 UNK         0.0800 
    143 H143       -1.8126  -22.4137  -48.9016 H         1 UNK         0.0600 
    144 H144        0.2339  -23.8852  -47.6181 H         1 UNK         0.3000 
    145 H145       -1.1148  -23.9805  -44.3725 H         1 UNK         0.0600 
    146 H146       -1.3265  -26.4273  -44.6505 H         1 UNK         0.0600 
    147 H147       -2.6506  -25.6240  -45.4770 H         1 UNK         0.0600 
    148 H148       -1.3010  -26.2644  -46.4072 H         1 UNK         0.0600 
    149 H149        0.8926  -25.6166  -45.2872 H         1 UNK         0.3000 
    150 H150        3.0731  -24.9021  -44.2940 H         1 UNK         0.0600 
    151 H151        2.7831  -25.7761  -46.6428 H         1 UNK         0.0600 
    152 H152        4.4512  -25.3487  -46.3141 H         1 UNK         0.0600 
    153 H153        3.4441  -24.2749  -47.2782 H         1 UNK         0.0600 
    154 H154        4.4931  -22.8049  -45.6950 H         1 UNK         0.3000 
    155 H155        5.8316  -21.4289  -43.1631 H         1 UNK         0.0600 
    156 H156        6.0870  -21.5578  -45.6306 H         1 UNK         0.0600 
    157 H157        6.1140  -19.8810  -45.1290 H         1 UNK         0.0600 
    158 H158        4.6608  -20.5426  -45.8666 H         1 UNK         0.0600 
    159 H159        3.2626  -20.0147  -43.3667 H         1 UNK         0.3000 
    160 H160        3.9908  -17.9488  -40.7706 H         1 UNK         0.0600 
    161 H161        4.1243  -16.6826  -43.5601 H         1 UNK         0.0600 
    162 H162        5.2661  -16.4135  -42.2507 H         1 UNK         0.0600 
    163 H163        3.6087  -15.8596  -42.0859 H         1 UNK         0.0600 
    164 H164        1.9767  -17.6289  -42.7595 H         1 UNK         0.3000 
    165 H165        0.0399  -19.6000  -42.7552 H         1 UNK         0.0600 
    166 H166       -1.7928  -19.7400  -41.0065 H         1 UNK         0.0600 
    167 H167       -0.5042  -20.9179  -40.7921 H         1 UNK         0.0600 
    168 H168       -0.5743  -19.4982  -39.7609 H         1 UNK         0.0600 
    169 H169       -0.6879  -17.4864  -42.9207 H         1 UNK         0.3000 
    170 H170       -1.5194  -14.9902  -40.7170 H         1 UNK         0.0600 
    171 H171        0.8732  -14.3344  -40.5728 H         1 UNK         0.0600 
    172 H172        1.0971  -14.6791  -42.2811 H         1 UNK         0.0600 
    173 H173        0.0409  -13.3637  -41.7745 H         1 UNK         0.0600 
    174 H174       -1.0451  -14.8071  -43.5280 H         1 UNK         0.3000 
    175 H175       -2.9638  -15.7554  -45.1056 H         1 UNK         0.0600 
    176 H176       -5.4625  -14.8715  -43.5597 H         1 UNK         0.0600 
    177 H177       -5.3522  -14.9807  -45.3139 H         1 UNK         0.0600 
    178 H178       -5.1985  -16.4253  -44.3276 H         1 UNK         0.0600 
    179 H179       -2.4175  -13.6221  -45.3347 H         1 UNK         0.3000 
    180 H180       -3.4770  -10.6853  -44.4127 H         1 UNK         0.0600 
    181 H181       -2.5974  -10.6416  -42.0791 H         1 UNK         0.0600 
    182 H182       -1.5179   -9.7800  -43.1610 H         1 UNK         0.0600 
    183 H183       -1.1015  -11.4014  -42.6110 H         1 UNK         0.0600 
    184 H184       -1.0836  -12.2598  -45.2463 H         1 UNK         0.3000 
    185 H185       -0.9342  -10.4577  -48.2757 H         1 UNK         0.0600 
    186 H186        1.4830  -10.1414  -47.8062 H         1 UNK         0.0600 
    187 H187        0.5356   -8.9711  -46.9029 H         1 UNK         0.0600 
    188 H188        1.2053  -10.3741  -46.0793 H         1 UNK         0.0600 
    189 H189        0.7400  -12.5114  -47.2224 H         1 UNK         0.3000 
    190 H190        0.5925  -21.3555  -46.5427 H         1 UNK         0.3000 
    191 H191        0.1986  -18.5053  -47.1056 H         1 UNK         0.0600 
    192 H192        1.6829  -18.2115  -45.1553 H         1 UNK         0.0600 
    193 H193        2.3791  -19.3955  -46.2465 H         1 UNK         0.0600 
    194 H194        1.5805  -19.9239  -44.7688 H         1 UNK         0.0600 
    195 H195       -1.4815  -20.9517  -45.3236 H         1 UNK         0.3000 
    196 H196       -2.8801  -19.0459  -43.5332 H         1 UNK         0.0600 
    197 H197       -3.3265  -22.0611  -43.8750 H         1 UNK         0.0600 
    198 H198       -2.1710  -21.3786  -42.7423 H         1 UNK         0.0600 
    199 H199       -3.8857  -21.0310  -42.5679 H         1 UNK         0.0600 
    200 H200       -3.4051  -21.1973  -46.3396 H         1 UNK         0.3000 
    201 H201       -6.1376  -20.4088  -46.8360 H         1 UNK         0.0600 
    202 H202       -4.1150  -21.8460  -48.6352 H         1 UNK         0.0600 
    203 H203       -5.8662  -21.8602  -48.7959 H         1 UNK         0.0600 
    204 H204       -5.1144  -22.6442  -47.4225 H         1 UNK         0.0600 
    205 H205       -3.2696  -18.7694  -47.3428 H         1 UNK         0.3000 
    206 H206       -2.5542  -16.9989  -48.4165 H         1 UNK         0.0600 
    207 H207       -4.5624  -15.9379  -47.3947 H         1 UNK         0.0600 
    208 H208       -4.1415  -15.1703  -48.9153 H         1 UNK         0.0600 
    209 H209       -5.5003  -16.2877  -48.8460 H         1 UNK         0.0600 
    210 H210       -2.4787  -19.2522  -49.8727 H         1 UNK         0.3000 
    211 H211       -2.1129  -20.2395  -51.7813 H         1 UNK         0.0600 
    212 H212       -1.2441  -18.8938  -53.6863 H         1 UNK         0.0600 
    213 H213       -0.5646  -18.3736  -52.1553 H         1 UNK         0.0600 
    214 H214       -1.8299  -17.4188  -52.9267 H         1 UNK         0.0600 
    215 H215       -4.6846  -17.8653  -52.1347 H         1 UNK         0.3000 
    216 H216       -5.7548  -18.7683  -54.6052 H         1 UNK         0.0600 
    217 H217       -7.0589  -17.1921  -52.3217 H         1 UNK         0.0600 
    218 H218       -7.7009  -17.3330  -53.9552 H         1 UNK         0.0600 
    219 H219       -6.1722  -16.5104  -53.6838 H         1 UNK         0.0600 
    220 H220       -6.6122  -19.6465  -51.2175 H         1 UNK         0.3000 
    221 H221       -8.7201  -21.5033  -52.1651 H         1 UNK         0.0600 
    222 H222       -9.1777  -19.9910  -50.2405 H         1 UNK         0.0600 
    223 H223       -7.8620  -20.7277  -49.3319 H         1 UNK         0.0600 
    224 H224       -9.2695  -21.6806  -49.7729 H         1 UNK         0.0600 
    225 H225       -5.4203  -21.6571  -51.7428 H         1 UNK         0.3000 
    226 H226       -4.9392  -24.0439  -50.3751 H         1 UNK         0.0600 
    227 H227       -2.7028  -23.9339  -51.3428 H         1 UNK         0.0600 
    228 H228       -3.2322  -22.8239  -52.5928 H         1 UNK         0.0600 
    229 H229       -3.2169  -22.3118  -50.9053 H         1 UNK         0.0600 
    230 H230       -5.5961  -25.5587  -54.1603 H         1 UNK         0.3000 
    231 H231       -5.4133  -22.5959  -53.8823 H         1 UNK         0.0600 
    232 H232       -7.0235  -24.3600  -55.8010 H         1 UNK         0.0600 
    233 H233       -6.9302  -22.6039  -55.8491 H         1 UNK         0.0600 
    234 H234       -7.6947  -23.3992  -54.4828 H         1 UNK         0.0600 
    235 H235       -4.2078  -21.5405  -55.3051 H         1 UNK         0.3000 
    236 H236       -2.6067  -20.9939  -56.7102 H         1 UNK         0.0600 
    237 H237       -3.8498  -22.1933  -58.5213 H         1 UNK         0.0600 
    238 H238       -2.1101  -22.2578  -58.7553 H         1 UNK         0.0600 
    239 H239       -2.9614  -23.6723  -58.1580 H         1 UNK         0.0600 
    240 H240       -1.9270  -21.6348  -54.3160 H         1 UNK         0.3000 
    241 H241       -0.2594  -22.0530  -52.9385 H         1 UNK         0.0600 
    242 H242        0.6795  -25.6084  -52.4014 H         1 UNK         0.3800 
    243 H243        1.5785  -24.1234  -52.4144 H         1 UNK         0.3800 
    244 H244        1.5224  -22.8229  -55.3120 H         1 UNK         0.0800 
    245 H245        2.0730  -22.5488  -53.6934 H         1 UNK         0.0800 
    246 H246        3.7671  -20.8679  -54.0151 H         1 UNK         0.0800 
    247 H247        3.4702  -19.1831  -54.3370 H         1 UNK         0.0800 
@<TRIPOS>BOND
     1    1    2 1    
     2    1  127 1    
     3    1  128 1    
     4    1  129 1    
     5    2    3 2    
     6    2    4 am   BACKBONE|DICT|INTERRES
     7    4    5 1    
     8    4  130 1    
     9    5    6 1    
    10    5   65 1    
    11    5  131 1    
    12    6    7 1    
    13    6  132 1    
    14    6  133 1    
    15    7    8 1    
    16    8    9 1    
    17    8  134 1    
    18    8  135 1    
    19    9   10 ar   
    20    9   14 ar   
    21   10   11 ar   
    22   10  136 1    
    23   11   12 ar   
    24   11  126 1    
    25   12   13 ar   
    26   12  137 1    
    27   13   14 ar   
    28   13   15 1    
    29   14  138 1    
    30   15   16 1    
    31   15  139 1    
    32   15  140 1    
    33   16   17 1    
    34   17   18 1    
    35   17  141 1    
    36   17  142 1    
    37   18   19 1    
    38   18   67 1    
    39   18  143 1    
    40   19   20 am   BACKBONE|DICT|INTERRES
    41   19  144 1    
    42   20   21 2    
    43   20   22 1    
    44   22   23 1    
    45   22   24 1    
    46   22  145 1    
    47   23  146 1    
    48   23  147 1    
    49   23  148 1    
    50   24   25 am   BACKBONE|DICT|INTERRES
    51   24  149 1    
    52   25   26 2    
    53   25   27 1    
    54   27   28 1    
    55   27   29 1    
    56   27  150 1    
    57   28  151 1    
    58   28  152 1    
    59   28  153 1    
    60   29   30 am   BACKBONE|DICT|INTERRES
    61   29  154 1    
    62   30   31 2    
    63   30   32 1    
    64   32   33 1    
    65   32   34 1    
    66   32  155 1    
    67   33  156 1    
    68   33  157 1    
    69   33  158 1    
    70   34   35 am   BACKBONE|DICT|INTERRES
    71   34  159 1    
    72   35   36 2    
    73   35   37 1    
    74   37   38 1    
    75   37   39 1    
    76   37  160 1    
    77   38  161 1    
    78   38  162 1    
    79   38  163 1    
    80   39   40 am   BACKBONE|DICT|INTERRES
    81   39  164 1    
    82   40   41 2    
    83   40   42 1    
    84   42   43 1    
    85   42   44 1    
    86   42  165 1    
    87   43  166 1    
    88   43  167 1    
    89   43  168 1    
    90   44   45 am   BACKBONE|DICT|INTERRES
    91   44  169 1    
    92   45   46 2    
    93   45   47 1    
    94   47   48 1    
    95   47   49 1    
    96   47  170 1    
    97   48  171 1    
    98   48  172 1    
    99   48  173 1    
   100   49   50 am   BACKBONE|DICT|INTERRES
   101   49  174 1    
   102   50   51 2    
   103   50   52 1    
   104   52   53 1    
   105   52   54 1    
   106   52  175 1    
   107   53  176 1    
   108   53  177 1    
   109   53  178 1    
   110   54   55 am   BACKBONE|DICT|INTERRES
   111   54  179 1    
   112   55   56 2    
   113   55   57 1    
   114   57   58 1    
   115   57   59 1    
   116   57  180 1    
   117   58  181 1    
   118   58  182 1    
   119   58  183 1    
   120   59   60 am   BACKBONE|DICT|INTERRES
   121   59  184 1    
   122   60   61 2    
   123   60   62 1    
   124   62   63 1    
   125   62   64 1    
   126   62  185 1    
   127   63  186 1    
   128   63  187 1    
   129   63  188 1    
   130   64   65 am   BACKBONE|DICT|INTERRES
   131   64  189 1    
   132   65   66 2    
   133   67   68 2    
   134   67   69 am   BACKBONE|DICT|INTERRES
   135   69   70 1    
   136   69  190 1    
   137   70   71 1    
   138   70   72 1    
   139   70  191 1    
   140   71  192 1    
   141   71  193 1    
   142   71  194 1    
   143   72   73 2    
   144   72   74 am   BACKBONE|DICT|INTERRES
   145   74   75 1    
   146   74  195 1    
   147   75   76 1    
   148   75   77 1    
   149   75  196 1    
   150   76  197 1    
   151   76  198 1    
   152   76  199 1    
   153   77   78 2    
   154   77   79 am   BACKBONE|DICT|INTERRES
   155   79   80 1    
   156   79  200 1    
   157   80   81 1    
   158   80   82 1    
   159   80  201 1    
   160   81  202 1    
   161   81  203 1    
   162   81  204 1    
   163   82   83 2    
   164   82   84 am   BACKBONE|DICT|INTERRES
   165   84   85 1    
   166   84  205 1    
   167   85   86 1    
   168   85   87 1    
   169   85  206 1    
   170   86  207 1    
   171   86  208 1    
   172   86  209 1    
   173   87   88 2    
   174   87   89 am   BACKBONE|DICT|INTERRES
   175   89   90 1    
   176   89  210 1    
   177   90   91 1    
   178   90   92 1    
   179   90  211 1    
   180   91  212 1    
   181   91  213 1    
   182   91  214 1    
   183   92   93 2    
   184   92   94 am   BACKBONE|DICT|INTERRES
   185   94   95 1    
   186   94  215 1    
   187   95   96 1    
   188   95   97 1    
   189   95  216 1    
   190   96  217 1    
   191   96  218 1    
   192   96  219 1    
   193   97   98 2    
   194   97   99 am   BACKBONE|DICT|INTERRES
   195   99  100 1    
   196   99  220 1    
   197  100  101 1    
   198  100  102 1    
   199  100  221 1    
   200  101  222 1    
   201  101  223 1    
   202  101  224 1    
   203  102  103 2    
   204  102  104 am   BACKBONE|DICT|INTERRES
   205  104  105 1    
   206  104  225 1    
   207  105  106 1    
   208  105  107 1    
   209  105  226 1    
   210  106  227 1    
   211  106  228 1    
   212  106  229 1    
   213  107  108 2    
   214  107  109 am   BACKBONE|DICT|INTERRES
   215  109  110 1    
   216  109  230 1    
   217  110  111 1    
   218  110  112 1    
   219  110  231 1    
   220  111  232 1    
   221  111  233 1    
   222  111  234 1    
   223  112  113 2    
   224  112  114 am   BACKBONE|DICT|INTERRES
   225  114  115 1    
   226  114  235 1    
   227  115  116 1    
   228  115  117 1    
   229  115  236 1    
   230  116  237 1    
   231  116  238 1    
   232  116  239 1    
   233  117  118 2    
   234  117  119 am   BACKBONE|DICT|INTERRES
   235  119  120 1    
   236  119  240 1    
   237  120  121 1    
   238  120  124 1    
   239  120  241 1    
   240  121  122 am   BACKBONE|DICT|INTERRES
   241  121  123 2    
   242  122  242 1    
   243  122  243 1    
   244  124  125 1    
   245  124  244 1    
   246  124  245 1    
   247  125  126 1    
   248  126  246 1    
   249  126  247 1    
@<TRIPOS>SUBSTRUCTURE
     1 UNK         1 GROUP             0       ****    0 ROOT    
