@<TRIPOS>MOLECULE
3R540
247   249    1
SMALL
USER_CHARGES


@<TRIPOS>ATOM
      1 CA         -1.1950  -14.5774  -43.7757 C.3       0 UNK        -0.1800 
      2 C          -1.6820  -13.8121  -44.9950 C.2       0 UNK         0.5000 
      3 O          -2.7649  -13.2287  -44.9657 O.2       0 UNK        -0.5000 
      4 N          -0.8796  -13.8177  -46.0669 N.am      1 UNK        -0.5000 
      5 CA         -1.1988  -13.1960  -47.3597 C.3       1 UNK         0.1400 
      6 C6         -0.2365  -13.6612  -48.4785 C.3       23 UNK        -0.0398 
      7 S7         -0.2697  -15.4670  -48.7372 S.3       23 UNK        -0.2404 
      8 C8          1.4298  -15.7470  -49.3246 C.3       23 UNK        -0.0205 
      9 C9          1.5432  -17.0570  -50.0860 C.ar      23 UNK        -0.0193 
     10 C10         1.0471  -17.1367  -51.3896 C.ar      23 UNK        -0.1150 
     11 C11         1.1482  -18.3230  -52.1185 C.ar      23 UNK        -0.0193 
     12 C12         1.7716  -19.4314  -51.5402 C.ar      23 UNK        -0.1150 
     13 C13         2.2767  -19.3661  -50.2384 C.ar      23 UNK        -0.0193 
     14 C14         2.1543  -18.1767  -49.5110 C.ar      23 UNK        -0.1150 
     15 C15         2.9815  -20.5771  -49.6436 C.3       23 UNK        -0.0205 
     16 S16         1.8244  -21.9316  -49.2693 S.3       23 UNK        -0.2404 
     17 C17         1.1155  -21.3469  -47.6995 C.3       23 UNK        -0.0398 
     18 CA         -0.0119  -22.2593  -47.1519 C.3       11 UNK         0.1400 
     19 N          -0.1748  -22.0935  -45.7019 N.am      11 UNK        -0.5000 
     20 C          -1.0363  -22.7713  -44.9284 C.2       10 UNK         0.5000 
     21 O          -1.7818  -23.6560  -45.3435 O.2       10 UNK        -0.5000 
     22 CA         -1.1177  -22.3628  -43.4471 C.3       10 UNK         0.1400 
     23 CB          0.0190  -23.0066  -42.6399 C.3       10 UNK        -0.1800 
     24 N          -1.1043  -20.9124  -43.2565 N.am      10 UNK        -0.5000 
     25 C          -2.0426  -20.0729  -43.7188 C.2       9 UNK         0.5000 
     26 O          -3.0488  -20.4360  -44.3253 O.2       9 UNK        -0.5000 
     27 CA         -1.7831  -18.5686  -43.5298 C.3       9 UNK         0.1400 
     28 CB         -2.0924  -18.1279  -42.0913 C.3       9 UNK        -0.1800 
     29 N          -0.4128  -18.1983  -43.8801 N.am      9 UNK        -0.5000 
     30 C           0.1219  -18.3421  -45.1017 C.2       8 UNK         0.5000 
     31 O          -0.4968  -18.7627  -46.0801 O.2       8 UNK        -0.5000 
     32 CA          1.6178  -18.0125  -45.2324 C.3       8 UNK         0.1400 
     33 CB          1.8375  -16.5004  -45.3842 C.3       8 UNK        -0.1800 
     34 N           2.3881  -18.5091  -44.0917 N.am      8 UNK        -0.5000 
     35 C           2.5923  -19.8074  -43.8268 C.2       7 UNK         0.5000 
     36 O           2.1772  -20.7233  -44.5354 O.2       7 UNK        -0.5000 
     37 CA          3.3470  -20.1362  -42.5269 C.3       7 UNK         0.1400 
     38 CB          4.8617  -19.9696  -42.7196 C.3       7 UNK        -0.1800 
     39 N           2.9048  -19.3120  -41.4017 N.am      7 UNK        -0.5000 
     40 C           1.6786  -19.3625  -40.8619 C.2       6 UNK         0.5000 
     41 O           0.7992  -20.1372  -41.2349 O.2       6 UNK        -0.5000 
     42 CA          1.3685  -18.3471  -39.7475 C.3       6 UNK         0.1400 
     43 CB          1.7600  -18.9158  -38.3757 C.3       6 UNK        -0.1800 
     44 N           2.0270  -17.0534  -39.9440 N.am      6 UNK        -0.5000 
     45 C           1.7928  -16.2297  -40.9734 C.2       5 UNK         0.5000 
     46 O           1.0204  -16.4880  -41.9004 O.2       5 UNK        -0.5000 
     47 CA          2.6026  -14.9233  -40.9980 C.3       5 UNK         0.1400 
     48 CB          3.7715  -15.0374  -41.9890 C.3       5 UNK        -0.1800 
     49 N           1.7696  -13.7860  -41.3770 N.am      5 UNK        -0.5000 
     50 C           0.8272  -13.2286  -40.6037 C.2       4 UNK         0.5000 
     51 O           0.5775  -13.6091  -39.4585 O.2       4 UNK        -0.5000 
     52 CA          0.0334  -12.0525  -41.2178 C.3       4 UNK         0.1400 
     53 CB         -0.4793  -11.0552  -40.1574 C.3       4 UNK        -0.1800 
     54 N           0.7535  -11.3592  -42.2960 N.am      4 UNK        -0.5000 
     55 C           1.8884  -10.6484  -42.1949 C.2       3 UNK         0.5000 
     56 O           2.4814  -10.4487  -41.1344 O.2       3 UNK        -0.5000 
     57 CA          2.4907  -10.0945  -43.5035 C.3       3 UNK         0.1400 
     58 CB          3.7970  -10.8334  -43.8393 C.3       3 UNK        -0.1800 
     59 N           1.5989  -10.1836  -44.6653 N.am      3 UNK        -0.5000 
     60 C           0.5370   -9.3926  -44.8825 C.2       2 UNK         0.5000 
     61 O           0.1638   -8.5174  -44.1017 O.2       2 UNK        -0.5000 
     62 CA         -0.2497   -9.6438  -46.1770 C.3       2 UNK         0.1400 
     63 CB          0.4142   -8.9193  -47.3640 C.3       2 UNK        -0.1800 
     64 N          -0.3645  -11.0804  -46.4347 N.am      2 UNK        -0.5000 
     65 C          -1.2209  -11.6533  -47.2897 C.2       1 UNK         0.5000 
     66 O          -2.0071  -11.0244  -47.9995 O.2       1 UNK        -0.5000 
     67 C          -1.3384  -22.0382  -47.9112 C.2       11 UNK         0.5000 
     68 O          -1.7294  -22.8769  -48.7284 O.2       11 UNK        -0.5000 
     69 N          -2.0231  -20.9342  -47.5797 N.am      12 UNK        -0.5000 
     70 CA         -3.3347  -20.5801  -48.1128 C.3       12 UNK         0.1400 
     71 CB         -3.6681  -19.1304  -47.7298 C.3       12 UNK        -0.1800 
     72 C          -4.4384  -21.5477  -47.6489 C.2       12 UNK         0.5000 
     73 O          -5.1963  -22.0367  -48.4845 O.2       12 UNK        -0.5000 
     74 N          -4.4979  -21.8332  -46.3397 N.am      13 UNK        -0.5000 
     75 CA         -5.5029  -22.7034  -45.7200 C.3       13 UNK         0.1400 
     76 CB         -5.3651  -22.6481  -44.1914 C.3       13 UNK        -0.1800 
     77 C          -5.4494  -24.1613  -46.2110 C.2       13 UNK         0.5000 
     78 O          -6.4998  -24.7743  -46.4053 O.2       13 UNK        -0.5000 
     79 N          -4.2344  -24.6818  -46.4269 N.am      14 UNK        -0.5000 
     80 CA         -3.9921  -26.0098  -46.9918 C.3       14 UNK         0.1400 
     81 CB         -2.5535  -26.4384  -46.6611 C.3       14 UNK        -0.1800 
     82 C          -4.2220  -26.0742  -48.5139 C.2       14 UNK         0.5000 
     83 O          -4.2934  -27.1786  -49.0544 O.2       14 UNK        -0.5000 
     84 N          -4.3014  -24.9070  -49.1753 N.am      15 UNK        -0.5000 
     85 CA         -4.3642  -24.7116  -50.6272 C.3       15 UNK         0.1400 
     86 CB         -5.7105  -25.2147  -51.1887 C.3       15 UNK        -0.1800 
     87 C          -3.1371  -25.3206  -51.3367 C.2       15 UNK         0.5000 
     88 O          -3.2733  -25.9933  -52.3604 O.2       15 UNK        -0.5000 
     89 N          -1.9541  -25.0997  -50.7444 N.am      16 UNK        -0.5000 
     90 CA         -0.6922  -25.7358  -51.1297 C.3       16 UNK         0.1400 
     91 CB          0.3487  -25.4793  -50.0320 C.3       16 UNK        -0.1800 
     92 C          -0.1642  -25.2941  -52.5075 C.2       16 UNK         0.5000 
     93 O           0.5630  -26.0519  -53.1495 O.2       16 UNK        -0.5000 
     94 N          -0.5747  -24.1030  -52.9587 N.am      17 UNK        -0.5000 
     95 CA         -0.2842  -23.5434  -54.2789 C.3       17 UNK         0.1400 
     96 CB         -0.0789  -22.0289  -54.1248 C.3       17 UNK        -0.1800 
     97 C          -1.3898  -23.8906  -55.2991 C.2       17 UNK         0.5000 
     98 O          -1.7573  -23.0474  -56.1182 O.2       17 UNK        -0.5000 
     99 N          -1.9339  -25.1129  -55.2020 N.am      18 UNK        -0.5000 
    100 CA        -3.0088  -25.7208  -56.0031 C.3       18 UNK         0.1400 
    101 CB        -2.6426  -25.7458  -57.5006 C.3       18 UNK        -0.1800 
    102 C         -4.4154  -25.1242  -55.7774 C.2       18 UNK         0.5000 
    103 O         -5.3999  -25.7191  -56.2185 O.2       18 UNK        -0.5000 
    104 N         -4.4976  -23.9888  -55.0825 N.am      19 UNK        -0.5000 
    105 CA        -5.7035  -23.2764  -54.6945 C.3       19 UNK         0.1400 
    106 CB        -6.2333  -22.4513  -55.8810 C.3       19 UNK        -0.1800 
    107 C         -5.3303  -22.3622  -53.5229 C.2       19 UNK         0.5000 
    108 O         -4.1614  -21.9893  -53.3899 O.2       19 UNK        -0.5000 
    109 N         -6.3258  -21.9778  -52.7155 N.am      20 UNK        -0.5000 
    110 CA        -6.1594  -21.0270  -51.6096 C.3       20 UNK         0.1400 
    111 CB        -7.4166  -21.0507  -50.7281 C.3       20 UNK        -0.1800 
    112 C         -5.8557  -19.5942  -52.0918 C.2       20 UNK         0.5000 
    113 O         -5.1911  -18.8381  -51.3843 O.2       20 UNK        -0.5000 
    114 N         -6.3244  -19.2682  -53.3041 N.am      21 UNK        -0.5000 
    115 CA        -6.0358  -18.0265  -54.0228 C.3       21 UNK         0.1400 
    116 CB        -7.2193  -17.7258  -54.9579 C.3       21 UNK        -0.1800 
    117 C         -4.7131  -18.0811  -54.8196 C.2       21 UNK         0.5000 
    118 O         -4.3358  -17.0649  -55.4037 O.2       21 UNK        -0.5000 
    119 N         -4.0491  -19.2473  -54.8286 N.am      22 UNK        -0.5000 
    120 CA        -2.8178  -19.5934  -55.5574 C.3       22 UNK         0.1400 
    121 C         -3.0557  -19.7538  -57.0840 C.2       22 UNK         0.5000 
    122 N         -2.7791  -20.9250  -57.6395 N.am      22 UNK        -0.7600 
    123 O         -3.4521  -18.8235  -57.7808 O.2       22 UNK        -0.5000 
    124 C124       -1.6199  -18.6497  -55.2636 C.3       23 UNK        -0.0398 
    125 S125       -1.2287  -18.5580  -53.4832 S.3       23 UNK        -0.2404 
    126 C126        0.5815  -18.3994  -53.5261 C.3       23 UNK        -0.0205 
    127 H127       -1.7820  -14.3217  -42.8940 H         1 UNK         0.0600 
    128 H128       -1.3000  -15.6459  -43.9483 H         1 UNK         0.0600 
    129 H129       -0.1478  -14.3620  -43.5669 H         1 UNK         0.0600 
    130 H130       -0.0192  -14.3437  -46.0396 H         1 UNK         0.3000 
    131 H131       -2.2070  -13.5139  -47.6349 H         1 UNK         0.0600 
    132 H132        0.7847  -13.3489  -48.2518 H         1 UNK         0.0800 
    133 H133       -0.4972  -13.1904  -49.4284 H         1 UNK         0.0800 
    134 H134        2.1188  -15.7273  -48.4793 H         1 UNK         0.0800 
    135 H135        1.7283  -14.9308  -49.9845 H         1 UNK         0.0800 
    136 H136        0.5675  -16.2755  -51.8340 H         1 UNK         0.1150 
    137 H137        1.8657  -20.3504  -52.0995 H         1 UNK         0.1150 
    138 H138        2.5464  -18.1171  -48.5059 H         1 UNK         0.1150 
    139 H139        3.7223  -20.9395  -50.3578 H         1 UNK         0.0800 
    140 H140        3.5359  -20.3059  -48.7437 H         1 UNK         0.0800 
    141 H141        1.9432  -21.3158  -46.9921 H         1 UNK         0.0800 
    142 H142        0.7775  -20.3159  -47.8140 H         1 UNK         0.0800 
    143 H143        0.2819  -23.2998  -47.3058 H         1 UNK         0.0600 
    144 H144        0.4347  -21.4143  -45.2578 H         1 UNK         0.3000 
    145 H145       -2.0637  -22.7381  -43.0525 H         1 UNK         0.0600 
    146 H146       -0.0889  -22.7996  -41.5751 H         1 UNK         0.0600 
    147 H147        0.0199  -24.0905  -42.7619 H         1 UNK         0.0600 
    148 H148        0.9961  -22.6392  -42.9540 H         1 UNK         0.0600 
    149 H149       -0.3279  -20.5344  -42.7202 H         1 UNK         0.3000 
    150 H150       -2.4531  -18.0281  -44.2018 H         1 UNK         0.0600 
    151 H151       -3.1336  -18.3314  -41.8389 H         1 UNK         0.0600 
    152 H152       -1.9276  -17.0586  -41.9586 H         1 UNK         0.0600 
    153 H153       -1.4723  -18.6529  -41.3657 H         1 UNK         0.0600 
    154 H154        0.1597  -17.8063  -43.1389 H         1 UNK         0.3000 
    155 H155        1.9882  -18.5036  -46.1344 H         1 UNK         0.0600 
    156 H156        2.8865  -16.2712  -45.5719 H         1 UNK         0.0600 
    157 H157        1.5281  -15.9545  -44.4935 H         1 UNK         0.0600 
    158 H158        1.2636  -16.1101  -46.2234 H         1 UNK         0.0600 
    159 H159        2.7159  -17.8220  -43.4299 H         1 UNK         0.3000 
    160 H160        3.1468  -21.1813  -42.2808 H         1 UNK         0.0600 
    161 H161        5.1312  -18.9356  -42.9385 H         1 UNK         0.0600 
    162 H162        5.2191  -20.5845  -43.5468 H         1 UNK         0.0600 
    163 H163        5.4083  -20.2775  -41.8281 H         1 UNK         0.0600 
    164 H164        3.5672  -18.6476  -41.0304 H         1 UNK         0.3000 
    165 H165        0.2905  -18.1746  -39.7487 H         1 UNK         0.0600 
    166 H166        2.8352  -19.0824  -38.2994 H         1 UNK         0.0600 
    167 H167        1.4659  -18.2421  -37.5707 H         1 UNK         0.0600 
    168 H168        1.2660  -19.8714  -38.1943 H         1 UNK         0.0600 
    169 H169        2.6812  -16.7704  -39.2286 H         1 UNK         0.3000 
    170 H170        3.0096  -14.7341  -40.0024 H         1 UNK         0.0600 
    171 H171        4.4281  -15.8680  -41.7271 H         1 UNK         0.0600 
    172 H172        3.4235  -15.2025  -43.0092 H         1 UNK         0.0600 
    173 H173        4.3788  -14.1319  -41.9863 H         1 UNK         0.0600 
    174 H174        1.8977  -13.4254  -42.3091 H         1 UNK         0.3000 
    175 H175       -0.8456  -12.4978  -41.6833 H         1 UNK         0.0600 
    176 H176       -1.0273  -10.2346  -40.6203 H         1 UNK         0.0600 
    177 H177       -1.1592  -11.5434  -39.4583 H         1 UNK         0.0600 
    178 H178        0.3352  -10.6277  -39.5723 H         1 UNK         0.0600 
    179 H179        0.3453  -11.4402  -43.2144 H         1 UNK         0.3000 
    180 H180        2.7281   -9.0426  -43.3304 H         1 UNK         0.0600 
    181 H181        4.2760  -10.4077  -44.7212 H         1 UNK         0.0600 
    182 H182        4.5123  -10.7599  -43.0188 H         1 UNK         0.0600 
    183 H183        3.6243  -11.8936  -44.0284 H         1 UNK         0.0600 
    184 H184        1.8816  -10.8274  -45.3890 H         1 UNK         0.3000 
    185 H185       -1.2532   -9.2373  -46.0333 H         1 UNK         0.0600 
    186 H186       -0.1935   -8.9879  -48.2660 H         1 UNK         0.0600 
    187 H187        0.5480   -7.8584  -47.1485 H         1 UNK         0.0600 
    188 H188        1.3964   -9.3353  -47.5907 H         1 UNK         0.0600 
    189 H189        0.1982  -11.6864  -45.8577 H         1 UNK         0.3000 
    190 H190       -1.6182  -20.2930  -46.9048 H         1 UNK         0.3000 
    191 H191       -3.2801  -20.6354  -49.2023 H         1 UNK         0.0600 
    192 H192       -4.6346  -18.8322  -48.1384 H         1 UNK         0.0600 
    193 H193       -2.9217  -18.4392  -48.1226 H         1 UNK         0.0600 
    194 H194       -3.7092  -18.9959  -46.6483 H         1 UNK         0.0600 
    195 H195       -3.8482  -21.3749  -45.7039 H         1 UNK         0.3000 
    196 H196       -6.4852  -22.3064  -45.9842 H         1 UNK         0.0600 
    197 H197       -6.1123  -23.2780  -43.7069 H         1 UNK         0.0600 
    198 H198       -5.5061  -21.6333  -43.8192 H         1 UNK         0.0600 
    199 H199       -4.3831  -22.9921  -43.8657 H         1 UNK         0.0600 
    200 H200       -3.4096  -24.1366  -46.1856 H         1 UNK         0.3000 
    201 H201       -4.6762  -26.7202  -46.5232 H         1 UNK         0.0600 
    202 H202       -2.3790  -26.4394  -45.5851 H         1 UNK         0.0600 
    203 H203       -1.8221  -25.7710  -47.1194 H         1 UNK         0.0600 
    204 H204       -2.3500  -27.4466  -47.0240 H         1 UNK         0.0600 
    205 H205       -4.2544  -24.0550  -48.6305 H         1 UNK         0.3000 
    206 H206       -4.3118  -23.6358  -50.7979 H         1 UNK         0.0600 
    207 H207       -6.5471  -24.6953  -50.7212 H         1 UNK         0.0600 
    208 H208       -5.7791  -25.0431  -52.2619 H         1 UNK         0.0600 
    209 H209       -5.8461  -26.2842  -51.0281 H         1 UNK         0.0600 
    210 H210       -1.9246  -24.4882  -49.9332 H         1 UNK         0.3000 
    211 H211       -0.8670  -26.8124  -51.1829 H         1 UNK         0.0600 
    212 H212        0.5235  -24.4134  -49.8968 H         1 UNK         0.0600 
    213 H213        1.3048  -25.9432  -50.2777 H         1 UNK         0.0600 
    214 H214        0.0233  -25.8884  -49.0753 H         1 UNK         0.0600 
    215 H215       -1.1951  -23.5656  -52.3703 H         1 UNK         0.3000 
    216 H216        0.6454  -23.9659  -54.6653 H         1 UNK         0.0600 
    217 H217        0.1378  -21.5523  -55.0816 H         1 UNK         0.0600 
    218 H218        0.7606  -21.8200  -53.4638 H         1 UNK         0.0600 
    219 H219       -0.9624  -21.5500  -53.7026 H         1 UNK         0.0600 
    220 H220       -1.5938  -25.6986  -54.4514 H         1 UNK         0.3000 
    221 H221       -3.0693  -26.7561  -55.6646 H         1 UNK         0.0600 
    222 H222       -2.6273  -24.7456  -57.9339 H         1 UNK         0.0600 
    223 H223       -1.6638  -26.1979  -57.6609 H         1 UNK         0.0600 
    224 H224       -3.3668  -26.3316  -58.0679 H         1 UNK         0.0600 
    225 H225       -3.6437  -23.5622  -54.7450 H         1 UNK         0.3000 
    226 H226       -6.4608  -23.9911  -54.3666 H         1 UNK         0.0600 
    227 H227       -7.1300  -21.8951  -55.6059 H         1 UNK         0.0600 
    228 H228       -5.4927  -21.7315  -56.2323 H         1 UNK         0.0600 
    229 H229       -6.4977  -23.0920  -56.7223 H         1 UNK         0.0600 
    230 H230       -7.2613  -22.3233  -52.8774 H         1 UNK         0.3000 
    231 H231       -5.3090  -21.3519  -51.0080 H         1 UNK         0.0600 
    232 H232       -7.3102  -20.3707  -49.8817 H         1 UNK         0.0600 
    233 H233       -7.5899  -22.0465  -50.3194 H         1 UNK         0.0600 
    234 H234       -8.3066  -20.7515  -51.2829 H         1 UNK         0.0600 
    235 H235       -6.8769  -19.9521  -53.7992 H         1 UNK         0.3000 
    236 H236       -5.9511  -17.2077  -53.3052 H         1 UNK         0.0600 
    237 H237       -7.3427  -18.5032  -55.7130 H         1 UNK         0.0600 
    238 H238       -8.1527  -17.6465  -54.4003 H         1 UNK         0.0600 
    239 H239       -7.0756  -16.7798  -55.4816 H         1 UNK         0.0600 
    240 H240       -4.4231  -20.0046  -54.2735 H         1 UNK         0.3000 
    241 H241       -2.5455  -20.5764  -55.1732 H         1 UNK         0.0600 
    242 H242       -2.9132  -21.0424  -58.6309 H         1 UNK         0.3800 
    243 H243       -2.4204  -21.7061  -57.0891 H         1 UNK         0.3800 
    244 H244       -1.8088  -17.6412  -55.6332 H         1 UNK         0.0800 
    245 H245       -0.7370  -19.0047  -55.7977 H         1 UNK         0.0800 
    246 H246        0.8550  -17.5012  -54.0819 H         1 UNK         0.0800 
    247 H247        1.0126  -19.2436  -54.0657 H         1 UNK         0.0800 
@<TRIPOS>BOND
     1    1    2 1    
     2    1  127 1    
     3    1  128 1    
     4    1  129 1    
     5    2    3 2    
     6    2    4 am   BACKBONE|DICT|INTERRES
     7    4    5 1    
     8    4  130 1    
     9    5    6 1    
    10    5   65 1    
    11    5  131 1    
    12    6    7 1    
    13    6  132 1    
    14    6  133 1    
    15    7    8 1    
    16    8    9 1    
    17    8  134 1    
    18    8  135 1    
    19    9   10 ar   
    20    9   14 ar   
    21   10   11 ar   
    22   10  136 1    
    23   11   12 ar   
    24   11  126 1    
    25   12   13 ar   
    26   12  137 1    
    27   13   14 ar   
    28   13   15 1    
    29   14  138 1    
    30   15   16 1    
    31   15  139 1    
    32   15  140 1    
    33   16   17 1    
    34   17   18 1    
    35   17  141 1    
    36   17  142 1    
    37   18   19 1    
    38   18   67 1    
    39   18  143 1    
    40   19   20 am   BACKBONE|DICT|INTERRES
    41   19  144 1    
    42   20   21 2    
    43   20   22 1    
    44   22   23 1    
    45   22   24 1    
    46   22  145 1    
    47   23  146 1    
    48   23  147 1    
    49   23  148 1    
    50   24   25 am   BACKBONE|DICT|INTERRES
    51   24  149 1    
    52   25   26 2    
    53   25   27 1    
    54   27   28 1    
    55   27   29 1    
    56   27  150 1    
    57   28  151 1    
    58   28  152 1    
    59   28  153 1    
    60   29   30 am   BACKBONE|DICT|INTERRES
    61   29  154 1    
    62   30   31 2    
    63   30   32 1    
    64   32   33 1    
    65   32   34 1    
    66   32  155 1    
    67   33  156 1    
    68   33  157 1    
    69   33  158 1    
    70   34   35 am   BACKBONE|DICT|INTERRES
    71   34  159 1    
    72   35   36 2    
    73   35   37 1    
    74   37   38 1    
    75   37   39 1    
    76   37  160 1    
    77   38  161 1    
    78   38  162 1    
    79   38  163 1    
    80   39   40 am   BACKBONE|DICT|INTERRES
    81   39  164 1    
    82   40   41 2    
    83   40   42 1    
    84   42   43 1    
    85   42   44 1    
    86   42  165 1    
    87   43  166 1    
    88   43  167 1    
    89   43  168 1    
    90   44   45 am   BACKBONE|DICT|INTERRES
    91   44  169 1    
    92   45   46 2    
    93   45   47 1    
    94   47   48 1    
    95   47   49 1    
    96   47  170 1    
    97   48  171 1    
    98   48  172 1    
    99   48  173 1    
   100   49   50 am   BACKBONE|DICT|INTERRES
   101   49  174 1    
   102   50   51 2    
   103   50   52 1    
   104   52   53 1    
   105   52   54 1    
   106   52  175 1    
   107   53  176 1    
   108   53  177 1    
   109   53  178 1    
   110   54   55 am   BACKBONE|DICT|INTERRES
   111   54  179 1    
   112   55   56 2    
   113   55   57 1    
   114   57   58 1    
   115   57   59 1    
   116   57  180 1    
   117   58  181 1    
   118   58  182 1    
   119   58  183 1    
   120   59   60 am   BACKBONE|DICT|INTERRES
   121   59  184 1    
   122   60   61 2    
   123   60   62 1    
   124   62   63 1    
   125   62   64 1    
   126   62  185 1    
   127   63  186 1    
   128   63  187 1    
   129   63  188 1    
   130   64   65 am   BACKBONE|DICT|INTERRES
   131   64  189 1    
   132   65   66 2    
   133   67   68 2    
   134   67   69 am   BACKBONE|DICT|INTERRES
   135   69   70 1    
   136   69  190 1    
   137   70   71 1    
   138   70   72 1    
   139   70  191 1    
   140   71  192 1    
   141   71  193 1    
   142   71  194 1    
   143   72   73 2    
   144   72   74 am   BACKBONE|DICT|INTERRES
   145   74   75 1    
   146   74  195 1    
   147   75   76 1    
   148   75   77 1    
   149   75  196 1    
   150   76  197 1    
   151   76  198 1    
   152   76  199 1    
   153   77   78 2    
   154   77   79 am   BACKBONE|DICT|INTERRES
   155   79   80 1    
   156   79  200 1    
   157   80   81 1    
   158   80   82 1    
   159   80  201 1    
   160   81  202 1    
   161   81  203 1    
   162   81  204 1    
   163   82   83 2    
   164   82   84 am   BACKBONE|DICT|INTERRES
   165   84   85 1    
   166   84  205 1    
   167   85   86 1    
   168   85   87 1    
   169   85  206 1    
   170   86  207 1    
   171   86  208 1    
   172   86  209 1    
   173   87   88 2    
   174   87   89 am   BACKBONE|DICT|INTERRES
   175   89   90 1    
   176   89  210 1    
   177   90   91 1    
   178   90   92 1    
   179   90  211 1    
   180   91  212 1    
   181   91  213 1    
   182   91  214 1    
   183   92   93 2    
   184   92   94 am   BACKBONE|DICT|INTERRES
   185   94   95 1    
   186   94  215 1    
   187   95   96 1    
   188   95   97 1    
   189   95  216 1    
   190   96  217 1    
   191   96  218 1    
   192   96  219 1    
   193   97   98 2    
   194   97   99 am   BACKBONE|DICT|INTERRES
   195   99  100 1    
   196   99  220 1    
   197  100  101 1    
   198  100  102 1    
   199  100  221 1    
   200  101  222 1    
   201  101  223 1    
   202  101  224 1    
   203  102  103 2    
   204  102  104 am   BACKBONE|DICT|INTERRES
   205  104  105 1    
   206  104  225 1    
   207  105  106 1    
   208  105  107 1    
   209  105  226 1    
   210  106  227 1    
   211  106  228 1    
   212  106  229 1    
   213  107  108 2    
   214  107  109 am   BACKBONE|DICT|INTERRES
   215  109  110 1    
   216  109  230 1    
   217  110  111 1    
   218  110  112 1    
   219  110  231 1    
   220  111  232 1    
   221  111  233 1    
   222  111  234 1    
   223  112  113 2    
   224  112  114 am   BACKBONE|DICT|INTERRES
   225  114  115 1    
   226  114  235 1    
   227  115  116 1    
   228  115  117 1    
   229  115  236 1    
   230  116  237 1    
   231  116  238 1    
   232  116  239 1    
   233  117  118 2    
   234  117  119 am   BACKBONE|DICT|INTERRES
   235  119  120 1    
   236  119  240 1    
   237  120  121 1    
   238  120  124 1    
   239  120  241 1    
   240  121  122 am   BACKBONE|DICT|INTERRES
   241  121  123 2    
   242  122  242 1    
   243  122  243 1    
   244  124  125 1    
   245  124  244 1    
   246  124  245 1    
   247  125  126 1    
   248  126  246 1    
   249  126  247 1    
@<TRIPOS>SUBSTRUCTURE
     1 UNK         1 GROUP             0       ****    0 ROOT    
