@<TRIPOS>MOLECULE
3R540
247   249    1
SMALL
USER_CHARGES


@<TRIPOS>ATOM
      1 CA         -6.0115  -15.1495  -50.8409 C.3       0 UNK        -0.1800 
      2 C          -5.0868  -14.3471  -49.9370 C.2       0 UNK         0.5000 
      3 O          -5.5025  -13.3209  -49.3975 O.2       0 UNK        -0.5000 
      4 N          -3.8335  -14.7927  -49.7844 N.am      1 UNK        -0.5000 
      5 CA         -2.8288  -14.1549  -48.9262 C.3       1 UNK         0.1400 
      6 C6         -1.3729  -14.5342  -49.3034 C.3       23 UNK        -0.0398 
      7 S7         -1.0420  -16.3208  -49.4769 S.3       23 UNK        -0.2404 
      8 C8          0.7682  -16.2981  -49.6834 C.3       23 UNK        -0.0205 
      9 C9          1.2450  -17.5237  -50.4465 C.ar      23 UNK        -0.0193 
     10 C10         1.6216  -17.4206  -51.7877 C.ar      23 UNK        -0.1150 
     11 C11         2.0039  -18.5567  -52.5069 C.ar      23 UNK        -0.0193 
     12 C12         2.0124  -19.8005  -51.8676 C.ar      23 UNK        -0.1150 
     13 C13         1.6581  -19.9225  -50.5198 C.ar      23 UNK        -0.0193 
     14 C14         1.2865  -18.7685  -49.8156 C.ar      23 UNK        -0.1150 
     15 C15         1.6620  -21.3216  -49.8952 C.3       23 UNK        -0.0205 
     16 S16         1.6866  -21.3885  -48.0696 S.3       23 UNK        -0.2404 
     17 C17        -0.0359  -20.9605  -47.6479 C.3       23 UNK        -0.0398 
     18 CA         -0.7245  -22.0208  -46.7627 C.3       11 UNK         0.1400 
     19 N          -0.0882  -22.1650  -45.4437 N.am      11 UNK        -0.5000 
     20 C          -0.4549  -23.0373  -44.4907 C.2       10 UNK         0.5000 
     21 O          -1.3899  -23.8292  -44.6129 O.2       10 UNK        -0.5000 
     22 CA          0.3006  -22.9700  -43.1527 C.3       10 UNK         0.1400 
     23 CB          1.6934  -23.6096  -43.2572 C.3       10 UNK        -0.1800 
     24 N           0.4056  -21.5909  -42.6780 N.am      10 UNK        -0.5000 
     25 C          -0.6232  -20.9014  -42.1636 C.2       9 UNK         0.5000 
     26 O          -1.7224  -21.4006  -41.9251 O.2       9 UNK        -0.5000 
     27 CA         -0.4098  -19.3985  -41.8976 C.3       9 UNK         0.1400 
     28 CB          0.1030  -19.1690  -40.4682 C.3       9 UNK        -0.1800 
     29 N           0.5041  -18.7670  -42.8498 N.am      9 UNK        -0.5000 
     30 C           0.2793  -18.6461  -44.1655 C.2       8 UNK         0.5000 
     31 O          -0.7645  -18.9963  -44.7130 O.2       8 UNK        -0.5000 
     32 CA          1.4382  -18.0987  -45.0199 C.3       8 UNK         0.1400 
     33 CB          1.4049  -16.5670  -45.0875 C.3       8 UNK        -0.1800 
     34 N           2.7476  -18.5435  -44.5416 N.am      8 UNK        -0.5000 
     35 C           3.1583  -19.8192  -44.5569 C.2       7 UNK         0.5000 
     36 O           2.4676  -20.7506  -44.9652 O.2       7 UNK        -0.5000 
     37 CA          4.5435  -20.1048  -43.9526 C.3       7 UNK         0.1400 
     38 CB          5.6628  -19.6385  -44.8960 C.3       7 UNK        -0.1800 
     39 N           4.7047  -19.4692  -42.6452 N.am      7 UNK        -0.5000 
     40 C           4.0109  -19.8113  -41.5501 C.2       6 UNK         0.5000 
     41 O           3.2169  -20.7511  -41.5105 O.2       6 UNK        -0.5000 
     42 CA          4.2059  -18.9294  -40.3011 C.3       6 UNK         0.1400 
     43 CB          5.3553  -19.4685  -39.4368 C.3       6 UNK        -0.1800 
     44 N           4.4496  -17.5141  -40.6030 N.am      6 UNK        -0.5000 
     45 C           3.6025  -16.7145  -41.2637 C.2       5 UNK         0.5000 
     46 O           2.5292  -17.0951  -41.7396 O.2       5 UNK        -0.5000 
     47 CA          4.0436  -15.2588  -41.4601 C.3       5 UNK         0.1400 
     48 CB          5.1129  -15.1503  -42.5608 C.3       5 UNK        -0.1800 
     49 N           2.8757  -14.4769  -41.8438 N.am      5 UNK        -0.5000 
     50 C           2.6404  -13.1986  -41.5348 C.2       4 UNK         0.5000 
     51 O           3.4309  -12.4931  -40.9065 O.2       4 UNK        -0.5000 
     52 CA          1.3025  -12.5971  -42.0118 C.3       4 UNK         0.1400 
     53 CB          1.5379  -11.6075  -43.1638 C.3       4 UNK        -0.1800 
     54 N           0.3299  -13.5980  -42.4573 N.am      4 UNK        -0.5000 
     55 C          -0.4104  -14.3799  -41.6635 C.2       3 UNK         0.5000 
     56 O          -0.3380  -14.3550  -40.4340 O.2       3 UNK        -0.5000 
     57 CA         -1.4084  -15.3250  -42.3734 C.3       3 UNK         0.1400 
     58 CB         -2.2427  -16.1572  -41.3832 C.3       3 UNK        -0.1800 
     59 N          -2.3308  -14.6136  -43.2635 N.am      3 UNK        -0.5000 
     60 C          -2.0329  -14.0843  -44.4563 C.2       2 UNK         0.5000 
     61 O          -0.9048  -14.1090  -44.9544 O.2       2 UNK        -0.5000 
     62 CA         -3.1756  -13.3491  -45.1777 C.3       2 UNK         0.1400 
     63 CB         -3.2755  -11.9006  -44.6739 C.3       2 UNK        -0.1800 
     64 N          -2.9790  -13.3287  -46.6265 N.am      2 UNK        -0.5000 
     65 C          -3.1336  -14.3881  -47.4307 C.2       1 UNK         0.5000 
     66 O          -3.5042  -15.4960  -47.0366 O.2       1 UNK        -0.5000 
     67 C          -2.2310  -21.7041  -46.6809 C.2       11 UNK         0.5000 
     68 O          -2.9799  -22.1462  -47.5524 O.2       11 UNK        -0.5000 
     69 N          -2.6605  -20.9834  -45.6356 N.am      12 UNK        -0.5000 
     70 CA         -4.0612  -20.6849  -45.3253 C.3       12 UNK         0.1400 
     71 CB         -4.1327  -19.8192  -44.0593 C.3       12 UNK        -0.1800 
     72 C          -4.9482  -21.9389  -45.1832 C.2       12 UNK         0.5000 
     73 O          -6.1315  -21.8764  -45.5167 O.2       12 UNK        -0.5000 
     74 N          -4.3550  -23.0528  -44.7343 N.am      13 UNK        -0.5000 
     75 CA         -4.9938  -24.3630  -44.6632 C.3       13 UNK         0.1400 
     76 CB         -4.6419  -25.0219  -43.3197 C.3       13 UNK        -0.1800 
     77 C          -4.5552  -25.2545  -45.8371 C.2       13 UNK         0.5000 
     78 O          -5.4079  -25.8306  -46.5123 O.2       13 UNK        -0.5000 
     79 N          -3.2368  -25.3632  -46.0544 N.am      14 UNK        -0.5000 
     80 CA         -2.6158  -26.3286  -46.9647 C.3       14 UNK         0.1400 
     81 CB         -1.1110  -26.4034  -46.6623 C.3       14 UNK        -0.1800 
     82 C          -2.8429  -26.0405  -48.4590 C.2       14 UNK         0.5000 
     83 O          -2.9093  -26.9843  -49.2475 O.2       14 UNK        -0.5000 
     84 N          -2.9467  -24.7572  -48.8216 N.am      15 UNK        -0.5000 
     85 CA         -3.1296  -24.2833  -50.1955 C.3       15 UNK         0.1400 
     86 CB         -1.8776  -23.4878  -50.6084 C.3       15 UNK        -0.1800 
     87 C          -4.4018  -23.4277  -50.3350 C.2       15 UNK         0.5000 
     88 O          -4.5824  -22.7851  -51.3710 O.2       15 UNK        -0.5000 
     89 N          -5.2327  -23.3914  -49.2808 N.am      16 UNK        -0.5000 
     90 CA         -6.4431  -22.5768  -49.1297 C.3       16 UNK         0.1400 
     91 CB         -7.5776  -23.1405  -50.0083 C.3       16 UNK        -0.1800 
     92 C          -6.1829  -21.0688  -49.3477 C.2       16 UNK         0.5000 
     93 O          -6.9577  -20.3985  -50.0309 O.2       16 UNK        -0.5000 
     94 N          -5.0689  -20.5833  -48.7773 N.am      17 UNK        -0.5000 
     95 CA         -4.5299  -19.2210  -48.8859 C.3       17 UNK         0.1400 
     96 CB         -5.5265  -18.1719  -48.3487 C.3       17 UNK        -0.1800 
     97 C          -4.0060  -18.9040  -50.3007 C.2       17 UNK         0.5000 
     98 O          -4.1254  -17.7702  -50.7650 O.2       17 UNK        -0.5000 
     99 N          -3.4222  -19.9261  -50.9438 N.am      18 UNK        -0.5000 
    100 CA        -2.8948  -19.9361  -52.3100 C.3       18 UNK         0.1400 
    101 CB        -1.7388  -18.9305  -52.4792 C.3       18 UNK        -0.1800 
    102 C         -4.0133  -19.7704  -53.3557 C.2       18 UNK         0.5000 
    103 O         -3.9204  -18.9257  -54.2483 O.2       18 UNK        -0.5000 
    104 N         -5.0478  -20.6163  -53.2439 N.am      19 UNK        -0.5000 
    105 CA        -6.2144  -20.6523  -54.1345 C.3       19 UNK         0.1400 
    106 CB        -7.2539  -21.6254  -53.5620 C.3       19 UNK        -0.1800 
    107 C         -5.8796  -21.0177  -55.5958 C.2       19 UNK         0.5000 
    108 O         -6.6433  -20.6760  -56.4991 O.2       19 UNK        -0.5000 
    109 N         -4.7277  -21.6699  -55.8048 N.am      20 UNK        -0.5000 
    110 CA        -4.1351  -21.9603  -57.1121 C.3       20 UNK         0.1400 
    111 CB        -3.0773  -23.0611  -56.9281 C.3       20 UNK        -0.1800 
    112 C         -3.5143  -20.7239  -57.8025 C.2       20 UNK         0.5000 
    113 O         -3.0574  -20.8437  -58.9403 O.2       20 UNK        -0.5000 
    114 N         -3.4695  -19.5764  -57.1045 N.am      21 UNK        -0.5000 
    115 CA        -2.9203  -18.2852  -57.5372 C.3       21 UNK         0.1400 
    116 CB        -3.7237  -17.7130  -58.7240 C.3       21 UNK        -0.1800 
    117 C         -1.4000  -18.3232  -57.8005 C.2       21 UNK         0.5000 
    118 O         -0.8908  -17.5246  -58.5888 O.2       21 UNK        -0.5000 
    119 N         -0.7083  -19.2520  -57.1257 N.am      22 UNK        -0.5000 
    120 CA         0.7456  -19.4864  -57.1874 C.3       22 UNK         0.1400 
    121 C          1.2573  -20.0357  -58.5552 C.2       22 UNK         0.5000 
    122 N          0.3952  -20.5427  -59.4296 N.am      22 UNK        -0.7600 
    123 O          2.4568  -20.0369  -58.8190 O.2       22 UNK        -0.5000 
    124 C124        1.5796  -18.2789  -56.6688 C.3       23 UNK        -0.0398 
    125 S125        1.0674  -17.7579  -54.9941 S.3       23 UNK        -0.2404 
    126 C126        2.4068  -18.4462  -53.9717 C.3       23 UNK        -0.0205 
    127 H127       -5.4543  -15.6483  -51.6340 H         1 UNK         0.0600 
    128 H128       -6.7475  -14.4971  -51.3109 H         1 UNK         0.0600 
    129 H129       -6.5429  -15.9048  -50.2627 H         1 UNK         0.0600 
    130 H130       -3.5702  -15.6844  -50.1899 H         1 UNK         0.3000 
    131 H131       -2.9109  -13.0794  -49.1001 H         1 UNK         0.0600 
    132 H132       -0.6698  -14.1125  -48.5823 H         1 UNK         0.0800 
    133 H133       -1.1271  -14.0680  -50.2584 H         1 UNK         0.0800 
    134 H134        1.0690  -15.3911  -50.2101 H         1 UNK         0.0800 
    135 H135        1.2444  -16.2595  -48.7025 H         1 UNK         0.0800 
    136 H136        1.5961  -16.4597  -52.2823 H         1 UNK         0.1150 
    137 H137        2.2956  -20.6835  -52.4235 H         1 UNK         0.1150 
    138 H138        1.0019  -18.8164  -48.7779 H         1 UNK         0.1150 
    139 H139        0.8012  -21.8793  -50.2658 H         1 UNK         0.0800 
    140 H140        2.5446  -21.8575  -50.2476 H         1 UNK         0.0800 
    141 H141       -0.5925  -20.8149  -48.5760 H         1 UNK         0.0800 
    142 H142       -0.0420  -19.9955  -47.1424 H         1 UNK         0.0800 
    143 H143       -0.6369  -22.9864  -47.2644 H         1 UNK         0.0600 
    144 H144        0.7221  -21.5752  -45.2718 H         1 UNK         0.3000 
    145 H145       -0.2693  -23.5439  -42.4188 H         1 UNK         0.0600 
    146 H146        2.2209  -23.5603  -42.3045 H         1 UNK         0.0600 
    147 H147        2.3160  -23.1244  -44.0076 H         1 UNK         0.0600 
    148 H148        1.6148  -24.6619  -43.5327 H         1 UNK         0.0600 
    149 H149        1.2909  -21.1217  -42.8215 H         1 UNK         0.3000 
    150 H150       -1.3796  -18.9085  -41.9983 H         1 UNK         0.0600 
    151 H151       -0.6272  -19.5124  -39.7346 H         1 UNK         0.0600 
    152 H152        0.2907  -18.1130  -40.2739 H         1 UNK         0.0600 
    153 H153        1.0299  -19.7108  -40.2834 H         1 UNK         0.0600 
    154 H154        1.3689  -18.3897  -42.4711 H         1 UNK         0.3000 
    155 H155        1.3135  -18.4777  -46.0354 H         1 UNK         0.0600 
    156 H156        0.4695  -16.2296  -45.5337 H         1 UNK         0.0600 
    157 H157        2.2142  -16.1789  -45.7061 H         1 UNK         0.0600 
    158 H158        1.4867  -16.1120  -44.1008 H         1 UNK         0.0600 
    159 H159        3.3455  -17.8429  -44.1311 H         1 UNK         0.3000 
    160 H160        4.6353  -21.1854  -43.8224 H         1 UNK         0.0600 
    161 H161        5.6494  -18.5574  -45.0402 H         1 UNK         0.0600 
    162 H162        5.5617  -20.1021  -45.8782 H         1 UNK         0.0600 
    163 H163        6.6438  -19.9126  -44.5077 H         1 UNK         0.0600 
    164 H164        5.3412  -18.6884  -42.5872 H         1 UNK         0.3000 
    165 H165        3.2866  -18.9856  -39.7152 H         1 UNK         0.0600 
    166 H166        5.4409  -18.9133  -38.5025 H         1 UNK         0.0600 
    167 H167        5.1906  -20.5151  -39.1766 H         1 UNK         0.0600 
    168 H168        6.3130  -19.4058  -39.9549 H         1 UNK         0.0600 
    169 H169        5.3149  -17.1266  -40.2547 H         1 UNK         0.3000 
    170 H170        4.4444  -14.8914  -40.5131 H         1 UNK         0.0600 
    171 H171        4.7445  -15.5236  -43.5173 H         1 UNK         0.0600 
    172 H172        5.4240  -14.1155  -42.7052 H         1 UNK         0.0600 
    173 H173        6.0051  -15.7223  -42.3041 H         1 UNK         0.0600 
    174 H174        2.1447  -15.0138  -42.2900 H         1 UNK         0.3000 
    175 H175        0.8739  -12.0476  -41.1711 H         1 UNK         0.0600 
    176 H176        1.9586  -12.1041  -44.0392 H         1 UNK         0.0600 
    177 H177        0.6076  -11.1261  -43.4664 H         1 UNK         0.0600 
    178 H178        2.2302  -10.8179  -42.8686 H         1 UNK         0.0600 
    179 H179        0.1713  -13.6699  -43.4593 H         1 UNK         0.3000 
    180 H180       -0.8176  -16.0195  -42.9729 H         1 UNK         0.0600 
    181 H181       -2.8917  -15.5260  -40.7749 H         1 UNK         0.0600 
    182 H182       -1.6038  -16.7181  -40.7016 H         1 UNK         0.0600 
    183 H183       -2.8709  -16.8786  -41.9062 H         1 UNK         0.0600 
    184 H184       -3.2714  -14.5021  -42.9134 H         1 UNK         0.3000 
    185 H185       -4.1153  -13.8622  -44.9619 H         1 UNK         0.0600 
    186 H186       -2.3576  -11.3431  -44.8658 H         1 UNK         0.0600 
    187 H187       -4.0976  -11.3706  -45.1556 H         1 UNK         0.0600 
    188 H188       -3.4577  -11.8698  -43.5988 H         1 UNK         0.0600 
    189 H189       -2.6466  -12.4590  -47.0159 H         1 UNK         0.3000 
    190 H190       -1.9648  -20.5679  -45.0240 H         1 UNK         0.3000 
    191 H191       -4.4609  -20.0937  -46.1473 H         1 UNK         0.0600 
    192 H192       -3.5420  -18.9091  -44.1667 H         1 UNK         0.0600 
    193 H193       -3.7688  -20.3561  -43.1841 H         1 UNK         0.0600 
    194 H194       -5.1600  -19.5168  -43.8526 H         1 UNK         0.0600 
    195 H195       -3.3660  -23.0213  -44.5167 H         1 UNK         0.3000 
    196 H196       -6.0802  -24.2614  -44.7086 H         1 UNK         0.0600 
    197 H197       -5.0136  -24.4286  -42.4841 H         1 UNK         0.0600 
    198 H198       -3.5647  -25.1371  -43.1919 H         1 UNK         0.0600 
    199 H199       -5.0912  -26.0126  -43.2403 H         1 UNK         0.0600 
    200 H200       -2.5956  -24.8358  -45.4644 H         1 UNK         0.3000 
    201 H201       -3.0493  -27.3085  -46.7536 H         1 UNK         0.0600 
    202 H202       -0.9304  -26.6781  -45.6229 H         1 UNK         0.0600 
    203 H203       -0.6151  -25.4500  -46.8468 H         1 UNK         0.0600 
    204 H204       -0.6227  -27.1533  -47.2861 H         1 UNK         0.0600 
    205 H205       -2.8992  -24.0331  -48.1122 H         1 UNK         0.3000 
    206 H206       -3.2448  -25.1224  -50.8840 H         1 UNK         0.0600 
    207 H207       -0.9739  -24.0846  -50.4840 H         1 UNK         0.0600 
    208 H208       -1.7617  -22.5801  -50.0160 H         1 UNK         0.0600 
    209 H209       -1.9260  -23.1951  -51.6575 H         1 UNK         0.0600 
    210 H210       -4.9909  -23.9633  -48.4843 H         1 UNK         0.3000 
    211 H211       -6.7562  -22.6785  -48.0898 H         1 UNK         0.0600 
    212 H212       -7.3178  -23.1201  -51.0655 H         1 UNK         0.0600 
    213 H213       -8.4983  -22.5699  -49.8817 H         1 UNK         0.0600 
    214 H214       -7.7994  -24.1739  -49.7425 H         1 UNK         0.0600 
    215 H215       -4.4737  -21.2429  -48.2826 H         1 UNK         0.3000 
    216 H216       -3.6515  -19.1893  -48.2399 H         1 UNK         0.0600 
    217 H217       -6.4086  -18.0826  -48.9820 H         1 UNK         0.0600 
    218 H218       -5.0645  -17.1865  -48.3046 H         1 UNK         0.0600 
    219 H219       -5.8590  -18.4183  -47.3407 H         1 UNK         0.0600 
    220 H220       -3.4436  -20.8258  -50.4871 H         1 UNK         0.3000 
    221 H221       -2.4781  -20.9313  -52.4670 H         1 UNK         0.0600 
    222 H222       -2.0763  -17.8960  -52.4139 H         1 UNK         0.0600 
    223 H223       -0.9776  -19.0801  -51.7153 H         1 UNK         0.0600 
    224 H224       -1.2554  -19.0537  -53.4485 H         1 UNK         0.0600 
    225 H225       -5.0255  -21.3102  -52.5002 H         1 UNK         0.3000 
    226 H226       -6.6530  -19.6525  -54.1452 H         1 UNK         0.0600 
    227 H227       -7.5986  -21.2940  -52.5829 H         1 UNK         0.0600 
    228 H228       -8.1312  -21.6903  -54.2069 H         1 UNK         0.0600 
    229 H229       -6.8458  -22.6314  -53.4566 H         1 UNK         0.0600 
    230 H230       -4.1814  -21.9257  -54.9958 H         1 UNK         0.3000 
    231 H231       -4.9176  -22.3415  -57.7712 H         1 UNK         0.0600 
    232 H232       -2.6393  -23.3497  -57.8845 H         1 UNK         0.0600 
    233 H233       -3.5144  -23.9592  -56.4911 H         1 UNK         0.0600 
    234 H234       -2.2633  -22.7336  -56.2801 H         1 UNK         0.0600 
    235 H235       -3.8339  -19.5762  -56.1572 H         1 UNK         0.3000 
    236 H236       -3.0570  -17.6068  -56.6939 H         1 UNK         0.0600 
    237 H237       -3.5741  -18.2943  -59.6341 H         1 UNK         0.0600 
    238 H238       -4.7915  -17.6985  -58.5059 H         1 UNK         0.0600 
    239 H239       -3.4245  -16.6868  -58.9403 H         1 UNK         0.0600 
    240 H240       -1.2230  -19.8578  -56.5050 H         1 UNK         0.3000 
    241 H241        0.9252  -20.3082  -56.4936 H         1 UNK         0.0600 
    242 H242        0.7339  -20.9062  -60.3066 H         1 UNK         0.3800 
    243 H243       -0.5955  -20.5509  -59.2322 H         1 UNK         0.3800 
    244 H244        1.4768  -17.4260  -57.3406 H         1 UNK         0.0800 
    245 H245        2.6436  -18.5198  -56.6552 H         1 UNK         0.0800 
    246 H246        3.2900  -17.8119  -54.0578 H         1 UNK         0.0800 
    247 H247        2.6867  -19.4263  -54.3610 H         1 UNK         0.0800 
@<TRIPOS>BOND
     1    1    2 1    
     2    1  127 1    
     3    1  128 1    
     4    1  129 1    
     5    2    3 2    
     6    2    4 am   BACKBONE|DICT|INTERRES
     7    4    5 1    
     8    4  130 1    
     9    5    6 1    
    10    5   65 1    
    11    5  131 1    
    12    6    7 1    
    13    6  132 1    
    14    6  133 1    
    15    7    8 1    
    16    8    9 1    
    17    8  134 1    
    18    8  135 1    
    19    9   10 ar   
    20    9   14 ar   
    21   10   11 ar   
    22   10  136 1    
    23   11   12 ar   
    24   11  126 1    
    25   12   13 ar   
    26   12  137 1    
    27   13   14 ar   
    28   13   15 1    
    29   14  138 1    
    30   15   16 1    
    31   15  139 1    
    32   15  140 1    
    33   16   17 1    
    34   17   18 1    
    35   17  141 1    
    36   17  142 1    
    37   18   19 1    
    38   18   67 1    
    39   18  143 1    
    40   19   20 am   BACKBONE|DICT|INTERRES
    41   19  144 1    
    42   20   21 2    
    43   20   22 1    
    44   22   23 1    
    45   22   24 1    
    46   22  145 1    
    47   23  146 1    
    48   23  147 1    
    49   23  148 1    
    50   24   25 am   BACKBONE|DICT|INTERRES
    51   24  149 1    
    52   25   26 2    
    53   25   27 1    
    54   27   28 1    
    55   27   29 1    
    56   27  150 1    
    57   28  151 1    
    58   28  152 1    
    59   28  153 1    
    60   29   30 am   BACKBONE|DICT|INTERRES
    61   29  154 1    
    62   30   31 2    
    63   30   32 1    
    64   32   33 1    
    65   32   34 1    
    66   32  155 1    
    67   33  156 1    
    68   33  157 1    
    69   33  158 1    
    70   34   35 am   BACKBONE|DICT|INTERRES
    71   34  159 1    
    72   35   36 2    
    73   35   37 1    
    74   37   38 1    
    75   37   39 1    
    76   37  160 1    
    77   38  161 1    
    78   38  162 1    
    79   38  163 1    
    80   39   40 am   BACKBONE|DICT|INTERRES
    81   39  164 1    
    82   40   41 2    
    83   40   42 1    
    84   42   43 1    
    85   42   44 1    
    86   42  165 1    
    87   43  166 1    
    88   43  167 1    
    89   43  168 1    
    90   44   45 am   BACKBONE|DICT|INTERRES
    91   44  169 1    
    92   45   46 2    
    93   45   47 1    
    94   47   48 1    
    95   47   49 1    
    96   47  170 1    
    97   48  171 1    
    98   48  172 1    
    99   48  173 1    
   100   49   50 am   BACKBONE|DICT|INTERRES
   101   49  174 1    
   102   50   51 2    
   103   50   52 1    
   104   52   53 1    
   105   52   54 1    
   106   52  175 1    
   107   53  176 1    
   108   53  177 1    
   109   53  178 1    
   110   54   55 am   BACKBONE|DICT|INTERRES
   111   54  179 1    
   112   55   56 2    
   113   55   57 1    
   114   57   58 1    
   115   57   59 1    
   116   57  180 1    
   117   58  181 1    
   118   58  182 1    
   119   58  183 1    
   120   59   60 am   BACKBONE|DICT|INTERRES
   121   59  184 1    
   122   60   61 2    
   123   60   62 1    
   124   62   63 1    
   125   62   64 1    
   126   62  185 1    
   127   63  186 1    
   128   63  187 1    
   129   63  188 1    
   130   64   65 am   BACKBONE|DICT|INTERRES
   131   64  189 1    
   132   65   66 2    
   133   67   68 2    
   134   67   69 am   BACKBONE|DICT|INTERRES
   135   69   70 1    
   136   69  190 1    
   137   70   71 1    
   138   70   72 1    
   139   70  191 1    
   140   71  192 1    
   141   71  193 1    
   142   71  194 1    
   143   72   73 2    
   144   72   74 am   BACKBONE|DICT|INTERRES
   145   74   75 1    
   146   74  195 1    
   147   75   76 1    
   148   75   77 1    
   149   75  196 1    
   150   76  197 1    
   151   76  198 1    
   152   76  199 1    
   153   77   78 2    
   154   77   79 am   BACKBONE|DICT|INTERRES
   155   79   80 1    
   156   79  200 1    
   157   80   81 1    
   158   80   82 1    
   159   80  201 1    
   160   81  202 1    
   161   81  203 1    
   162   81  204 1    
   163   82   83 2    
   164   82   84 am   BACKBONE|DICT|INTERRES
   165   84   85 1    
   166   84  205 1    
   167   85   86 1    
   168   85   87 1    
   169   85  206 1    
   170   86  207 1    
   171   86  208 1    
   172   86  209 1    
   173   87   88 2    
   174   87   89 am   BACKBONE|DICT|INTERRES
   175   89   90 1    
   176   89  210 1    
   177   90   91 1    
   178   90   92 1    
   179   90  211 1    
   180   91  212 1    
   181   91  213 1    
   182   91  214 1    
   183   92   93 2    
   184   92   94 am   BACKBONE|DICT|INTERRES
   185   94   95 1    
   186   94  215 1    
   187   95   96 1    
   188   95   97 1    
   189   95  216 1    
   190   96  217 1    
   191   96  218 1    
   192   96  219 1    
   193   97   98 2    
   194   97   99 am   BACKBONE|DICT|INTERRES
   195   99  100 1    
   196   99  220 1    
   197  100  101 1    
   198  100  102 1    
   199  100  221 1    
   200  101  222 1    
   201  101  223 1    
   202  101  224 1    
   203  102  103 2    
   204  102  104 am   BACKBONE|DICT|INTERRES
   205  104  105 1    
   206  104  225 1    
   207  105  106 1    
   208  105  107 1    
   209  105  226 1    
   210  106  227 1    
   211  106  228 1    
   212  106  229 1    
   213  107  108 2    
   214  107  109 am   BACKBONE|DICT|INTERRES
   215  109  110 1    
   216  109  230 1    
   217  110  111 1    
   218  110  112 1    
   219  110  231 1    
   220  111  232 1    
   221  111  233 1    
   222  111  234 1    
   223  112  113 2    
   224  112  114 am   BACKBONE|DICT|INTERRES
   225  114  115 1    
   226  114  235 1    
   227  115  116 1    
   228  115  117 1    
   229  115  236 1    
   230  116  237 1    
   231  116  238 1    
   232  116  239 1    
   233  117  118 2    
   234  117  119 am   BACKBONE|DICT|INTERRES
   235  119  120 1    
   236  119  240 1    
   237  120  121 1    
   238  120  124 1    
   239  120  241 1    
   240  121  122 am   BACKBONE|DICT|INTERRES
   241  121  123 2    
   242  122  242 1    
   243  122  243 1    
   244  124  125 1    
   245  124  244 1    
   246  124  245 1    
   247  125  126 1    
   248  126  246 1    
   249  126  247 1    
@<TRIPOS>SUBSTRUCTURE
     1 UNK         1 GROUP             0       ****    0 ROOT    
