@<TRIPOS>MOLECULE
3R540
247   249    1
SMALL
USER_CHARGES


@<TRIPOS>ATOM
      1 CA          7.9706  -12.9360  -47.3901 C.3       0 UNK        -0.1800 
      2 C           6.4926  -13.0228  -47.7424 C.2       0 UNK         0.5000 
      3 O           6.1026  -12.6288  -48.8423 O.2       0 UNK        -0.5000 
      4 N           5.6727  -13.5353  -46.8141 N.am      1 UNK        -0.5000 
      5 CA          4.2154  -13.6916  -46.9021 C.3       1 UNK         0.1400 
      6 C6          3.7602  -14.5497  -48.1150 C.3       23 UNK        -0.0398 
      7 S7          2.0730  -15.2236  -47.9531 S.3       23 UNK        -0.2404 
      8 C8          1.6664  -15.4582  -49.7095 C.3       23 UNK        -0.0205 
      9 C9          0.4843  -16.3937  -49.9123 C.ar      23 UNK        -0.0193 
     10 C10        -0.8235  -15.9016  -49.8850 C.ar      23 UNK        -0.1150 
     11 C11        -1.9116  -16.7399  -50.1591 C.ar      23 UNK        -0.0193 
     12 C12        -1.6733  -18.0926  -50.4196 C.ar      23 UNK        -0.1150 
     13 C13        -0.3737  -18.6010  -50.4395 C.ar      23 UNK        -0.0193 
     14 C14         0.7018  -17.7465  -50.1865 C.ar      23 UNK        -0.1150 
     15 C15        -0.1292  -20.0641  -50.7734 C.3       23 UNK        -0.0205 
     16 S16         0.4009  -21.0080  -49.3161 S.3       23 UNK        -0.2404 
     17 C17        -1.1213  -21.0442  -48.3102 C.3       23 UNK        -0.0398 
     18 CA         -1.3288  -22.4268  -47.6512 C.3       11 UNK         0.1400 
     19 N          -0.2173  -22.7783  -46.7697 N.am      11 UNK        -0.5000 
     20 C           0.0517  -24.0094  -46.3218 C.2       10 UNK         0.5000 
     21 O          -0.5885  -25.0109  -46.6423 O.2       10 UNK        -0.5000 
     22 CA          1.2271  -24.1349  -45.3365 C.3       10 UNK         0.1400 
     23 CB          2.5253  -24.4330  -46.1002 C.3       10 UNK        -0.1800 
     24 N           1.4128  -22.9346  -44.5163 N.am      10 UNK        -0.5000 
     25 C           0.5161  -22.4420  -43.6522 C.2       9 UNK         0.5000 
     26 O          -0.5694  -22.9759  -43.4244 O.2       9 UNK        -0.5000 
     27 CA          0.8496  -21.0990  -42.9817 C.3       9 UNK         0.1400 
     28 CB          1.8466  -21.2718  -41.8215 C.3       9 UNK        -0.1800 
     29 N           1.2789  -20.0602  -43.9254 N.am      9 UNK        -0.5000 
     30 C           2.4150  -19.9560  -44.6310 C.2       8 UNK         0.5000 
     31 O           3.3108  -20.8008  -44.6235 O.2       8 UNK        -0.5000 
     32 CA          2.5670  -18.6953  -45.5037 C.3       8 UNK         0.1400 
     33 CB          2.0488  -18.9596  -46.9229 C.3       8 UNK        -0.1800 
     34 N           1.8598  -17.5455  -44.9381 N.am      8 UNK        -0.5000 
     35 C           2.3060  -16.8222  -43.9013 C.2       7 UNK         0.5000 
     36 O           3.4196  -16.9646  -43.3954 O.2       7 UNK        -0.5000 
     37 CA          1.3283  -15.7954  -43.3024 C.3       7 UNK         0.1400 
     38 CB          1.4441  -14.4425  -44.0153 C.3       7 UNK        -0.1800 
     39 N          -0.0568  -16.2666  -43.3550 N.am      7 UNK        -0.5000 
     40 C          -0.5569  -17.1954  -42.5246 C.2       6 UNK         0.5000 
     41 O           0.0862  -17.7014  -41.6052 O.2       6 UNK        -0.5000 
     42 CA         -2.0072  -17.6606  -42.7575 C.3       6 UNK         0.1400 
     43 CB         -2.9680  -16.9291  -41.8087 C.3       6 UNK        -0.1800 
     44 N          -2.4661  -17.4737  -44.1324 N.am      6 UNK        -0.5000 
     45 C          -2.0123  -18.1482  -45.1965 C.2       5 UNK         0.5000 
     46 O          -1.1791  -19.0529  -45.1288 O.2       5 UNK        -0.5000 
     47 CA         -2.5709  -17.7253  -46.5676 C.3       5 UNK         0.1400 
     48 CB         -3.7355  -18.6378  -46.9774 C.3       5 UNK        -0.1800 
     49 N          -3.0294  -16.3335  -46.6270 N.am      5 UNK        -0.5000 
     50 C          -2.2492  -15.2581  -46.4594 C.2       4 UNK         0.5000 
     51 O          -1.0743  -15.3277  -46.0996 O.2       4 UNK        -0.5000 
     52 CA         -2.9216  -13.8956  -46.7108 C.3       4 UNK         0.1400 
     53 CB         -3.1794  -13.1365  -45.3944 C.3       4 UNK        -0.1800 
     54 N          -2.1909  -13.0928  -47.6984 N.am      4 UNK        -0.5000 
     55 C          -1.0210  -12.4503  -47.5627 C.2       3 UNK         0.5000 
     56 O          -0.4102  -12.3331  -46.4999 O.2       3 UNK        -0.5000 
     57 CA         -0.4557  -11.8450  -48.8668 C.3       3 UNK         0.1400 
     58 CB         -1.3715  -10.7434  -49.4420 C.3       3 UNK        -0.1800 
     59 N           0.9336  -11.3868  -48.7446 N.am      3 UNK        -0.5000 
     60 C           1.4148  -10.3241  -48.0806 C.2       2 UNK         0.5000 
     61 O           0.7191   -9.4699  -47.5275 O.2       2 UNK        -0.5000 
     62 CA          2.9562  -10.2084  -48.0563 C.3       2 UNK         0.1400 
     63 CB          3.4781   -9.1666  -47.0440 C.3       2 UNK        -0.1800 
     64 N           3.6145  -11.5075  -47.8634 N.am      2 UNK        -0.5000 
     65 C           3.4972  -12.3280  -46.8077 C.2       1 UNK         0.5000 
     66 O           2.8886  -12.0408  -45.7781 O.2       1 UNK        -0.5000 
     67 C          -2.6712  -22.5021  -46.8985 C.2       11 UNK         0.5000 
     68 O          -3.6284  -23.0667  -47.4244 O.2       11 UNK        -0.5000 
     69 N          -2.7110  -21.9833  -45.6606 N.am      12 UNK        -0.5000 
     70 CA         -3.8799  -22.0574  -44.7770 C.3       12 UNK         0.1400 
     71 CB         -3.6909  -21.1175  -43.5774 C.3       12 UNK        -0.1800 
     72 C          -4.1761  -23.4920  -44.3035 C.2       12 UNK         0.5000 
     73 O          -5.3426  -23.8708  -44.1978 O.2       12 UNK        -0.5000 
     74 N          -3.1136  -24.2724  -44.0652 N.am      13 UNK        -0.5000 
     75 CA         -3.1760  -25.6973  -43.7337 C.3       13 UNK         0.1400 
     76 CB         -1.8106  -26.1307  -43.1774 C.3       13 UNK        -0.1800 
     77 C          -3.5716  -26.5938  -44.9265 C.2       13 UNK         0.5000 
     78 O          -3.9000  -27.7610  -44.7118 O.2       13 UNK        -0.5000 
     79 N          -3.5071  -26.0468  -46.1509 N.am      14 UNK        -0.5000 
     80 CA         -3.7250  -26.7084  -47.4419 C.3       14 UNK         0.1400 
     81 CB         -5.1887  -27.1708  -47.5924 C.3       14 UNK        -0.1800 
     82 C          -2.6956  -27.8231  -47.7329 C.2       14 UNK         0.5000 
     83 O          -3.0035  -28.7862  -48.4376 O.2       14 UNK        -0.5000 
     84 N          -1.4788  -27.6561  -47.1976 N.am      15 UNK        -0.5000 
     85 CA         -0.2938  -28.4344  -47.5539 C.3       15 UNK         0.1400 
     86 CB          0.7182  -28.3703  -46.3995 C.3       15 UNK        -0.1800 
     87 C           0.3221  -27.8980  -48.8594 C.2       15 UNK         0.5000 
     88 O           0.7900  -28.6824  -49.6856 O.2       15 UNK        -0.5000 
     89 N           0.2641  -26.5707  -49.0272 N.am      16 UNK        -0.5000 
     90 CA          0.4922  -25.8576  -50.2803 C.3       16 UNK         0.1400 
     91 CB          1.3242  -24.5984  -49.9778 C.3       16 UNK        -0.1800 
     92 C          -0.8715  -25.5432  -50.9352 C.2       16 UNK         0.5000 
     93 O          -1.8573  -26.2312  -50.6570 O.2       16 UNK        -0.5000 
     94 N          -0.9213  -24.5219  -51.8020 N.am      17 UNK        -0.5000 
     95 CA         -2.1482  -24.0422  -52.4443 C.3       17 UNK         0.1400 
     96 CB         -1.7948  -22.9566  -53.4730 C.3       17 UNK        -0.1800 
     97 C          -3.1470  -23.5014  -51.4049 C.2       17 UNK         0.5000 
     98 O          -2.7738  -22.6436  -50.6041 O.2       17 UNK        -0.5000 
     99 N          -4.3860  -24.0086  -51.4329 N.am      18 UNK        -0.5000 
    100 CA        -5.4470  -23.7460  -50.4550 C.3       18 UNK         0.1400 
    101 CB        -6.5058  -24.8568  -50.5736 C.3       18 UNK        -0.1800 
    102 C         -6.0527  -22.3307  -50.5806 C.2       18 UNK         0.5000 
    103 O         -7.2311  -22.1855  -50.9080 O.2       18 UNK        -0.5000 
    104 N         -5.2106  -21.3135  -50.3561 N.am      19 UNK        -0.5000 
    105 CA        -5.4744  -19.8690  -50.4083 C.3       19 UNK         0.1400 
    106 CB        -6.5578  -19.4621  -49.3900 C.3       19 UNK        -0.1800 
    107 C         -5.7660  -19.3130  -51.8197 C.2       19 UNK         0.5000 
    108 O         -6.0548  -18.1225  -51.9502 O.2       19 UNK        -0.5000 
    109 N         -5.6494  -20.1597  -52.8531 N.am      20 UNK        -0.5000 
    110 CA        -5.9847  -19.8707  -54.2505 C.3       20 UNK         0.1400 
    111 CB        -5.7956  -21.1494  -55.0807 C.3       20 UNK        -0.1800 
    112 C         -5.1914  -18.7047  -54.8690 C.2       20 UNK         0.5000 
    113 O         -5.7306  -17.9833  -55.7094 O.2       20 UNK        -0.5000 
    114 N         -3.9464  -18.5106  -54.4110 N.am      21 UNK        -0.5000 
    115 CA        -3.0544  -17.4243  -54.8279 C.3       21 UNK         0.1400 
    116 CB        -1.6625  -17.6618  -54.2228 C.3       21 UNK        -0.1800 
    117 C         -3.5676  -16.0135  -54.4674 C.2       21 UNK         0.5000 
    118 O         -3.1487  -15.0447  -55.1024 O.2       21 UNK        -0.5000 
    119 N         -4.4687  -15.9256  -53.4807 N.am      22 UNK        -0.5000 
    120 CA        -5.1507  -14.6910  -53.0616 C.3       22 UNK         0.1400 
    121 C         -6.5651  -14.5331  -53.6957 C.2       22 UNK         0.5000 
    122 N         -7.0062  -15.4105  -54.5912 N.am      22 UNK        -0.7600 
    123 O         -7.2756  -13.5805  -53.3860 O.2       22 UNK        -0.5000 
    124 C124       -5.1938  -14.5580  -51.5157 C.3       23 UNK        -0.0398 
    125 S125       -3.5214  -14.5055  -50.7812 S.3       23 UNK        -0.2404 
    126 C126       -3.3493  -16.2247  -50.1952 C.3       23 UNK        -0.0205 
    127 H127        8.5603  -13.5111  -48.1041 H         1 UNK         0.0600 
    128 H128        8.1738  -13.3230  -46.3913 H         1 UNK         0.0600 
    129 H129        8.3043  -11.8991  -47.4276 H         1 UNK         0.0600 
    130 H130        6.0703  -13.8139  -45.9275 H         1 UNK         0.3000 
    131 H131        3.9443  -14.2470  -46.0024 H         1 UNK         0.0600 
    132 H132        4.4289  -15.4045  -48.2249 H         1 UNK         0.0800 
    133 H133        3.8410  -13.9910  -49.0481 H         1 UNK         0.0800 
    134 H134        1.4561  -14.4893  -50.1641 H         1 UNK         0.0800 
    135 H135        2.5379  -15.8566  -50.2316 H         1 UNK         0.0800 
    136 H136       -0.9869  -14.8580  -49.6726 H         1 UNK         0.1150 
    137 H137       -2.4978  -18.7526  -50.6379 H         1 UNK         0.1150 
    138 H138        1.7099  -18.1356  -50.2144 H         1 UNK         0.1150 
    139 H139       -1.0214  -20.5247  -51.1991 H         1 UNK         0.0800 
    140 H140        0.6450  -20.1324  -51.5386 H         1 UNK         0.0800 
    141 H141       -1.0499  -20.2603  -47.5570 H         1 UNK         0.0800 
    142 H142       -1.9752  -20.7889  -48.9386 H         1 UNK         0.0800 
    143 H143       -1.3702  -23.1749  -48.4456 H         1 UNK         0.0600 
    144 H144        0.3816  -22.0216  -46.4766 H         1 UNK         0.3000 
    145 H145        1.0167  -24.9725  -44.6695 H         1 UNK         0.0600 
    146 H146        3.3544  -24.6076  -45.4144 H         1 UNK         0.0600 
    147 H147        2.4220  -25.3254  -46.7191 H         1 UNK         0.0600 
    148 H148        2.8026  -23.6086  -46.7588 H         1 UNK         0.0600 
    149 H149        2.2712  -22.4062  -44.6480 H         1 UNK         0.3000 
    150 H150       -0.0823  -20.7276  -42.5519 H         1 UNK         0.0600 
    151 H151        1.4555  -21.9645  -41.0754 H         1 UNK         0.0600 
    152 H152        2.0299  -20.3218  -41.3190 H         1 UNK         0.0600 
    153 H153        2.8062  -21.6650  -42.1575 H         1 UNK         0.0600 
    154 H154        0.5703  -19.3611  -44.1162 H         1 UNK         0.3000 
    155 H155        3.6319  -18.4622  -45.5690 H         1 UNK         0.0600 
    156 H156        2.2861  -18.1320  -47.5893 H         1 UNK         0.0600 
    157 H157        0.9683  -19.0988  -46.9378 H         1 UNK         0.0600 
    158 H158        2.5056  -19.8539  -47.3485 H         1 UNK         0.0600 
    159 H159        0.9426  -17.3431  -45.3096 H         1 UNK         0.3000 
    160 H160        1.6029  -15.6432  -42.2563 H         1 UNK         0.0600 
    161 H161        1.2417  -14.5247  -45.0833 H         1 UNK         0.0600 
    162 H162        2.4483  -14.0331  -43.9037 H         1 UNK         0.0600 
    163 H163        0.7481  -13.7127  -43.6016 H         1 UNK         0.0600 
    164 H164       -0.6237  -15.9147  -44.1188 H         1 UNK         0.3000 
    165 H165       -2.0466  -18.7273  -42.5280 H         1 UNK         0.0600 
    166 H166       -2.9871  -15.8561  -42.0041 H         1 UNK         0.0600 
    167 H167       -3.9853  -17.3081  -41.9086 H         1 UNK         0.0600 
    168 H168       -2.6716  -17.0684  -40.7682 H         1 UNK         0.0600 
    169 H169       -3.1496  -16.7476  -44.2868 H         1 UNK         0.3000 
    170 H170       -1.7649  -17.8405  -47.2955 H         1 UNK         0.0600 
    171 H171       -3.4315  -19.6815  -47.0028 H         1 UNK         0.0600 
    172 H172       -4.5735  -18.5594  -46.2836 H         1 UNK         0.0600 
    173 H173       -4.0998  -18.3871  -47.9720 H         1 UNK         0.0600 
    174 H174       -3.9995  -16.1972  -46.8707 H         1 UNK         0.3000 
    175 H175       -3.8952  -14.0810  -47.1673 H         1 UNK         0.0600 
    176 H176       -3.6176  -12.1563  -45.5818 H         1 UNK         0.0600 
    177 H177       -3.8743  -13.6886  -44.7607 H         1 UNK         0.0600 
    178 H178       -2.2657  -12.9928  -44.8170 H         1 UNK         0.0600 
    179 H179       -2.5936  -13.1210  -48.6251 H         1 UNK         0.3000 
    180 H180       -0.4211  -12.6516  -49.5989 H         1 UNK         0.0600 
    181 H181       -2.3378  -11.1516  -49.7398 H         1 UNK         0.0600 
    182 H182       -1.5660   -9.9540  -48.7158 H         1 UNK         0.0600 
    183 H183       -0.9310  -10.2853  -50.3276 H         1 UNK         0.0600 
    184 H184        1.6201  -12.0238  -49.1202 H         1 UNK         0.3000 
    185 H185        3.2474   -9.8668  -49.0505 H         1 UNK         0.0600 
    186 H186        3.1674   -9.3976  -46.0249 H         1 UNK         0.0600 
    187 H187        4.5666   -9.1131  -47.0594 H         1 UNK         0.0600 
    188 H188        3.1014   -8.1710  -47.2809 H         1 UNK         0.0600 
    189 H189        4.2402  -11.8028  -48.6059 H         1 UNK         0.3000 
    190 H190       -1.8826  -21.5492  -45.2790 H         1 UNK         0.3000 
    191 H191       -4.7517  -21.7139  -45.3383 H         1 UNK         0.0600 
    192 H192       -4.4982  -21.2363  -42.8535 H         1 UNK         0.0600 
    193 H193       -3.7024  -20.0768  -43.8941 H         1 UNK         0.0600 
    194 H194       -2.7519  -21.3057  -43.0562 H         1 UNK         0.0600 
    195 H195       -2.1890  -23.8519  -44.0886 H         1 UNK         0.3000 
    196 H196       -3.9261  -25.8367  -42.9526 H         1 UNK         0.0600 
    197 H197       -1.8315  -27.1720  -42.8535 H         1 UNK         0.0600 
    198 H198       -1.5245  -25.5278  -42.3153 H         1 UNK         0.0600 
    199 H199       -1.0255  -26.0373  -43.9278 H         1 UNK         0.0600 
    200 H200       -3.2227  -25.0784  -46.2111 H         1 UNK         0.3000 
    201 H201       -3.5487  -25.9428  -48.1994 H         1 UNK         0.0600 
    202 H202       -5.8809  -26.3493  -47.4071 H         1 UNK         0.0600 
    203 H203       -5.4328  -27.9798  -46.9038 H         1 UNK         0.0600 
    204 H204       -5.3813  -27.5337  -48.6025 H         1 UNK         0.0600 
    205 H205       -1.3110  -26.8005  -46.6775 H         1 UNK         0.3000 
    206 H206       -0.5763  -29.4778  -47.7088 H         1 UNK         0.0600 
    207 H207        0.2952  -28.7834  -45.4836 H         1 UNK         0.0600 
    208 H208        1.6140  -28.9464  -46.6341 H         1 UNK         0.0600 
    209 H209        1.0302  -27.3469  -46.1902 H         1 UNK         0.0600 
    210 H210       -0.1656  -26.0265  -48.2874 H         1 UNK         0.3000 
    211 H211        1.0541  -26.4834  -50.9762 H         1 UNK         0.0600 
    212 H212        0.7783  -23.9044  -49.3415 H         1 UNK         0.0600 
    213 H213        1.6041  -24.0685  -50.8884 H         1 UNK         0.0600 
    214 H214        2.2503  -24.8563  -49.4636 H         1 UNK         0.0600 
    215 H215       -0.0870  -23.9783  -51.9647 H         1 UNK         0.3000 
    216 H216       -2.6033  -24.8819  -52.9737 H         1 UNK         0.0600 
    217 H217       -2.6909  -22.5796  -53.9674 H         1 UNK         0.0600 
    218 H218       -1.1374  -23.3486  -54.2491 H         1 UNK         0.0600 
    219 H219       -1.2941  -22.1067  -53.0087 H         1 UNK         0.0600 
    220 H220       -4.6078  -24.6929  -52.1412 H         1 UNK         0.3000 
    221 H221       -5.0141  -23.8212  -49.4569 H         1 UNK         0.0600 
    222 H222       -6.9777  -24.8619  -51.5569 H         1 UNK         0.0600 
    223 H223       -6.0653  -25.8400  -50.4079 H         1 UNK         0.0600 
    224 H224       -7.2933  -24.7274  -49.8300 H         1 UNK         0.0600 
    225 H225       -4.2438  -21.5799  -50.1801 H         1 UNK         0.3000 
    226 H226       -4.5478  -19.3957  -50.0909 H         1 UNK         0.0600 
    227 H227       -6.3296  -19.8468  -48.3959 H         1 UNK         0.0600 
    228 H228       -6.6293  -18.3769  -49.3080 H         1 UNK         0.0600 
    229 H229       -7.5431  -19.8312  -49.6754 H         1 UNK         0.0600 
    230 H230       -5.4103  -21.1161  -52.6398 H         1 UNK         0.3000 
    231 H231       -7.0410  -19.5959  -54.2811 H         1 UNK         0.0600 
    232 H232       -6.0683  -20.9823  -56.1236 H         1 UNK         0.0600 
    233 H233       -6.4239  -21.9588  -54.7082 H         1 UNK         0.0600 
    234 H234       -4.7602  -21.4916  -55.0631 H         1 UNK         0.0600 
    235 H235       -3.5906  -19.1476  -53.7146 H         1 UNK         0.3000 
    236 H236       -2.9655  -17.4690  -55.9152 H         1 UNK         0.0600 
    237 H237       -1.6855  -17.6093  -53.1353 H         1 UNK         0.0600 
    238 H238       -1.2653  -18.6367  -54.5060 H         1 UNK         0.0600 
    239 H239       -0.9530  -16.9092  -54.5689 H         1 UNK         0.0600 
    240 H240       -4.7997  -16.7751  -53.0395 H         1 UNK         0.3000 
    241 H241       -4.5854  -13.8340  -53.4318 H         1 UNK         0.0600 
    242 H242       -6.4374  -16.1949  -54.8860 H         1 UNK         0.3800 
    243 H243       -7.9213  -15.2834  -54.9938 H         1 UNK         0.3800 
    244 H244       -5.6976  -13.6340  -51.2273 H         1 UNK         0.0800 
    245 H245       -5.7756  -15.3683  -51.0731 H         1 UNK         0.0800 
    246 H246       -3.7964  -16.3071  -49.2072 H         1 UNK         0.0800 
    247 H247       -3.9341  -16.8707  -50.8488 H         1 UNK         0.0800 
@<TRIPOS>BOND
     1    1    2 1    
     2    1  127 1    
     3    1  128 1    
     4    1  129 1    
     5    2    3 2    
     6    2    4 am   BACKBONE|DICT|INTERRES
     7    4    5 1    
     8    4  130 1    
     9    5    6 1    
    10    5   65 1    
    11    5  131 1    
    12    6    7 1    
    13    6  132 1    
    14    6  133 1    
    15    7    8 1    
    16    8    9 1    
    17    8  134 1    
    18    8  135 1    
    19    9   10 ar   
    20    9   14 ar   
    21   10   11 ar   
    22   10  136 1    
    23   11   12 ar   
    24   11  126 1    
    25   12   13 ar   
    26   12  137 1    
    27   13   14 ar   
    28   13   15 1    
    29   14  138 1    
    30   15   16 1    
    31   15  139 1    
    32   15  140 1    
    33   16   17 1    
    34   17   18 1    
    35   17  141 1    
    36   17  142 1    
    37   18   19 1    
    38   18   67 1    
    39   18  143 1    
    40   19   20 am   BACKBONE|DICT|INTERRES
    41   19  144 1    
    42   20   21 2    
    43   20   22 1    
    44   22   23 1    
    45   22   24 1    
    46   22  145 1    
    47   23  146 1    
    48   23  147 1    
    49   23  148 1    
    50   24   25 am   BACKBONE|DICT|INTERRES
    51   24  149 1    
    52   25   26 2    
    53   25   27 1    
    54   27   28 1    
    55   27   29 1    
    56   27  150 1    
    57   28  151 1    
    58   28  152 1    
    59   28  153 1    
    60   29   30 am   BACKBONE|DICT|INTERRES
    61   29  154 1    
    62   30   31 2    
    63   30   32 1    
    64   32   33 1    
    65   32   34 1    
    66   32  155 1    
    67   33  156 1    
    68   33  157 1    
    69   33  158 1    
    70   34   35 am   BACKBONE|DICT|INTERRES
    71   34  159 1    
    72   35   36 2    
    73   35   37 1    
    74   37   38 1    
    75   37   39 1    
    76   37  160 1    
    77   38  161 1    
    78   38  162 1    
    79   38  163 1    
    80   39   40 am   BACKBONE|DICT|INTERRES
    81   39  164 1    
    82   40   41 2    
    83   40   42 1    
    84   42   43 1    
    85   42   44 1    
    86   42  165 1    
    87   43  166 1    
    88   43  167 1    
    89   43  168 1    
    90   44   45 am   BACKBONE|DICT|INTERRES
    91   44  169 1    
    92   45   46 2    
    93   45   47 1    
    94   47   48 1    
    95   47   49 1    
    96   47  170 1    
    97   48  171 1    
    98   48  172 1    
    99   48  173 1    
   100   49   50 am   BACKBONE|DICT|INTERRES
   101   49  174 1    
   102   50   51 2    
   103   50   52 1    
   104   52   53 1    
   105   52   54 1    
   106   52  175 1    
   107   53  176 1    
   108   53  177 1    
   109   53  178 1    
   110   54   55 am   BACKBONE|DICT|INTERRES
   111   54  179 1    
   112   55   56 2    
   113   55   57 1    
   114   57   58 1    
   115   57   59 1    
   116   57  180 1    
   117   58  181 1    
   118   58  182 1    
   119   58  183 1    
   120   59   60 am   BACKBONE|DICT|INTERRES
   121   59  184 1    
   122   60   61 2    
   123   60   62 1    
   124   62   63 1    
   125   62   64 1    
   126   62  185 1    
   127   63  186 1    
   128   63  187 1    
   129   63  188 1    
   130   64   65 am   BACKBONE|DICT|INTERRES
   131   64  189 1    
   132   65   66 2    
   133   67   68 2    
   134   67   69 am   BACKBONE|DICT|INTERRES
   135   69   70 1    
   136   69  190 1    
   137   70   71 1    
   138   70   72 1    
   139   70  191 1    
   140   71  192 1    
   141   71  193 1    
   142   71  194 1    
   143   72   73 2    
   144   72   74 am   BACKBONE|DICT|INTERRES
   145   74   75 1    
   146   74  195 1    
   147   75   76 1    
   148   75   77 1    
   149   75  196 1    
   150   76  197 1    
   151   76  198 1    
   152   76  199 1    
   153   77   78 2    
   154   77   79 am   BACKBONE|DICT|INTERRES
   155   79   80 1    
   156   79  200 1    
   157   80   81 1    
   158   80   82 1    
   159   80  201 1    
   160   81  202 1    
   161   81  203 1    
   162   81  204 1    
   163   82   83 2    
   164   82   84 am   BACKBONE|DICT|INTERRES
   165   84   85 1    
   166   84  205 1    
   167   85   86 1    
   168   85   87 1    
   169   85  206 1    
   170   86  207 1    
   171   86  208 1    
   172   86  209 1    
   173   87   88 2    
   174   87   89 am   BACKBONE|DICT|INTERRES
   175   89   90 1    
   176   89  210 1    
   177   90   91 1    
   178   90   92 1    
   179   90  211 1    
   180   91  212 1    
   181   91  213 1    
   182   91  214 1    
   183   92   93 2    
   184   92   94 am   BACKBONE|DICT|INTERRES
   185   94   95 1    
   186   94  215 1    
   187   95   96 1    
   188   95   97 1    
   189   95  216 1    
   190   96  217 1    
   191   96  218 1    
   192   96  219 1    
   193   97   98 2    
   194   97   99 am   BACKBONE|DICT|INTERRES
   195   99  100 1    
   196   99  220 1    
   197  100  101 1    
   198  100  102 1    
   199  100  221 1    
   200  101  222 1    
   201  101  223 1    
   202  101  224 1    
   203  102  103 2    
   204  102  104 am   BACKBONE|DICT|INTERRES
   205  104  105 1    
   206  104  225 1    
   207  105  106 1    
   208  105  107 1    
   209  105  226 1    
   210  106  227 1    
   211  106  228 1    
   212  106  229 1    
   213  107  108 2    
   214  107  109 am   BACKBONE|DICT|INTERRES
   215  109  110 1    
   216  109  230 1    
   217  110  111 1    
   218  110  112 1    
   219  110  231 1    
   220  111  232 1    
   221  111  233 1    
   222  111  234 1    
   223  112  113 2    
   224  112  114 am   BACKBONE|DICT|INTERRES
   225  114  115 1    
   226  114  235 1    
   227  115  116 1    
   228  115  117 1    
   229  115  236 1    
   230  116  237 1    
   231  116  238 1    
   232  116  239 1    
   233  117  118 2    
   234  117  119 am   BACKBONE|DICT|INTERRES
   235  119  120 1    
   236  119  240 1    
   237  120  121 1    
   238  120  124 1    
   239  120  241 1    
   240  121  122 am   BACKBONE|DICT|INTERRES
   241  121  123 2    
   242  122  242 1    
   243  122  243 1    
   244  124  125 1    
   245  124  244 1    
   246  124  245 1    
   247  125  126 1    
   248  126  246 1    
   249  126  247 1    
@<TRIPOS>SUBSTRUCTURE
     1 UNK         1 GROUP             0       ****    0 ROOT    
