@<TRIPOS>MOLECULE
3R540
247   249    1
SMALL
USER_CHARGES


@<TRIPOS>ATOM
      1 CA         -3.8205  -15.5153  -43.7384 C.3       0 UNK        -0.1800 
      2 C          -3.2646  -14.5392  -44.7663 C.2       0 UNK         0.5000 
      3 O          -3.9867  -13.6550  -45.2282 O.2       0 UNK        -0.5000 
      4 N          -1.9887  -14.7052  -45.1309 N.am      1 UNK        -0.5000 
      5 CA         -1.2580  -13.8548  -46.0775 C.3       1 UNK         0.1400 
      6 C6          0.0576  -14.5257  -46.5434 C.3       23 UNK        -0.0398 
      7 S7         -0.2372  -16.1611  -47.2905 S.3       23 UNK        -0.2404 
      8 C8          0.7367  -16.0767  -48.8203 C.3       23 UNK        -0.0205 
      9 C9          0.7569  -17.4225  -49.5310 C.ar      23 UNK        -0.0193 
     10 C10        -0.2945  -17.7865  -50.3776 C.ar      23 UNK        -0.1150 
     11 C11        -0.2678  -19.0065  -51.0595 C.ar      23 UNK        -0.0193 
     12 C12         0.8193  -19.8674  -50.8862 C.ar      23 UNK        -0.1150 
     13 C13         1.8783  -19.5163  -50.0448 C.ar      23 UNK        -0.0193 
     14 C14         1.8371  -18.2952  -49.3630 C.ar      23 UNK        -0.1150 
     15 C15         3.0884  -20.4334  -49.9135 C.3       23 UNK        -0.0205 
     16 S16         2.6762  -22.0755  -49.2392 S.3       23 UNK        -0.2404 
     17 C17         2.1881  -21.6477  -47.5360 C.3       23 UNK        -0.0398 
     18 CA          0.9527  -22.4291  -47.0304 C.3       11 UNK         0.1400 
     19 N           0.7842  -22.2762  -45.5833 N.am      11 UNK        -0.5000 
     20 C          -0.0716  -22.9777  -44.8284 C.2       10 UNK         0.5000 
     21 O          -0.7768  -23.8866  -45.2641 O.2       10 UNK        -0.5000 
     22 CA         -0.1927  -22.5707  -43.3480 C.3       10 UNK         0.1400 
     23 CB          0.9150  -23.2271  -42.5111 C.3       10 UNK        -0.1800 
     24 N          -0.1643  -21.1195  -43.1558 N.am      10 UNK        -0.5000 
     25 C          -1.0975  -20.2744  -43.6178 C.2       9 UNK         0.5000 
     26 O          -2.1191  -20.6405  -44.1981 O.2       9 UNK        -0.5000 
     27 CA         -0.8162  -18.7666  -43.4618 C.3       9 UNK         0.1400 
     28 CB         -1.1802  -18.2772  -42.0528 C.3       9 UNK        -0.1800 
     29 N           0.5723  -18.4118  -43.7617 N.am      9 UNK        -0.5000 
     30 C           1.1654  -18.6195  -44.9464 C.2       8 UNK         0.5000 
     31 O           0.5924  -19.1066  -45.9185 O.2       8 UNK        -0.5000 
     32 CA          2.6669  -18.3029  -45.0379 C.3       8 UNK         0.1400 
     33 CB          2.9205  -16.7963  -45.1948 C.3       8 UNK        -0.1800 
     34 N           3.3878  -18.8114  -43.8722 N.am      8 UNK        -0.5000 
     35 C           3.5899  -20.1136  -43.6254 C.2       7 UNK         0.5000 
     36 O           3.2265  -21.0160  -44.3791 O.2       7 UNK        -0.5000 
     37 CA          4.2771  -20.4666  -42.2941 C.3       7 UNK         0.1400 
     38 CB          5.8040  -20.3760  -42.4320 C.3       7 UNK        -0.1800 
     39 N           3.8372  -19.6103  -41.1918 N.am      7 UNK        -0.5000 
     40 C           2.5951  -19.6041  -40.6871 C.2       6 UNK         0.5000 
     41 O           1.6952  -20.3469  -41.0760 O.2       6 UNK        -0.5000 
     42 CA          2.2974  -18.5561  -39.5997 C.3       6 UNK         0.1400 
     43 CB          2.6752  -19.0943  -38.2118 C.3       6 UNK        -0.1800 
     44 N           2.9792  -17.2795  -39.8310 N.am      6 UNK        -0.5000 
     45 C           2.7546  -16.4819  -40.8828 C.2       5 UNK         0.5000 
     46 O           1.9669  -16.7522  -41.7931 O.2       5 UNK        -0.5000 
     47 CA          3.5894  -15.1944  -40.9589 C.3       5 UNK         0.1400 
     48 CB          4.7741  -15.3769  -41.9201 C.3       5 UNK        -0.1800 
     49 N           2.7707  -14.0773  -41.4195 N.am      5 UNK        -0.5000 
     50 C           1.9112  -13.3947  -40.6522 C.2       4 UNK         0.5000 
     51 O           1.7561  -13.6206  -39.4505 O.2       4 UNK        -0.5000 
     52 CA          1.0744  -12.2889  -41.3346 C.3       4 UNK         0.1400 
     53 CB          0.8581  -11.0649  -40.4206 C.3       4 UNK        -0.1800 
     54 N           1.5664  -11.8708  -42.6543 N.am      4 UNK        -0.5000 
     55 C           2.7307  -11.2690  -42.9511 C.2       3 UNK         0.5000 
     56 O           3.5952  -10.9970  -42.1179 O.2       3 UNK        -0.5000 
     57 CA          2.9899  -10.9304  -44.4351 C.3       3 UNK         0.1400 
     58 CB          3.9150  -11.9855  -45.0633 C.3       3 UNK        -0.1800 
     59 N           1.7691  -10.8413  -45.2390 N.am      3 UNK        -0.5000 
     60 C           0.8360   -9.8853  -45.1250 C.2       2 UNK         0.5000 
     61 O           0.9539   -8.9010  -44.3945 O.2       2 UNK        -0.5000 
     62 CA         -0.4609  -10.0730  -45.9420 C.3       2 UNK         0.1400 
     63 CB         -0.4205   -9.2132  -47.2148 C.3       2 UNK        -0.1800 
     64 N          -0.7584  -11.4630  -46.3166 N.am      2 UNK        -0.5000 
     65 C          -0.9551  -12.4746  -45.4586 C.2       1 UNK         0.5000 
     66 O          -0.8438  -12.3600  -44.2353 O.2       1 UNK        -0.5000 
     67 C          -0.3418  -22.0717  -47.7950 C.2       11 UNK         0.5000 
     68 O          -0.7778  -22.8500  -48.6436 O.2       11 UNK        -0.5000 
     69 N          -0.9739  -20.9454  -47.4359 N.am      12 UNK        -0.5000 
     70 CA         -2.2667  -20.5205  -47.9744 C.3       12 UNK         0.1400 
     71 CB         -2.5977  -19.1050  -47.4887 C.3       12 UNK        -0.1800 
     72 C          -3.4111  -21.4927  -47.6378 C.2       12 UNK         0.5000 
     73 O          -4.2565  -21.7448  -48.4967 O.2       12 UNK        -0.5000 
     74 N          -3.4059  -22.0449  -46.4164 N.am      13 UNK        -0.5000 
     75 CA         -4.3467  -23.0727  -45.9697 C.3       13 UNK         0.1400 
     76 CB         -4.2140  -23.2842  -44.4545 C.3       13 UNK        -0.1800 
     77 C          -4.1745  -24.3993  -46.7318 C.2       13 UNK         0.5000 
     78 O          -5.1722  -24.9855  -47.1508 O.2       13 UNK        -0.5000 
     79 N          -2.9210  -24.8244  -46.9487 N.am      14 UNK        -0.5000 
     80 CA         -2.5638  -25.9973  -47.7538 C.3       14 UNK         0.1400 
     81 CB         -1.0629  -26.2875  -47.6036 C.3       14 UNK        -0.1800 
     82 C          -2.9468  -25.8419  -49.2391 C.2       14 UNK         0.5000 
     83 O          -3.3780  -26.8111  -49.8638 O.2       14 UNK        -0.5000 
     84 N          -2.8340  -24.6123  -49.7574 N.am      15 UNK        -0.5000 
     85 CA         -3.2920  -24.1971  -51.0847 C.3       15 UNK         0.1400 
     86 CB         -2.5367  -22.9183  -51.4778 C.3       15 UNK        -0.1800 
     87 C          -4.8183  -23.9740  -51.1749 C.2       15 UNK         0.5000 
     88 O          -5.3015  -23.6034  -52.2460 O.2       15 UNK        -0.5000 
     89 N          -5.5421  -24.1648  -50.0602 N.am      16 UNK        -0.5000 
     90 CA         -6.9893  -24.0113  -49.8861 C.3       16 UNK         0.1400 
     91 CB         -7.7408  -25.1506  -50.6022 C.3       16 UNK        -0.1800 
     92 C          -7.4961  -22.6039  -50.2608 C.2       16 UNK         0.5000 
     93 O          -8.5184  -22.4709  -50.9349 O.2       16 UNK        -0.5000 
     94 N          -6.7498  -21.5823  -49.8155 N.am      17 UNK        -0.5000 
     95 CA         -6.9433  -20.1566  -50.0896 C.3       17 UNK         0.1400 
     96 CB         -8.2733  -19.6444  -49.4968 C.3       17 UNK        -0.1800 
     97 C          -6.7633  -19.8269  -51.5854 C.2       17 UNK         0.5000 
     98 O          -7.5903  -19.1261  -52.1716 O.2       17 UNK        -0.5000 
     99 N          -5.6646  -20.3421  -52.1592 N.am      18 UNK        -0.5000 
    100 CA        -5.2214  -20.1648  -53.5467 C.3       18 UNK         0.1400 
    101 CB        -4.9215  -18.6778  -53.8367 C.3       18 UNK        -0.1800 
    102 C         -6.1952  -20.7925  -54.5661 C.2       18 UNK         0.5000 
    103 O         -6.5419  -20.1623  -55.5682 O.2       18 UNK        -0.5000 
    104 N         -6.6243  -22.0331  -54.2986 N.am      19 UNK        -0.5000 
    105 CA        -7.5269  -22.8118  -55.1476 C.3       19 UNK         0.1400 
    106 CB        -8.1772  -23.9186  -54.3018 C.3       19 UNK        -0.1800 
    107 C         -6.7763  -23.3781  -56.3685 C.2       19 UNK         0.5000 
    108 O         -6.4100  -24.5549  -56.3772 O.2       19 UNK        -0.5000 
    109 N         -6.5267  -22.5057  -57.3561 N.am      20 UNK        -0.5000 
    110 CA        -5.7137  -22.7364  -58.5578 C.3       20 UNK         0.1400 
    111 CB        -6.3713  -23.7802  -59.4852 C.3       20 UNK        -0.1800 
    112 C         -4.2479  -23.0674  -58.2024 C.2       20 UNK         0.5000 
    113 O         -3.6465  -23.9738  -58.7822 O.2       20 UNK        -0.5000 
    114 N         -3.7135  -22.3227  -57.2300 N.am      21 UNK        -0.5000 
    115 CA        -2.3761  -22.4584  -56.6703 C.3       21 UNK         0.1400 
    116 CB        -2.4343  -23.4028  -55.4575 C.3       21 UNK        -0.1800 
    117 C         -1.8751  -21.0648  -56.2671 C.2       21 UNK         0.5000 
    118 O         -2.6940  -20.1690  -56.0572 O.2       21 UNK        -0.5000 
    119 N         -0.5471  -20.9212  -56.1857 N.am      22 UNK        -0.5000 
    120 CA         0.2256  -19.7141  -55.8252 C.3       22 UNK         0.1400 
    121 C          0.0511  -18.4507  -56.7265 C.2       22 UNK         0.5000 
    122 N         -0.6702  -18.5159  -57.8381 N.am      22 UNK        -0.7600 
    123 O          0.6283  -17.4037  -56.4448 O.2       22 UNK        -0.5000 
    124 C124        0.2384  -19.4116  -54.2977 C.3       23 UNK        -0.0398 
    125 S125       -1.2427  -18.5823  -53.6171 S.3       23 UNK        -0.2404 
    126 C126       -1.4058  -19.3874  -51.9937 C.3       23 UNK        -0.0205 
    127 H127       -3.0743  -16.2469  -43.4285 H         1 UNK         0.0600 
    128 H128       -4.6716  -16.0544  -44.1545 H         1 UNK         0.0600 
    129 H129       -4.1561  -14.9764  -42.8524 H         1 UNK         0.0600 
    130 H130       -1.4464  -15.4456  -44.7123 H         1 UNK         0.3000 
    131 H131       -1.8953  -13.7006  -46.9511 H         1 UNK         0.0600 
    132 H132        0.5747  -13.8938  -47.2675 H         1 UNK         0.0800 
    133 H133        0.7427  -14.6558  -45.7038 H         1 UNK         0.0800 
    134 H134        1.7543  -15.7601  -48.5868 H         1 UNK         0.0800 
    135 H135        0.3161  -15.3146  -49.4780 H         1 UNK         0.0800 
    136 H136       -1.1305  -17.1149  -50.5135 H         1 UNK         0.1150 
    137 H137        0.8496  -20.8107  -51.4129 H         1 UNK         0.1150 
    138 H138        2.6533  -18.0139  -48.7126 H         1 UNK         0.1150 
    139 H139        3.5348  -20.5639  -50.9002 H         1 UNK         0.0800 
    140 H140        3.8581  -19.9767  -49.2893 H         1 UNK         0.0800 
    141 H141        2.0226  -20.5744  -47.4549 H         1 UNK         0.0800 
    142 H142        3.0466  -21.8657  -46.8999 H         1 UNK         0.0800 
    143 H143        1.1429  -23.4900  -47.2069 H         1 UNK         0.0600 
    144 H144        1.3576  -21.5697  -45.1367 H         1 UNK         0.3000 
    145 H145       -1.1538  -22.9360  -42.9811 H         1 UNK         0.0600 
    146 H146        0.7861  -23.0124  -41.4502 H         1 UNK         0.0600 
    147 H147        0.9020  -24.3114  -42.6276 H         1 UNK         0.0600 
    148 H148        1.9044  -22.8763  -42.8052 H         1 UNK         0.0600 
    149 H149        0.6181  -20.7456  -42.6261 H         1 UNK         0.3000 
    150 H150       -1.4490  -18.2388  -44.1782 H         1 UNK         0.0600 
    151 H151       -2.2288  -18.4776  -41.8297 H         1 UNK         0.0600 
    152 H152       -1.0248  -17.2025  -41.9553 H         1 UNK         0.0600 
    153 H153       -0.5814  -18.7715  -41.2880 H         1 UNK         0.0600 
    154 H154        1.1075  -17.9776  -43.0148 H         1 UNK         0.3000 
    155 H155        3.0624  -18.8016  -45.9254 H         1 UNK         0.0600 
    156 H156        2.4730  -16.2188  -44.3857 H         1 UNK         0.0600 
    157 H157        2.4994  -16.4324  -46.1313 H         1 UNK         0.0600 
    158 H158        3.9875  -16.5756  -45.2186 H         1 UNK         0.0600 
    159 H159        3.6667  -18.1359  -43.1772 H         1 UNK         0.3000 
    160 H160        4.0163  -21.4982  -42.0481 H         1 UNK         0.0600 
    161 H161        6.3021  -20.6975  -41.5171 H         1 UNK         0.0600 
    162 H162        6.1307  -19.3590  -42.6531 H         1 UNK         0.0600 
    163 H163        6.1613  -21.0183  -43.2381 H         1 UNK         0.0600 
    164 H164        4.5160  -18.9686  -40.8101 H         1 UNK         0.3000 
    165 H165        1.2221  -18.3668  -39.6097 H         1 UNK         0.0600 
    166 H166        2.3893  -18.3946  -37.4262 H         1 UNK         0.0600 
    167 H167        2.1651  -20.0366  -38.0069 H         1 UNK         0.0600 
    168 H168        3.7473  -19.2760  -38.1267 H         1 UNK         0.0600 
    169 H169        3.6454  -16.9916  -39.1286 H         1 UNK         0.3000 
    170 H170        3.9829  -14.9610  -39.9671 H         1 UNK         0.0600 
    171 H171        5.4133  -16.2021  -41.6036 H         1 UNK         0.0600 
    172 H172        4.4431  -15.5878  -42.9368 H         1 UNK         0.0600 
    173 H173        5.3943  -14.4808  -41.9519 H         1 UNK         0.0600 
    174 H174        2.8089  -13.8591  -42.4029 H         1 UNK         0.3000 
    175 H175        0.0952  -12.7343  -41.5161 H         1 UNK         0.0600 
    176 H176        1.8023  -10.6035  -40.1303 H         1 UNK         0.0600 
    177 H177        0.2518  -10.3064  -40.9160 H         1 UNK         0.0600 
    178 H178        0.3375  -11.3457  -39.5044 H         1 UNK         0.0600 
    179 H179        0.9041  -12.0282  -43.4081 H         1 UNK         0.3000 
    180 H180        3.4948   -9.9628  -44.4698 H         1 UNK         0.0600 
    181 H181        3.4531  -12.9737  -45.0733 H         1 UNK         0.0600 
    182 H182        4.8504  -12.0668  -44.5077 H         1 UNK         0.0600 
    183 H183        4.1717  -11.7241  -46.0901 H         1 UNK         0.0600 
    184 H184        1.5973  -11.5957  -45.8856 H         1 UNK         0.3000 
    185 H185       -1.2847   -9.7199  -45.3182 H         1 UNK         0.0600 
    186 H186       -0.2316   -8.1660  -46.9744 H         1 UNK         0.0600 
    187 H187        0.3659   -9.5404  -47.8960 H         1 UNK         0.0600 
    188 H188       -1.3692   -9.2545  -47.7503 H         1 UNK         0.0600 
    189 H189       -0.8563  -11.6380  -47.3067 H         1 UNK         0.3000 
    190 H190       -0.5276  -20.3255  -46.7628 H         1 UNK         0.3000 
    191 H191       -2.1747  -20.4865  -49.0613 H         1 UNK         0.0600 
    192 H192       -2.5987  -19.0371  -46.4008 H         1 UNK         0.0600 
    193 H193       -3.5777  -18.7841  -47.8438 H         1 UNK         0.0600 
    194 H194       -1.8685  -18.3939  -47.8701 H         1 UNK         0.0600 
    195 H195       -2.7186  -21.7270  -45.7396 H         1 UNK         0.3000 
    196 H196       -5.3559  -22.7061  -46.1690 H         1 UNK         0.0600 
    197 H197       -4.9402  -24.0159  -44.0985 H         1 UNK         0.0600 
    198 H198       -4.3927  -22.3568  -43.9102 H         1 UNK         0.0600 
    199 H199       -3.2236  -23.6465  -44.1811 H         1 UNK         0.0600 
    200 H200       -2.1509  -24.3144  -46.5234 H         1 UNK         0.3000 
    201 H201       -3.1157  -26.8524  -47.3584 H         1 UNK         0.0600 
    202 H202       -0.7995  -26.4694  -46.5615 H         1 UNK         0.0600 
    203 H203       -0.4536  -25.4575  -47.9617 H         1 UNK         0.0600 
    204 H204       -0.7775  -27.1738  -48.1714 H         1 UNK         0.0600 
    205 H205       -2.3904  -23.8941  -49.1923 H         1 UNK         0.3000 
    206 H206       -3.0373  -24.9783  -51.8034 H         1 UNK         0.0600 
    207 H207       -2.7524  -22.1022  -50.7890 H         1 UNK         0.0600 
    208 H208       -1.4585  -23.0802  -51.4757 H         1 UNK         0.0600 
    209 H209       -2.8117  -22.5837  -52.4772 H         1 UNK         0.0600 
    210 H210       -5.0450  -24.4346  -49.2205 H         1 UNK         0.3000 
    211 H211       -7.1818  -24.1187  -48.8180 H         1 UNK         0.0600 
    212 H212       -7.5841  -25.1234  -51.6787 H         1 UNK         0.0600 
    213 H213       -8.8148  -25.0888  -50.4232 H         1 UNK         0.0600 
    214 H214       -7.4084  -26.1243  -50.2424 H         1 UNK         0.0600 
    215 H215       -5.9030  -21.8031  -49.2928 H         1 UNK         0.3000 
    216 H216       -6.1373  -19.6388  -49.5674 H         1 UNK         0.0600 
    217 H217       -8.3443  -18.5597  -49.5840 H         1 UNK         0.0600 
    218 H218       -8.3529  -19.8902  -48.4379 H         1 UNK         0.0600 
    219 H219       -9.1392  -20.0678  -50.0061 H         1 UNK         0.0600 
    220 H220       -5.0932  -20.9541  -51.5952 H         1 UNK         0.3000 
    221 H221       -4.2824  -20.7120  -53.6425 H         1 UNK         0.0600 
    222 H222       -5.8278  -18.0725  -53.8550 H         1 UNK         0.0600 
    223 H223       -4.2534  -18.2549  -53.0873 H         1 UNK         0.0600 
    224 H224       -4.4361  -18.5601  -54.8057 H         1 UNK         0.0600 
    225 H225       -6.2519  -22.5167  -53.4843 H         1 UNK         0.3000 
    226 H226       -8.3252  -22.1606  -55.5101 H         1 UNK         0.0600 
    227 H227       -8.8810  -24.5019  -54.8964 H         1 UNK         0.0600 
    228 H228       -7.4309  -24.6077  -53.9064 H         1 UNK         0.0600 
    229 H229       -8.7296  -23.5004  -53.4606 H         1 UNK         0.0600 
    230 H230       -6.8114  -21.5454  -57.1974 H         1 UNK         0.3000 
    231 H231       -5.6889  -21.7889  -59.0979 H         1 UNK         0.0600 
    232 H232       -7.4016  -23.5093  -59.7153 H         1 UNK         0.0600 
    233 H233       -6.3772  -24.7757  -59.0407 H         1 UNK         0.0600 
    234 H234       -5.8356  -23.8506  -60.4326 H         1 UNK         0.0600 
    235 H235       -4.2417  -21.5465  -56.8520 H         1 UNK         0.3000 
    236 H236       -1.6961  -22.8646  -57.4221 H         1 UNK         0.0600 
    237 H237       -2.7102  -24.4128  -55.7611 H         1 UNK         0.0600 
    238 H238       -1.4694  -23.4657  -54.9531 H         1 UNK         0.0600 
    239 H239       -3.1712  -23.0662  -54.7278 H         1 UNK         0.0600 
    240 H240        0.0225  -21.7252  -56.4080 H         1 UNK         0.3000 
    241 H241        1.2476  -20.0175  -56.0556 H         1 UNK         0.0600 
    242 H242       -0.7599  -17.6983  -58.4207 H         1 UNK         0.3800 
    243 H243       -1.1712  -19.3574  -58.0720 H         1 UNK         0.3800 
    244 H244        0.4059  -20.3439  -53.7589 H         1 UNK         0.0800 
    245 H245        1.0967  -18.7823  -54.0569 H         1 UNK         0.0800 
    246 H246       -2.3586  -19.1012  -51.5462 H         1 UNK         0.0800 
    247 H247       -1.4433  -20.4668  -52.1336 H         1 UNK         0.0800 
@<TRIPOS>BOND
     1    1    2 1    
     2    1  127 1    
     3    1  128 1    
     4    1  129 1    
     5    2    3 2    
     6    2    4 am   BACKBONE|DICT|INTERRES
     7    4    5 1    
     8    4  130 1    
     9    5    6 1    
    10    5   65 1    
    11    5  131 1    
    12    6    7 1    
    13    6  132 1    
    14    6  133 1    
    15    7    8 1    
    16    8    9 1    
    17    8  134 1    
    18    8  135 1    
    19    9   10 ar   
    20    9   14 ar   
    21   10   11 ar   
    22   10  136 1    
    23   11   12 ar   
    24   11  126 1    
    25   12   13 ar   
    26   12  137 1    
    27   13   14 ar   
    28   13   15 1    
    29   14  138 1    
    30   15   16 1    
    31   15  139 1    
    32   15  140 1    
    33   16   17 1    
    34   17   18 1    
    35   17  141 1    
    36   17  142 1    
    37   18   19 1    
    38   18   67 1    
    39   18  143 1    
    40   19   20 am   BACKBONE|DICT|INTERRES
    41   19  144 1    
    42   20   21 2    
    43   20   22 1    
    44   22   23 1    
    45   22   24 1    
    46   22  145 1    
    47   23  146 1    
    48   23  147 1    
    49   23  148 1    
    50   24   25 am   BACKBONE|DICT|INTERRES
    51   24  149 1    
    52   25   26 2    
    53   25   27 1    
    54   27   28 1    
    55   27   29 1    
    56   27  150 1    
    57   28  151 1    
    58   28  152 1    
    59   28  153 1    
    60   29   30 am   BACKBONE|DICT|INTERRES
    61   29  154 1    
    62   30   31 2    
    63   30   32 1    
    64   32   33 1    
    65   32   34 1    
    66   32  155 1    
    67   33  156 1    
    68   33  157 1    
    69   33  158 1    
    70   34   35 am   BACKBONE|DICT|INTERRES
    71   34  159 1    
    72   35   36 2    
    73   35   37 1    
    74   37   38 1    
    75   37   39 1    
    76   37  160 1    
    77   38  161 1    
    78   38  162 1    
    79   38  163 1    
    80   39   40 am   BACKBONE|DICT|INTERRES
    81   39  164 1    
    82   40   41 2    
    83   40   42 1    
    84   42   43 1    
    85   42   44 1    
    86   42  165 1    
    87   43  166 1    
    88   43  167 1    
    89   43  168 1    
    90   44   45 am   BACKBONE|DICT|INTERRES
    91   44  169 1    
    92   45   46 2    
    93   45   47 1    
    94   47   48 1    
    95   47   49 1    
    96   47  170 1    
    97   48  171 1    
    98   48  172 1    
    99   48  173 1    
   100   49   50 am   BACKBONE|DICT|INTERRES
   101   49  174 1    
   102   50   51 2    
   103   50   52 1    
   104   52   53 1    
   105   52   54 1    
   106   52  175 1    
   107   53  176 1    
   108   53  177 1    
   109   53  178 1    
   110   54   55 am   BACKBONE|DICT|INTERRES
   111   54  179 1    
   112   55   56 2    
   113   55   57 1    
   114   57   58 1    
   115   57   59 1    
   116   57  180 1    
   117   58  181 1    
   118   58  182 1    
   119   58  183 1    
   120   59   60 am   BACKBONE|DICT|INTERRES
   121   59  184 1    
   122   60   61 2    
   123   60   62 1    
   124   62   63 1    
   125   62   64 1    
   126   62  185 1    
   127   63  186 1    
   128   63  187 1    
   129   63  188 1    
   130   64   65 am   BACKBONE|DICT|INTERRES
   131   64  189 1    
   132   65   66 2    
   133   67   68 2    
   134   67   69 am   BACKBONE|DICT|INTERRES
   135   69   70 1    
   136   69  190 1    
   137   70   71 1    
   138   70   72 1    
   139   70  191 1    
   140   71  192 1    
   141   71  193 1    
   142   71  194 1    
   143   72   73 2    
   144   72   74 am   BACKBONE|DICT|INTERRES
   145   74   75 1    
   146   74  195 1    
   147   75   76 1    
   148   75   77 1    
   149   75  196 1    
   150   76  197 1    
   151   76  198 1    
   152   76  199 1    
   153   77   78 2    
   154   77   79 am   BACKBONE|DICT|INTERRES
   155   79   80 1    
   156   79  200 1    
   157   80   81 1    
   158   80   82 1    
   159   80  201 1    
   160   81  202 1    
   161   81  203 1    
   162   81  204 1    
   163   82   83 2    
   164   82   84 am   BACKBONE|DICT|INTERRES
   165   84   85 1    
   166   84  205 1    
   167   85   86 1    
   168   85   87 1    
   169   85  206 1    
   170   86  207 1    
   171   86  208 1    
   172   86  209 1    
   173   87   88 2    
   174   87   89 am   BACKBONE|DICT|INTERRES
   175   89   90 1    
   176   89  210 1    
   177   90   91 1    
   178   90   92 1    
   179   90  211 1    
   180   91  212 1    
   181   91  213 1    
   182   91  214 1    
   183   92   93 2    
   184   92   94 am   BACKBONE|DICT|INTERRES
   185   94   95 1    
   186   94  215 1    
   187   95   96 1    
   188   95   97 1    
   189   95  216 1    
   190   96  217 1    
   191   96  218 1    
   192   96  219 1    
   193   97   98 2    
   194   97   99 am   BACKBONE|DICT|INTERRES
   195   99  100 1    
   196   99  220 1    
   197  100  101 1    
   198  100  102 1    
   199  100  221 1    
   200  101  222 1    
   201  101  223 1    
   202  101  224 1    
   203  102  103 2    
   204  102  104 am   BACKBONE|DICT|INTERRES
   205  104  105 1    
   206  104  225 1    
   207  105  106 1    
   208  105  107 1    
   209  105  226 1    
   210  106  227 1    
   211  106  228 1    
   212  106  229 1    
   213  107  108 2    
   214  107  109 am   BACKBONE|DICT|INTERRES
   215  109  110 1    
   216  109  230 1    
   217  110  111 1    
   218  110  112 1    
   219  110  231 1    
   220  111  232 1    
   221  111  233 1    
   222  111  234 1    
   223  112  113 2    
   224  112  114 am   BACKBONE|DICT|INTERRES
   225  114  115 1    
   226  114  235 1    
   227  115  116 1    
   228  115  117 1    
   229  115  236 1    
   230  116  237 1    
   231  116  238 1    
   232  116  239 1    
   233  117  118 2    
   234  117  119 am   BACKBONE|DICT|INTERRES
   235  119  120 1    
   236  119  240 1    
   237  120  121 1    
   238  120  124 1    
   239  120  241 1    
   240  121  122 am   BACKBONE|DICT|INTERRES
   241  121  123 2    
   242  122  242 1    
   243  122  243 1    
   244  124  125 1    
   245  124  244 1    
   246  124  245 1    
   247  125  126 1    
   248  126  246 1    
   249  126  247 1    
@<TRIPOS>SUBSTRUCTURE
     1 UNK         1 GROUP             0       ****    0 ROOT    
