@<TRIPOS>MOLECULE
3R540
247   249    1
SMALL
USER_CHARGES


@<TRIPOS>ATOM
      1 CA          6.8236  -11.3584  -48.3233 C.3       0 UNK        -0.1800 
      2 C           5.4210  -11.6523  -47.8106 C.2       0 UNK         0.5000 
      3 O           5.0452  -11.1671  -46.7448 O.2       0 UNK        -0.5000 
      4 N           4.6489  -12.4430  -48.5665 N.am      1 UNK        -0.5000 
      5 CA          3.2720  -12.8444  -48.2397 C.3       1 UNK         0.1400 
      6 C6          2.8572  -14.1327  -48.9922 C.3       23 UNK        -0.0398 
      7 S7          3.9355  -15.5397  -48.5523 S.3       23 UNK        -0.2404 
      8 C8          2.8533  -16.5143  -47.4632 C.3       23 UNK        -0.0205 
      9 C9          2.2067  -17.6677  -48.2111 C.ar      23 UNK        -0.0193 
     10 C10         0.9997  -17.4887  -48.8915 C.ar      23 UNK        -0.1150 
     11 C11         0.3957  -18.5609  -49.5553 C.ar      23 UNK        -0.0193 
     12 C12         1.0057  -19.8193  -49.5294 C.ar      23 UNK        -0.1150 
     13 C13         2.2241  -20.0065  -48.8688 C.ar      23 UNK        -0.0193 
     14 C14         2.8190  -18.9235  -48.2146 C.ar      23 UNK        -0.1150 
     15 C15         2.9082  -21.3694  -48.9011 C.3       23 UNK        -0.0205 
     16 S16         3.4835  -21.9545  -47.2687 S.3       23 UNK        -0.2404 
     17 C17         1.9364  -22.0226  -46.3051 C.3       23 UNK        -0.0398 
     18 CA          1.2901  -23.4294  -46.2882 C.3       11 UNK         0.1400 
     19 N           0.4267  -23.6012  -45.1182 N.am      11 UNK        -0.5000 
     20 C          -0.2275  -24.7132  -44.7616 C.2       10 UNK         0.5000 
     21 O          -0.1699  -25.7665  -45.3951 O.2       10 UNK        -0.5000 
     22 CA         -1.1362  -24.6345  -43.5152 C.3       10 UNK         0.1400 
     23 CB         -0.3529  -24.9644  -42.2306 C.3       10 UNK        -0.1800 
     24 N          -1.8865  -23.3738  -43.3958 N.am      10 UNK        -0.5000 
     25 C          -1.4153  -22.1426  -43.1564 C.2       9 UNK         0.5000 
     26 O          -0.2346  -21.8909  -42.9060 O.2       9 UNK        -0.5000 
     27 CA         -2.4245  -20.9881  -43.2881 C.3       9 UNK         0.1400 
     28 CB         -2.8143  -20.4420  -41.9073 C.3       9 UNK        -0.1800 
     29 N          -1.8812  -19.9014  -44.1032 N.am      9 UNK        -0.5000 
     30 C          -1.4927  -20.0179  -45.3827 C.2       8 UNK         0.5000 
     31 O          -1.6124  -21.0525  -46.0411 O.2       8 UNK        -0.5000 
     32 CA         -0.8648  -18.7795  -46.0464 C.3       8 UNK         0.1400 
     33 CB         -1.9061  -18.0744  -46.9253 C.3       8 UNK        -0.1800 
     34 N          -0.3137  -17.8260  -45.0811 N.am      8 UNK        -0.5000 
     35 C           0.8227  -18.0247  -44.3939 C.2       7 UNK         0.5000 
     36 O           1.5479  -19.0052  -44.5605 O.2       7 UNK        -0.5000 
     37 CA          1.2250  -16.9739  -43.3365 C.3       7 UNK         0.1400 
     38 CB          2.4804  -16.2025  -43.7722 C.3       7 UNK        -0.1800 
     39 N           0.1640  -16.0160  -43.0205 N.am      7 UNK        -0.5000 
     40 C          -0.9255  -16.2997  -42.2903 C.2       6 UNK         0.5000 
     41 O          -1.1322  -17.4015  -41.7823 O.2       6 UNK        -0.5000 
     42 CA         -1.9839  -15.1866  -42.1356 C.3       6 UNK         0.1400 
     43 CB         -1.7702  -14.4221  -40.8207 C.3       6 UNK        -0.1800 
     44 N          -1.9997  -14.2305  -43.2459 N.am      6 UNK        -0.5000 
     45 C          -2.2326  -14.5455  -44.5278 C.2       5 UNK         0.5000 
     46 O          -2.5383  -15.6777  -44.8965 O.2       5 UNK        -0.5000 
     47 CA         -2.0440  -13.4366  -45.5818 C.3       5 UNK         0.1400 
     48 CB         -3.4053  -12.8841  -46.0294 C.3       5 UNK        -0.1800 
     49 N          -1.1925  -12.3196  -45.1585 N.am      5 UNK        -0.5000 
     50 C           0.0923  -12.4045  -44.7821 C.2       4 UNK         0.5000 
     51 O           0.6999  -13.4703  -44.6685 O.2       4 UNK        -0.5000 
     52 CA          0.7937  -11.0672  -44.4919 C.3       4 UNK         0.1400 
     53 CB          2.3224  -11.1976  -44.3754 C.3       4 UNK        -0.1800 
     54 N           0.4595  -10.1105  -45.5451 N.am      4 UNK        -0.5000 
     55 C           0.1542   -8.8191  -45.3635 C.2       3 UNK         0.5000 
     56 O           0.1299   -8.2796  -44.2559 O.2       3 UNK        -0.5000 
     57 CA         -0.2179   -8.0014  -46.6233 C.3       3 UNK         0.1400 
     58 CB          0.1418   -6.5056  -46.4955 C.3       3 UNK        -0.1800 
     59 N           0.3036   -8.5701  -47.8738 N.am      3 UNK        -0.5000 
     60 C           1.5899   -8.7032  -48.2269 C.2       2 UNK         0.5000 
     61 O           2.5427   -8.2858  -47.5659 O.2       2 UNK        -0.5000 
     62 CA          1.8542   -9.4828  -49.5285 C.3       2 UNK         0.1400 
     63 CB          2.5940   -8.6134  -50.5574 C.3       2 UNK        -0.1800 
     64 N           2.6370  -10.6898  -49.2657 N.am      2 UNK        -0.5000 
     65 C           2.2503  -11.7119  -48.4872 C.2       1 UNK         0.5000 
     66 O           1.1352  -11.7802  -47.9665 O.2       1 UNK        -0.5000 
     67 C           0.5425  -23.7199  -47.6046 C.2       11 UNK         0.5000 
     68 O           1.0141  -24.5193  -48.4143 O.2       11 UNK        -0.5000 
     69 N          -0.6293  -23.0923  -47.7785 N.am      12 UNK        -0.5000 
     70 CA         -1.4949  -23.2986  -48.9371 C.3       12 UNK         0.1400 
     71 CB         -2.5831  -22.2202  -48.9630 C.3       12 UNK        -0.1800 
     72 C          -2.1208  -24.7014  -48.9501 C.2       12 UNK         0.5000 
     73 O          -2.2286  -25.2989  -50.0186 O.2       12 UNK        -0.5000 
     74 N          -2.4780  -25.2229  -47.7671 N.am      13 UNK        -0.5000 
     75 CA         -3.0580  -26.5570  -47.5960 C.3       13 UNK         0.1400 
     76 CB         -3.5340  -26.7392  -46.1477 C.3       13 UNK        -0.1800 
     77 C          -2.0861  -27.6789  -48.0037 C.2       13 UNK         0.5000 
     78 O          -2.5057  -28.6370  -48.6524 O.2       13 UNK        -0.5000 
     79 N          -0.7954  -27.5075  -47.6837 N.am      14 UNK        -0.5000 
     80 CA          0.2978  -28.3817  -48.1177 C.3       14 UNK         0.1400 
     81 CB          1.5826  -27.9894  -47.3730 C.3       14 UNK        -0.1800 
     82 C           0.5246  -28.3634  -49.6444 C.2       14 UNK         0.5000 
     83 O           0.9725  -29.3657  -50.2020 O.2       14 UNK        -0.5000 
     84 N           0.1806  -27.2433  -50.2939 N.am      15 UNK        -0.5000 
     85 CA          0.1885  -27.0668  -51.7478 C.3       15 UNK         0.1400 
     86 CB          0.5259  -25.5988  -52.0619 C.3       15 UNK        -0.1800 
     87 C          -1.1429  -27.4870  -52.4122 C.2       15 UNK         0.5000 
     88 O          -1.2631  -27.3674  -53.6322 O.2       15 UNK        -0.5000 
     89 N          -2.1111  -27.9641  -51.6134 N.am      16 UNK        -0.5000 
     90 CA         -3.4666  -28.3827  -51.9877 C.3       16 UNK         0.1400 
     91 CB         -3.4294  -29.6070  -52.9268 C.3       16 UNK        -0.1800 
     92 C          -4.3473  -27.2308  -52.5212 C.2       16 UNK         0.5000 
     93 O          -5.2091  -27.4586  -53.3729 O.2       16 UNK        -0.5000 
     94 N          -4.1305  -26.0194  -51.9982 N.am      17 UNK        -0.5000 
     95 CA         -4.8978  -24.8110  -52.2855 C.3       17 UNK         0.1400 
     96 CB         -3.9239  -23.7310  -52.7883 C.3       17 UNK        -0.1800 
     97 C          -5.6162  -24.3260  -51.0147 C.2       17 UNK         0.5000 
     98 O          -5.2925  -24.7606  -49.9072 O.2       17 UNK        -0.5000 
     99 N          -6.5633  -23.3984  -51.1910 N.am      18 UNK        -0.5000 
    100 CA        -7.1390  -22.6158  -50.0986 C.3       18 UNK         0.1400 
    101 CB        -8.5398  -22.1319  -50.5032 C.3       18 UNK        -0.1800 
    102 C         -6.2232  -21.4180  -49.8007 C.2       18 UNK         0.5000 
    103 O         -5.6627  -20.8400  -50.7358 O.2       18 UNK        -0.5000 
    104 N         -6.1162  -21.0351  -48.5223 N.am      19 UNK        -0.5000 
    105 CA        -5.2751  -19.9282  -48.0490 C.3       19 UNK         0.1400 
    106 CB        -5.2874  -19.9087  -46.5126 C.3       19 UNK        -0.1800 
    107 C         -5.6651  -18.5533  -48.6244 C.2       19 UNK         0.5000 
    108 O         -4.7905  -17.7170  -48.8475 O.2       19 UNK        -0.5000 
    109 N         -6.9646  -18.3617  -48.8856 N.am      20 UNK        -0.5000 
    110 CA        -7.5113  -17.1632  -49.5218 C.3       20 UNK         0.1400 
    111 CB        -9.0158  -17.0866  -49.2180 C.3       20 UNK        -0.1800 
    112 C         -7.2702  -17.1192  -51.0444 C.2       20 UNK         0.5000 
    113 O         -7.2893  -16.0311  -51.6211 O.2       20 UNK        -0.5000 
    114 N         -7.0721  -18.2879  -51.6703 N.am      21 UNK        -0.5000 
    115 CA        -6.8613  -18.4278  -53.1101 C.3       21 UNK         0.1400 
    116 CB        -7.5004  -19.7385  -53.5972 C.3       21 UNK        -0.1800 
    117 C         -5.3675  -18.3903  -53.4637 C.2       21 UNK         0.5000 
    118 O         -4.9825  -17.6687  -54.3841 O.2       21 UNK        -0.5000 
    119 N         -4.5594  -19.1701  -52.7307 N.am      22 UNK        -0.5000 
    120 CA        -3.1100  -19.3412  -52.9337 C.3       22 UNK         0.1400 
    121 C         -2.7206  -20.0777  -54.2579 C.2       22 UNK         0.5000 
    122 N         -3.6406  -20.7613  -54.9285 N.am      22 UNK        -0.7600 
    123 O         -1.5684  -20.0573  -54.6805 O.2       22 UNK        -0.5000 
    124 C124       -2.3345  -18.0116  -52.6998 C.3       23 UNK        -0.0398 
    125 S125       -0.6309  -18.2507  -52.0922 S.3       23 UNK        -0.2404 
    126 C126       -0.9139  -18.3619  -50.3017 C.3       23 UNK        -0.0205 
    127 H127        6.9531  -10.2857  -48.4671 H         1 UNK         0.0600 
    128 H128        7.0212  -11.8554  -49.2734 H         1 UNK         0.0600 
    129 H129        7.5657  -11.6988  -47.6012 H         1 UNK         0.0600 
    130 H130        5.0256  -12.8332  -49.4189 H         1 UNK         0.3000 
    131 H131        3.2302  -13.0641  -47.1706 H         1 UNK         0.0600 
    132 H132        1.8183  -14.3906  -48.7799 H         1 UNK         0.0800 
    133 H133        2.9137  -13.9818  -50.0716 H         1 UNK         0.0800 
    134 H134        2.0894  -15.8817  -47.0093 H         1 UNK         0.0800 
    135 H135        3.4510  -16.9025  -46.6372 H         1 UNK         0.0800 
    136 H136        0.5291  -16.5160  -48.9016 H         1 UNK         0.1150 
    137 H137        0.5391  -20.6464  -50.0460 H         1 UNK         0.1150 
    138 H138        3.7616  -19.0594  -47.7032 H         1 UNK         0.1150 
    139 H139        2.2510  -22.1217  -49.3382 H         1 UNK         0.0800 
    140 H140        3.7707  -21.3022  -49.5653 H         1 UNK         0.0800 
    141 H141        1.2363  -21.2574  -46.6424 H         1 UNK         0.0800 
    142 H142        2.2046  -21.7317  -45.2882 H         1 UNK         0.0800 
    143 H143        2.0834  -24.1737  -46.1909 H         1 UNK         0.0600 
    144 H144        0.3186  -22.7950  -44.5101 H         1 UNK         0.3000 
    145 H145       -1.8932  -25.4105  -43.6339 H         1 UNK         0.0600 
    146 H146       -1.0026  -24.9424  -41.3557 H         1 UNK         0.0600 
    147 H147        0.0800  -25.9638  -42.2891 H         1 UNK         0.0600 
    148 H148        0.4678  -24.2681  -42.0578 H         1 UNK         0.0600 
    149 H149       -2.8709  -23.4568  -43.6084 H         1 UNK         0.3000 
    150 H150       -3.3261  -21.3534  -43.7841 H         1 UNK         0.0600 
    151 H151       -3.2646  -21.2217  -41.2918 H         1 UNK         0.0600 
    152 H152       -3.5402  -19.6330  -41.9919 H         1 UNK         0.0600 
    153 H153       -1.9469  -20.0582  -41.3685 H         1 UNK         0.0600 
    154 H154       -1.7005  -19.0298  -43.6251 H         1 UNK         0.3000 
    155 H155       -0.0536  -19.1268  -46.6881 H         1 UNK         0.0600 
    156 H156       -2.7835  -17.7773  -46.3529 H         1 UNK         0.0600 
    157 H157       -1.4969  -17.1791  -47.3920 H         1 UNK         0.0600 
    158 H158       -2.2505  -18.7338  -47.7216 H         1 UNK         0.0600 
    159 H159       -0.8741  -17.0033  -44.8911 H         1 UNK         0.3000 
    160 H160        1.4715  -17.5218  -42.4246 H         1 UNK         0.0600 
    161 H161        2.2960  -15.6044  -44.6636 H         1 UNK         0.0600 
    162 H162        3.3032  -16.8828  -43.9954 H         1 UNK         0.0600 
    163 H163        2.8209  -15.5290  -42.9856 H         1 UNK         0.0600 
    164 H164        0.2530  -15.0955  -43.4388 H         1 UNK         0.3000 
    165 H165       -2.9627  -15.6692  -42.0984 H         1 UNK         0.0600 
    166 H166       -2.5602  -13.6889  -40.6570 H         1 UNK         0.0600 
    167 H167       -1.7781  -15.1021  -39.9678 H         1 UNK         0.0600 
    168 H168       -0.8148  -13.8959  -40.8125 H         1 UNK         0.0600 
    169 H169       -1.7516  -13.2770  -43.0284 H         1 UNK         0.3000 
    170 H170       -1.5633  -13.8998  -46.4461 H         1 UNK         0.0600 
    171 H171       -4.0561  -13.6855  -46.3823 H         1 UNK         0.0600 
    172 H172       -3.9212  -12.3772  -45.2131 H         1 UNK         0.0600 
    173 H173       -3.2934  -12.1749  -46.8499 H         1 UNK         0.0600 
    174 H174       -1.6058  -11.4003  -45.2153 H         1 UNK         0.3000 
    175 H175        0.4057  -10.7202  -43.5323 H         1 UNK         0.0600 
    176 H176        2.7602  -11.5785  -45.2973 H         1 UNK         0.0600 
    177 H177        2.7856  -10.2346  -44.1602 H         1 UNK         0.0600 
    178 H178        2.5999  -11.8799  -43.5711 H         1 UNK         0.0600 
    179 H179        0.4669  -10.4903  -46.4869 H         1 UNK         0.3000 
    180 H180       -1.3041   -8.0646  -46.7011 H         1 UNK         0.0600 
    181 H181        1.2071   -6.3564  -46.3185 H         1 UNK         0.0600 
    182 H182       -0.3925   -6.0448  -45.6639 H         1 UNK         0.0600 
    183 H183       -0.1297   -5.9558  -47.3967 H         1 UNK         0.0600 
    184 H184       -0.3968   -8.9668  -48.4854 H         1 UNK         0.3000 
    185 H185        0.9011   -9.7891  -49.9648 H         1 UNK         0.0600 
    186 H186        2.0284   -7.7077  -50.7800 H         1 UNK         0.0600 
    187 H187        3.5760   -8.3063  -50.1951 H         1 UNK         0.0600 
    188 H188        2.7349   -9.1474  -51.4973 H         1 UNK         0.0600 
    189 H189        3.5816  -10.6994  -49.6206 H         1 UNK         0.3000 
    190 H190       -0.9593  -22.4351  -47.0737 H         1 UNK         0.3000 
    191 H191       -0.8891  -23.1914  -49.8394 H         1 UNK         0.0600 
    192 H192       -3.2390  -22.2960  -48.0949 H         1 UNK         0.0600 
    193 H193       -3.2043  -22.3100  -49.8547 H         1 UNK         0.0600 
    194 H194       -2.1450  -21.2229  -48.9669 H         1 UNK         0.0600 
    195 H195       -2.3239  -24.6767  -46.9340 H         1 UNK         0.3000 
    196 H196       -3.9310  -26.6215  -48.2492 H         1 UNK         0.0600 
    197 H197       -4.0565  -27.6894  -46.0302 H         1 UNK         0.0600 
    198 H198       -4.2264  -25.9498  -45.8548 H         1 UNK         0.0600 
    199 H199       -2.7015  -26.7390  -45.4454 H         1 UNK         0.0600 
    200 H200       -0.5387  -26.7179  -47.0983 H         1 UNK         0.3000 
    201 H201        0.0394  -29.4045  -47.8363 H         1 UNK         0.0600 
    202 H202        1.4516  -28.0672  -46.2935 H         1 UNK         0.0600 
    203 H203        1.8823  -26.9659  -47.5997 H         1 UNK         0.0600 
    204 H204        2.4104  -28.6437  -47.6490 H         1 UNK         0.0600 
    205 H205       -0.1837  -26.4677  -49.7560 H         1 UNK         0.3000 
    206 H206        0.9742  -27.6893  -52.1803 H         1 UNK         0.0600 
    207 H207        1.4606  -25.2981  -51.5881 H         1 UNK         0.0600 
    208 H208        0.6425  -25.4452  -53.1353 H         1 UNK         0.0600 
    209 H209       -0.2551  -24.9202  -51.7196 H         1 UNK         0.0600 
    210 H210       -1.9170  -28.0082  -50.6206 H         1 UNK         0.3000 
    211 H211       -3.9407  -28.7051  -51.0599 H         1 UNK         0.0600 
    212 H212       -3.0368  -29.3525  -53.9115 H         1 UNK         0.0600 
    213 H213       -4.4287  -30.0189  -53.0715 H         1 UNK         0.0600 
    214 H214       -2.8098  -30.4024  -52.5128 H         1 UNK         0.0600 
    215 H215       -3.4328  -25.9138  -51.2632 H         1 UNK         0.3000 
    216 H216       -5.6508  -24.9980  -53.0535 H         1 UNK         0.0600 
    217 H217       -4.4420  -22.7945  -52.9965 H         1 UNK         0.0600 
    218 H218       -3.4339  -24.0430  -53.7107 H         1 UNK         0.0600 
    219 H219       -3.1451  -23.5175  -52.0553 H         1 UNK         0.0600 
    220 H220       -6.7519  -23.0632  -52.1240 H         1 UNK         0.3000 
    221 H221       -7.2301  -23.2344  -49.2031 H         1 UNK         0.0600 
    222 H222       -8.5125  -21.4939  -51.3864 H         1 UNK         0.0600 
    223 H223       -9.1976  -22.9736  -50.7205 H         1 UNK         0.0600 
    224 H224       -9.0030  -21.5586  -49.6992 H         1 UNK         0.0600 
    225 H225       -6.6167  -21.5511  -47.8130 H         1 UNK         0.3000 
    226 H226       -4.2531  -20.1186  -48.3759 H         1 UNK         0.0600 
    227 H227       -4.8530  -20.8220  -46.1052 H         1 UNK         0.0600 
    228 H228       -4.7056  -19.0744  -46.1215 H         1 UNK         0.0600 
    229 H229       -6.2999  -19.8109  -46.1194 H         1 UNK         0.0600 
    230 H230       -7.6166  -19.0986  -48.6610 H         1 UNK         0.3000 
    231 H231       -7.0308  -16.2847  -49.0855 H         1 UNK         0.0600 
    232 H232       -9.4569  -16.1882  -49.6519 H         1 UNK         0.0600 
    233 H233       -9.2003  -17.0508  -48.1442 H         1 UNK         0.0600 
    234 H234       -9.5531  -17.9447  -49.6238 H         1 UNK         0.0600 
    235 H235       -6.9894  -19.1289  -51.1164 H         1 UNK         0.3000 
    236 H236       -7.3535  -17.6064  -53.6356 H         1 UNK         0.0600 
    237 H237       -8.5674  -19.7617  -53.3750 H         1 UNK         0.0600 
    238 H238       -7.3926  -19.8449  -54.6774 H         1 UNK         0.0600 
    239 H239       -7.0422  -20.6132  -53.1353 H         1 UNK         0.0600 
    240 H240       -4.9681  -19.7467  -51.9974 H         1 UNK         0.3000 
    241 H241       -2.8178  -20.0342  -52.1442 H         1 UNK         0.0600 
    242 H242       -4.5938  -20.7908  -54.6084 H         1 UNK         0.3800 
    243 H243       -3.3793  -21.2372  -55.7775 H         1 UNK         0.3800 
    244 H244       -2.3005  -17.4206  -53.6164 H         1 UNK         0.0800 
    245 H245       -2.8599  -17.3909  -51.9723 H         1 UNK         0.0800 
    246 H246       -1.4177  -17.4574  -49.9570 H         1 UNK         0.0800 
    247 H247       -1.5886  -19.1918  -50.0914 H         1 UNK         0.0800 
@<TRIPOS>BOND
     1    1    2 1    
     2    1  127 1    
     3    1  128 1    
     4    1  129 1    
     5    2    3 2    
     6    2    4 am   BACKBONE|DICT|INTERRES
     7    4    5 1    
     8    4  130 1    
     9    5    6 1    
    10    5   65 1    
    11    5  131 1    
    12    6    7 1    
    13    6  132 1    
    14    6  133 1    
    15    7    8 1    
    16    8    9 1    
    17    8  134 1    
    18    8  135 1    
    19    9   10 ar   
    20    9   14 ar   
    21   10   11 ar   
    22   10  136 1    
    23   11   12 ar   
    24   11  126 1    
    25   12   13 ar   
    26   12  137 1    
    27   13   14 ar   
    28   13   15 1    
    29   14  138 1    
    30   15   16 1    
    31   15  139 1    
    32   15  140 1    
    33   16   17 1    
    34   17   18 1    
    35   17  141 1    
    36   17  142 1    
    37   18   19 1    
    38   18   67 1    
    39   18  143 1    
    40   19   20 am   BACKBONE|DICT|INTERRES
    41   19  144 1    
    42   20   21 2    
    43   20   22 1    
    44   22   23 1    
    45   22   24 1    
    46   22  145 1    
    47   23  146 1    
    48   23  147 1    
    49   23  148 1    
    50   24   25 am   BACKBONE|DICT|INTERRES
    51   24  149 1    
    52   25   26 2    
    53   25   27 1    
    54   27   28 1    
    55   27   29 1    
    56   27  150 1    
    57   28  151 1    
    58   28  152 1    
    59   28  153 1    
    60   29   30 am   BACKBONE|DICT|INTERRES
    61   29  154 1    
    62   30   31 2    
    63   30   32 1    
    64   32   33 1    
    65   32   34 1    
    66   32  155 1    
    67   33  156 1    
    68   33  157 1    
    69   33  158 1    
    70   34   35 am   BACKBONE|DICT|INTERRES
    71   34  159 1    
    72   35   36 2    
    73   35   37 1    
    74   37   38 1    
    75   37   39 1    
    76   37  160 1    
    77   38  161 1    
    78   38  162 1    
    79   38  163 1    
    80   39   40 am   BACKBONE|DICT|INTERRES
    81   39  164 1    
    82   40   41 2    
    83   40   42 1    
    84   42   43 1    
    85   42   44 1    
    86   42  165 1    
    87   43  166 1    
    88   43  167 1    
    89   43  168 1    
    90   44   45 am   BACKBONE|DICT|INTERRES
    91   44  169 1    
    92   45   46 2    
    93   45   47 1    
    94   47   48 1    
    95   47   49 1    
    96   47  170 1    
    97   48  171 1    
    98   48  172 1    
    99   48  173 1    
   100   49   50 am   BACKBONE|DICT|INTERRES
   101   49  174 1    
   102   50   51 2    
   103   50   52 1    
   104   52   53 1    
   105   52   54 1    
   106   52  175 1    
   107   53  176 1    
   108   53  177 1    
   109   53  178 1    
   110   54   55 am   BACKBONE|DICT|INTERRES
   111   54  179 1    
   112   55   56 2    
   113   55   57 1    
   114   57   58 1    
   115   57   59 1    
   116   57  180 1    
   117   58  181 1    
   118   58  182 1    
   119   58  183 1    
   120   59   60 am   BACKBONE|DICT|INTERRES
   121   59  184 1    
   122   60   61 2    
   123   60   62 1    
   124   62   63 1    
   125   62   64 1    
   126   62  185 1    
   127   63  186 1    
   128   63  187 1    
   129   63  188 1    
   130   64   65 am   BACKBONE|DICT|INTERRES
   131   64  189 1    
   132   65   66 2    
   133   67   68 2    
   134   67   69 am   BACKBONE|DICT|INTERRES
   135   69   70 1    
   136   69  190 1    
   137   70   71 1    
   138   70   72 1    
   139   70  191 1    
   140   71  192 1    
   141   71  193 1    
   142   71  194 1    
   143   72   73 2    
   144   72   74 am   BACKBONE|DICT|INTERRES
   145   74   75 1    
   146   74  195 1    
   147   75   76 1    
   148   75   77 1    
   149   75  196 1    
   150   76  197 1    
   151   76  198 1    
   152   76  199 1    
   153   77   78 2    
   154   77   79 am   BACKBONE|DICT|INTERRES
   155   79   80 1    
   156   79  200 1    
   157   80   81 1    
   158   80   82 1    
   159   80  201 1    
   160   81  202 1    
   161   81  203 1    
   162   81  204 1    
   163   82   83 2    
   164   82   84 am   BACKBONE|DICT|INTERRES
   165   84   85 1    
   166   84  205 1    
   167   85   86 1    
   168   85   87 1    
   169   85  206 1    
   170   86  207 1    
   171   86  208 1    
   172   86  209 1    
   173   87   88 2    
   174   87   89 am   BACKBONE|DICT|INTERRES
   175   89   90 1    
   176   89  210 1    
   177   90   91 1    
   178   90   92 1    
   179   90  211 1    
   180   91  212 1    
   181   91  213 1    
   182   91  214 1    
   183   92   93 2    
   184   92   94 am   BACKBONE|DICT|INTERRES
   185   94   95 1    
   186   94  215 1    
   187   95   96 1    
   188   95   97 1    
   189   95  216 1    
   190   96  217 1    
   191   96  218 1    
   192   96  219 1    
   193   97   98 2    
   194   97   99 am   BACKBONE|DICT|INTERRES
   195   99  100 1    
   196   99  220 1    
   197  100  101 1    
   198  100  102 1    
   199  100  221 1    
   200  101  222 1    
   201  101  223 1    
   202  101  224 1    
   203  102  103 2    
   204  102  104 am   BACKBONE|DICT|INTERRES
   205  104  105 1    
   206  104  225 1    
   207  105  106 1    
   208  105  107 1    
   209  105  226 1    
   210  106  227 1    
   211  106  228 1    
   212  106  229 1    
   213  107  108 2    
   214  107  109 am   BACKBONE|DICT|INTERRES
   215  109  110 1    
   216  109  230 1    
   217  110  111 1    
   218  110  112 1    
   219  110  231 1    
   220  111  232 1    
   221  111  233 1    
   222  111  234 1    
   223  112  113 2    
   224  112  114 am   BACKBONE|DICT|INTERRES
   225  114  115 1    
   226  114  235 1    
   227  115  116 1    
   228  115  117 1    
   229  115  236 1    
   230  116  237 1    
   231  116  238 1    
   232  116  239 1    
   233  117  118 2    
   234  117  119 am   BACKBONE|DICT|INTERRES
   235  119  120 1    
   236  119  240 1    
   237  120  121 1    
   238  120  124 1    
   239  120  241 1    
   240  121  122 am   BACKBONE|DICT|INTERRES
   241  121  123 2    
   242  122  242 1    
   243  122  243 1    
   244  124  125 1    
   245  124  244 1    
   246  124  245 1    
   247  125  126 1    
   248  126  246 1    
   249  126  247 1    
@<TRIPOS>SUBSTRUCTURE
     1 UNK         1 GROUP             0       ****    0 ROOT    
