@<TRIPOS>MOLECULE
3R540
247   249    1
SMALL
USER_CHARGES


@<TRIPOS>ATOM
      1 CA          5.7587  -14.7104  -47.5668 C.3       0 UNK        -0.1800 
      2 C           4.3323  -14.1930  -47.6757 C.2       0 UNK         0.5000 
      3 O           3.7112  -13.8949  -46.6564 O.2       0 UNK        -0.5000 
      4 N           3.8203  -14.0630  -48.9078 N.am      1 UNK        -0.5000 
      5 CA          2.4435  -13.6618  -49.2429 C.3       1 UNK         0.1400 
      6 C6          2.1639  -13.7702  -50.7634 C.3       23 UNK        -0.0398 
      7 S7          2.3987  -15.4603  -51.4138 S.3       23 UNK        -0.2404 
      8 C8          0.6997  -16.0949  -51.2780 C.3       23 UNK        -0.0205 
      9 C9          0.5942  -17.5563  -51.6880 C.ar      23 UNK        -0.0193 
     10 C10        -0.0778  -17.9218  -52.8586 C.ar      23 UNK        -0.1150 
     11 C11        -0.2566  -19.2715  -53.1848 C.ar      23 UNK        -0.0193 
     12 C12         0.2803  -20.2544  -52.3481 C.ar      23 UNK        -0.1150 
     13 C13         0.9865  -19.9035  -51.1952 C.ar      23 UNK        -0.0193 
     14 C14         1.1329  -18.5511  -50.8687 C.ar      23 UNK        -0.1150 
     15 C15         1.6342  -20.9836  -50.3379 C.3       23 UNK        -0.0205 
     16 S16         1.2598  -20.7984  -48.5672 S.3       23 UNK        -0.2404 
     17 C17        -0.3073  -21.7183  -48.3710 C.3       23 UNK        -0.0398 
     18 CA         -0.1476  -22.8153  -47.2929 C.3       11 UNK         0.1400 
     19 N           0.1076  -22.2551  -45.9656 N.am      11 UNK        -0.5000 
     20 C           0.5961  -22.9433  -44.9285 C.2       10 UNK         0.5000 
     21 O           0.8490  -24.1470  -44.9685 O.2       10 UNK        -0.5000 
     22 CA          0.8138  -22.1613  -43.6219 C.3       10 UNK         0.1400 
     23 CB          2.0752  -21.2894  -43.7131 C.3       10 UNK        -0.1800 
     24 N          -0.3319  -21.3269  -43.2593 N.am      10 UNK        -0.5000 
     25 C          -1.5464  -21.8003  -42.9473 C.2       9 UNK         0.5000 
     26 O          -1.8353  -22.9978  -42.9427 O.2       9 UNK        -0.5000 
     27 CA         -2.6306  -20.7574  -42.6172 C.3       9 UNK         0.1400 
     28 CB         -2.4167  -20.1600  -41.2181 C.3       9 UNK        -0.1800 
     29 N          -2.6960  -19.6794  -43.6027 N.am      9 UNK        -0.5000 
     30 C          -3.0058  -19.8570  -44.8944 C.2       8 UNK         0.5000 
     31 O          -3.2868  -20.9451  -45.3945 O.2       8 UNK        -0.5000 
     32 CA         -2.9296  -18.6186  -45.7979 C.3       8 UNK         0.1400 
     33 CB         -4.1643  -17.7249  -45.6075 C.3       8 UNK        -0.1800 
     34 N          -1.7062  -17.8383  -45.6102 N.am      8 UNK        -0.5000 
     35 C          -0.4667  -18.3311  -45.7481 C.2       7 UNK         0.5000 
     36 O          -0.2278  -19.4990  -46.0354 O.2       7 UNK        -0.5000 
     37 CA          0.7072  -17.3897  -45.4462 C.3       7 UNK         0.1400 
     38 CB          0.9148  -16.3845  -46.5892 C.3       7 UNK        -0.1800 
     39 N           0.5295  -16.6866  -44.1786 N.am      7 UNK        -0.5000 
     40 C           0.3940  -17.2775  -42.9820 C.2       6 UNK         0.5000 
     41 O           0.4576  -18.4939  -42.7985 O.2       6 UNK        -0.5000 
     42 CA          0.0810  -16.3495  -41.7984 C.3       6 UNK         0.1400 
     43 CB          1.3583  -15.6788  -41.2704 C.3       6 UNK        -0.1800 
     44 N          -0.8975  -15.3274  -42.1676 N.am      6 UNK        -0.5000 
     45 C          -2.1974  -15.5715  -42.3835 C.2       5 UNK         0.5000 
     46 O          -2.7184  -16.6802  -42.2502 O.2       5 UNK        -0.5000 
     47 CA         -3.0489  -14.3777  -42.8552 C.3       5 UNK         0.1400 
     48 CB         -3.4754  -13.5093  -41.6621 C.3       5 UNK        -0.1800 
     49 N          -2.3614  -13.5425  -43.8438 N.am      5 UNK        -0.5000 
     50 C          -2.0732  -13.9442  -45.0892 C.2       4 UNK         0.5000 
     51 O          -2.3542  -15.0579  -45.5272 O.2       4 UNK        -0.5000 
     52 CA         -1.3206  -12.9540  -45.9955 C.3       4 UNK         0.1400 
     53 CB         -2.3040  -11.9794  -46.6598 C.3       4 UNK        -0.1800 
     54 N          -0.2501  -12.1911  -45.3477 N.am      4 UNK        -0.5000 
     55 C           0.7653  -12.6970  -44.6342 C.2       3 UNK         0.5000 
     56 O           0.8297  -13.8702  -44.2672 O.2       3 UNK        -0.5000 
     57 CA          1.9249  -11.7290  -44.3450 C.3       3 UNK         0.1400 
     58 CB          3.0084  -12.3501  -43.4451 C.3       3 UNK        -0.1800 
     59 N           2.5280  -11.3510  -45.6209 N.am      3 UNK        -0.5000 
     60 C           2.2448  -10.2377  -46.3112 C.2       2 UNK         0.5000 
     61 O           1.5138   -9.3423  -45.8865 O.2       2 UNK        -0.5000 
     62 CA          2.8371  -10.1200  -47.7313 C.3       2 UNK         0.1400 
     63 CB          4.1801   -9.3755  -47.6946 C.3       2 UNK        -0.1800 
     64 N           3.0269  -11.4165  -48.3858 N.am      2 UNK        -0.5000 
     65 C           2.0411  -12.2603  -48.7264 C.2       1 UNK         0.5000 
     66 O           0.8464  -11.9791  -48.6295 O.2       1 UNK        -0.5000 
     67 C          -1.3253  -23.8068  -47.2775 C.2       11 UNK         0.5000 
     68 O          -1.2411  -24.8275  -47.9595 O.2       11 UNK        -0.5000 
     69 N          -2.3569  -23.5457  -46.4579 N.am      12 UNK        -0.5000 
     70 CA         -3.4585  -24.4796  -46.2126 C.3       12 UNK         0.1400 
     71 CB         -4.5822  -23.7883  -45.4274 C.3       12 UNK        -0.1800 
     72 C          -2.9978  -25.7558  -45.4877 C.2       12 UNK         0.5000 
     73 O          -3.4037  -26.8493  -45.8810 O.2       12 UNK        -0.5000 
     74 N          -2.1323  -25.6048  -44.4735 N.am      13 UNK        -0.5000 
     75 CA         -1.5271  -26.7155  -43.7325 C.3       13 UNK         0.1400 
     76 CB         -0.7848  -26.1730  -42.5020 C.3       13 UNK        -0.1800 
     77 C          -0.5929  -27.5778  -44.6039 C.2       13 UNK         0.5000 
     78 O          -0.5919  -28.8018  -44.4688 O.2       13 UNK        -0.5000 
     79 N           0.1555  -26.9281  -45.5053 N.am      14 UNK        -0.5000 
     80 CA          1.0141  -27.5685  -46.5043 C.3       14 UNK         0.1400 
     81 CB          2.0057  -26.5241  -47.0415 C.3       14 UNK        -0.1800 
     82 C           0.2355  -28.2081  -47.6735 C.2       14 UNK         0.5000 
     83 O           0.8216  -28.9921  -48.4210 O.2       14 UNK        -0.5000 
     84 N          -1.0480  -27.8465  -47.8248 N.am      15 UNK        -0.5000 
     85 CA         -1.9558  -28.1890  -48.9253 C.3       15 UNK         0.1400 
     86 CB         -2.2582  -29.7015  -48.9470 C.3       15 UNK        -0.1800 
     87 C          -1.4697  -27.6416  -50.2857 C.2       15 UNK         0.5000 
     88 O          -1.6416  -28.2897  -51.3197 O.2       15 UNK        -0.5000 
     89 N          -0.8761  -26.4442  -50.2543 N.am      16 UNK        -0.5000 
     90 CA         -0.3508  -25.7064  -51.3972 C.3       16 UNK         0.1400 
     91 CB          1.0797  -25.2458  -51.0595 C.3       16 UNK        -0.1800 
     92 C          -1.3001  -24.5318  -51.6780 C.2       16 UNK         0.5000 
     93 O          -0.9202  -23.3747  -51.5027 O.2       16 UNK        -0.5000 
     94 N          -2.5469  -24.8623  -52.0445 N.am      17 UNK        -0.5000 
     95 CA         -3.7100  -23.9681  -52.0663 C.3       17 UNK         0.1400 
     96 CB         -3.5402  -22.8315  -53.1030 C.3       17 UNK        -0.1800 
     97 C          -4.0332  -23.4911  -50.6330 C.2       17 UNK         0.5000 
     98 O          -4.0096  -24.3141  -49.7170 O.2       17 UNK        -0.5000 
     99 N          -4.3301  -22.2001  -50.4531 N.am      18 UNK        -0.5000 
    100 CA        -4.5723  -21.5735  -49.1518 C.3       18 UNK         0.1400 
    101 CB        -6.0011  -21.8882  -48.6631 C.3       18 UNK        -0.1800 
    102 C         -4.2872  -20.0624  -49.2150 C.2       18 UNK         0.5000 
    103 O         -4.9357  -19.2916  -48.5078 O.2       18 UNK        -0.5000 
    104 N         -3.3586  -19.6561  -50.0960 N.am      19 UNK        -0.5000 
    105 CA        -2.9363  -18.2873  -50.4420 C.3       19 UNK         0.1400 
    106 CB        -2.2857  -17.5735  -49.2441 C.3       19 UNK        -0.1800 
    107 C         -4.0207  -17.3983  -51.0897 C.2       19 UNK         0.5000 
    108 O         -3.7097  -16.6294  -51.9996 O.2       19 UNK        -0.5000 
    109 N         -5.2702  -17.5160  -50.6302 N.am      20 UNK        -0.5000 
    110 CA        -6.4565  -16.9029  -51.2174 C.3       20 UNK         0.1400 
    111 CB        -7.6424  -17.1055  -50.2623 C.3       20 UNK        -0.1800 
    112 C         -6.7665  -17.5018  -52.6017 C.2       20 UNK         0.5000 
    113 O         -6.5830  -18.7043  -52.8041 O.2       20 UNK        -0.5000 
    114 N         -7.2357  -16.6431  -53.5169 N.am      21 UNK        -0.5000 
    115 CA        -7.6018  -16.9247  -54.9135 C.3       21 UNK         0.1400 
    116 CB        -8.7311  -17.9734  -54.9966 C.3       21 UNK        -0.1800 
    117 C         -6.4162  -17.2695  -55.8445 C.2       21 UNK         0.5000 
    118 O         -6.6440  -17.5710  -57.0177 O.2       21 UNK        -0.5000 
    119 N         -5.1800  -17.1911  -55.3376 N.am      22 UNK        -0.5000 
    120 CA        -3.9398  -17.3181  -56.1151 C.3       22 UNK         0.1400 
    121 C         -3.7020  -16.0883  -57.0361 C.2       22 UNK         0.5000 
    122 N         -3.1246  -16.2906  -58.2125 N.am      22 UNK        -0.7600 
    123 O         -3.9980  -14.9495  -56.6797 O.2       22 UNK        -0.5000 
    124 C124       -2.7211  -17.5453  -55.1880 C.3       23 UNK        -0.0398 
    125 S125       -2.7723  -19.1818  -54.3753 S.3       23 UNK        -0.2404 
    126 C126       -1.0196  -19.6814  -54.4382 C.3       23 UNK        -0.0205 
    127 H127        6.1898  -14.9214  -48.5457 H         1 UNK         0.0600 
    128 H128        5.7787  -15.6291  -46.9806 H         1 UNK         0.0600 
    129 H129        6.3879  -13.9730  -47.0685 H         1 UNK         0.0600 
    130 H130        4.3890  -14.3265  -49.7002 H         1 UNK         0.3000 
    131 H131        1.7833  -14.3660  -48.7327 H         1 UNK         0.0600 
    132 H132        2.8246  -13.1008  -51.3169 H         1 UNK         0.0800 
    133 H133        1.1478  -13.4459  -50.9967 H         1 UNK         0.0800 
    134 H134        0.3642  -15.9913  -50.2454 H         1 UNK         0.0800 
    135 H135        0.0329  -15.4796  -51.8842 H         1 UNK         0.0800 
    136 H136       -0.4903  -17.1559  -53.4983 H         1 UNK         0.1150 
    137 H137        0.1624  -21.2977  -52.6041 H         1 UNK         0.1150 
    138 H138        1.6694  -18.2693  -49.9735 H         1 UNK         0.1150 
    139 H139        1.3502  -21.9824  -50.6726 H         1 UNK         0.0800 
    140 H140        2.7146  -20.9153  -50.4686 H         1 UNK         0.0800 
    141 H141       -0.5951  -22.1516  -49.3272 H         1 UNK         0.0800 
    142 H142       -1.1000  -21.0184  -48.1020 H         1 UNK         0.0800 
    143 H143        0.7325  -23.4025  -47.5642 H         1 UNK         0.0600 
    144 H144       -0.0477  -21.2513  -45.8706 H         1 UNK         0.3000 
    145 H145        0.9620  -22.8895  -42.8218 H         1 UNK         0.0600 
    146 H146        2.2854  -20.8007  -42.7615 H         1 UNK         0.0600 
    147 H147        2.9483  -21.8895  -43.9720 H         1 UNK         0.0600 
    148 H148        1.9728  -20.5117  -44.4711 H         1 UNK         0.0600 
    149 H149       -0.1741  -20.3233  -43.2393 H         1 UNK         0.3000 
    150 H150       -3.5945  -21.2705  -42.6227 H         1 UNK         0.0600 
    151 H151       -3.2291  -19.4839  -40.9509 H         1 UNK         0.0600 
    152 H152       -1.4837  -19.5990  -41.1558 H         1 UNK         0.0600 
    153 H153       -2.3813  -20.9433  -40.4601 H         1 UNK         0.0600 
    154 H154       -2.4668  -18.7475  -43.2799 H         1 UNK         0.3000 
    155 H155       -2.9206  -18.9832  -46.8238 H         1 UNK         0.0600 
    156 H156       -5.0836  -18.2987  -45.7313 H         1 UNK         0.0600 
    157 H157       -4.1862  -17.2722  -44.6158 H         1 UNK         0.0600 
    158 H158       -4.1867  -16.9216  -46.3435 H         1 UNK         0.0600 
    159 H159       -1.8289  -16.8504  -45.4018 H         1 UNK         0.3000 
    160 H160        1.6106  -17.9968  -45.3605 H         1 UNK         0.0600 
    161 H161        1.7605  -15.7287  -46.3856 H         1 UNK         0.0600 
    162 H162        0.0365  -15.7589  -46.7427 H         1 UNK         0.0600 
    163 H163        1.1183  -16.8997  -47.5290 H         1 UNK         0.0600 
    164 H164        0.5049  -15.6697  -44.2217 H         1 UNK         0.3000 
    165 H165       -0.3406  -16.9581  -40.9954 H         1 UNK         0.0600 
    166 H166        1.1448  -15.0473  -40.4080 H         1 UNK         0.0600 
    167 H167        2.0865  -16.4266  -40.9542 H         1 UNK         0.0600 
    168 H168        1.8353  -15.0594  -42.0304 H         1 UNK         0.0600 
    169 H169       -0.5344  -14.4094  -42.3813 H         1 UNK         0.3000 
    170 H170       -3.9514  -14.7802  -43.3205 H         1 UNK         0.0600 
    171 H171       -2.6176  -13.0512  -41.1682 H         1 UNK         0.0600 
    172 H172       -4.1481  -12.7111  -41.9763 H         1 UNK         0.0600 
    173 H173       -4.0046  -14.1042  -40.9165 H         1 UNK         0.0600 
    174 H174       -2.0858  -12.6149  -43.5567 H         1 UNK         0.3000 
    175 H175       -0.8498  -13.5388  -46.7876 H         1 UNK         0.0600 
    176 H176       -1.8023  -11.3626  -47.4060 H         1 UNK         0.0600 
    177 H177       -2.7676  -11.3147  -45.9299 H         1 UNK         0.0600 
    178 H178       -3.1037  -12.5174  -47.1708 H         1 UNK         0.0600 
    179 H179       -0.1935  -11.2153  -45.6040 H         1 UNK         0.3000 
    180 H180        1.5178  -10.8557  -43.8316 H         1 UNK         0.0600 
    181 H181        3.4454  -13.2427  -43.8950 H         1 UNK         0.0600 
    182 H182        2.5945  -12.6369  -42.4778 H         1 UNK         0.0600 
    183 H183        3.8155  -11.6422  -43.2568 H         1 UNK         0.0600 
    184 H184        3.0715  -12.0810  -46.0726 H         1 UNK         0.3000 
    185 H185        2.1375   -9.5374  -48.3341 H         1 UNK         0.0600 
    186 H186        4.9289   -9.9240  -47.1216 H         1 UNK         0.0600 
    187 H187        4.5729   -9.2195  -48.6996 H         1 UNK         0.0600 
    188 H188        4.0692   -8.3928  -47.2342 H         1 UNK         0.0600 
    189 H189        3.9790  -11.7324  -48.4984 H         1 UNK         0.3000 
    190 H190       -2.3810  -22.6735  -45.9388 H         1 UNK         0.3000 
    191 H191       -3.8655  -24.7823  -47.1782 H         1 UNK         0.0600 
    192 H192       -4.9924  -22.9480  -45.9865 H         1 UNK         0.0600 
    193 H193       -5.4044  -24.4776  -45.2318 H         1 UNK         0.0600 
    194 H194       -4.2307  -23.4131  -44.4656 H         1 UNK         0.0600 
    195 H195       -1.8730  -24.6684  -44.1805 H         1 UNK         0.3000 
    196 H196       -2.3355  -27.3596  -43.3804 H         1 UNK         0.0600 
    197 H197       -0.3439  -26.9848  -41.9222 H         1 UNK         0.0600 
    198 H198       -1.4620  -25.6318  -41.8411 H         1 UNK         0.0600 
    199 H199        0.0208  -25.4941  -42.7819 H         1 UNK         0.0600 
    200 H200        0.1587  -25.9121  -45.4887 H         1 UNK         0.3000 
    201 H201        1.5831  -28.3610  -46.0141 H         1 UNK         0.0600 
    202 H202        2.5954  -26.0865  -46.2357 H         1 UNK         0.0600 
    203 H203        1.4915  -25.7141  -47.5592 H         1 UNK         0.0600 
    204 H204        2.7040  -26.9729  -47.7489 H         1 UNK         0.0600 
    205 H205       -1.4184  -27.1787  -47.1613 H         1 UNK         0.3000 
    206 H206       -2.8916  -27.6703  -48.7117 H         1 UNK         0.0600 
    207 H207       -2.6010  -30.0476  -47.9718 H         1 UNK         0.0600 
    208 H208       -3.0444  -29.9314  -49.6669 H         1 UNK         0.0600 
    209 H209       -1.3819  -30.2883  -49.2233 H         1 UNK         0.0600 
    210 H210       -0.8847  -25.9348  -49.3715 H         1 UNK         0.3000 
    211 H211       -0.3116  -26.3341  -52.2896 H         1 UNK         0.0600 
    212 H212        1.1012  -24.6148  -50.1696 H         1 UNK         0.0600 
    213 H213        1.5112  -24.6735  -51.8815 H         1 UNK         0.0600 
    214 H214        1.7331  -26.0991  -50.8769 H         1 UNK         0.0600 
    215 H215       -2.7608  -25.8470  -52.1194 H         1 UNK         0.3000 
    216 H216       -4.5577  -24.5775  -52.3820 H         1 UNK         0.0600 
    217 H217       -4.4710  -22.2798  -53.2397 H         1 UNK         0.0600 
    218 H218       -3.2642  -23.2324  -54.0782 H         1 UNK         0.0600 
    219 H219       -2.7716  -22.1136  -52.8150 H         1 UNK         0.0600 
    220 H220       -4.3814  -21.5921  -51.2588 H         1 UNK         0.3000 
    221 H221       -3.8649  -21.9814  -48.4268 H         1 UNK         0.0600 
    222 H222       -6.7523  -21.4948  -49.3487 H         1 UNK         0.0600 
    223 H223       -6.1627  -22.9618  -48.5671 H         1 UNK         0.0600 
    224 H224       -6.1875  -21.4504  -47.6816 H         1 UNK         0.0600 
    225 H225       -2.8793  -20.3748  -50.6191 H         1 UNK         0.3000 
    226 H226       -2.1653  -18.4194  -51.1980 H         1 UNK         0.0600 
    227 H227       -1.4883  -18.1752  -48.8071 H         1 UNK         0.0600 
    228 H228       -1.8471  -16.6247  -49.5522 H         1 UNK         0.0600 
    229 H229       -3.0136  -17.3465  -48.4666 H         1 UNK         0.0600 
    230 H230       -5.4178  -18.1578  -49.8559 H         1 UNK         0.3000 
    231 H231       -6.2686  -15.8324  -51.3224 H         1 UNK         0.0600 
    232 H232       -7.8554  -18.1641  -50.1064 H         1 UNK         0.0600 
    233 H233       -8.5473  -16.6420  -50.6573 H         1 UNK         0.0600 
    234 H234       -7.4453  -16.6572  -49.2883 H         1 UNK         0.0600 
    235 H235       -7.3381  -15.6750  -53.2443 H         1 UNK         0.3000 
    236 H236       -8.0072  -15.9881  -55.2991 H         1 UNK         0.0600 
    237 H237       -8.3860  -18.9677  -54.7126 H         1 UNK         0.0600 
    238 H238       -9.5656  -17.7082  -54.3475 H         1 UNK         0.0600 
    239 H239       -9.1228  -18.0459  -56.0118 H         1 UNK         0.0600 
    240 H240       -5.0701  -16.9392  -54.3662 H         1 UNK         0.3000 
    241 H241       -4.0431  -18.1942  -56.7589 H         1 UNK         0.0600 
    242 H242       -2.9513  -15.5006  -58.8151 H         1 UNK         0.3800 
    243 H243       -2.8684  -17.2144  -58.5260 H         1 UNK         0.3800 
    244 H244       -1.7961  -17.4662  -55.7609 H         1 UNK         0.0800 
    245 H245       -2.6686  -16.7674  -54.4254 H         1 UNK         0.0800 
    246 H246       -0.5253  -19.2744  -55.3207 H         1 UNK         0.0800 
    247 H247       -0.9899  -20.7656  -54.5571 H         1 UNK         0.0800 
@<TRIPOS>BOND
     1    1    2 1    
     2    1  127 1    
     3    1  128 1    
     4    1  129 1    
     5    2    3 2    
     6    2    4 am   BACKBONE|DICT|INTERRES
     7    4    5 1    
     8    4  130 1    
     9    5    6 1    
    10    5   65 1    
    11    5  131 1    
    12    6    7 1    
    13    6  132 1    
    14    6  133 1    
    15    7    8 1    
    16    8    9 1    
    17    8  134 1    
    18    8  135 1    
    19    9   10 ar   
    20    9   14 ar   
    21   10   11 ar   
    22   10  136 1    
    23   11   12 ar   
    24   11  126 1    
    25   12   13 ar   
    26   12  137 1    
    27   13   14 ar   
    28   13   15 1    
    29   14  138 1    
    30   15   16 1    
    31   15  139 1    
    32   15  140 1    
    33   16   17 1    
    34   17   18 1    
    35   17  141 1    
    36   17  142 1    
    37   18   19 1    
    38   18   67 1    
    39   18  143 1    
    40   19   20 am   BACKBONE|DICT|INTERRES
    41   19  144 1    
    42   20   21 2    
    43   20   22 1    
    44   22   23 1    
    45   22   24 1    
    46   22  145 1    
    47   23  146 1    
    48   23  147 1    
    49   23  148 1    
    50   24   25 am   BACKBONE|DICT|INTERRES
    51   24  149 1    
    52   25   26 2    
    53   25   27 1    
    54   27   28 1    
    55   27   29 1    
    56   27  150 1    
    57   28  151 1    
    58   28  152 1    
    59   28  153 1    
    60   29   30 am   BACKBONE|DICT|INTERRES
    61   29  154 1    
    62   30   31 2    
    63   30   32 1    
    64   32   33 1    
    65   32   34 1    
    66   32  155 1    
    67   33  156 1    
    68   33  157 1    
    69   33  158 1    
    70   34   35 am   BACKBONE|DICT|INTERRES
    71   34  159 1    
    72   35   36 2    
    73   35   37 1    
    74   37   38 1    
    75   37   39 1    
    76   37  160 1    
    77   38  161 1    
    78   38  162 1    
    79   38  163 1    
    80   39   40 am   BACKBONE|DICT|INTERRES
    81   39  164 1    
    82   40   41 2    
    83   40   42 1    
    84   42   43 1    
    85   42   44 1    
    86   42  165 1    
    87   43  166 1    
    88   43  167 1    
    89   43  168 1    
    90   44   45 am   BACKBONE|DICT|INTERRES
    91   44  169 1    
    92   45   46 2    
    93   45   47 1    
    94   47   48 1    
    95   47   49 1    
    96   47  170 1    
    97   48  171 1    
    98   48  172 1    
    99   48  173 1    
   100   49   50 am   BACKBONE|DICT|INTERRES
   101   49  174 1    
   102   50   51 2    
   103   50   52 1    
   104   52   53 1    
   105   52   54 1    
   106   52  175 1    
   107   53  176 1    
   108   53  177 1    
   109   53  178 1    
   110   54   55 am   BACKBONE|DICT|INTERRES
   111   54  179 1    
   112   55   56 2    
   113   55   57 1    
   114   57   58 1    
   115   57   59 1    
   116   57  180 1    
   117   58  181 1    
   118   58  182 1    
   119   58  183 1    
   120   59   60 am   BACKBONE|DICT|INTERRES
   121   59  184 1    
   122   60   61 2    
   123   60   62 1    
   124   62   63 1    
   125   62   64 1    
   126   62  185 1    
   127   63  186 1    
   128   63  187 1    
   129   63  188 1    
   130   64   65 am   BACKBONE|DICT|INTERRES
   131   64  189 1    
   132   65   66 2    
   133   67   68 2    
   134   67   69 am   BACKBONE|DICT|INTERRES
   135   69   70 1    
   136   69  190 1    
   137   70   71 1    
   138   70   72 1    
   139   70  191 1    
   140   71  192 1    
   141   71  193 1    
   142   71  194 1    
   143   72   73 2    
   144   72   74 am   BACKBONE|DICT|INTERRES
   145   74   75 1    
   146   74  195 1    
   147   75   76 1    
   148   75   77 1    
   149   75  196 1    
   150   76  197 1    
   151   76  198 1    
   152   76  199 1    
   153   77   78 2    
   154   77   79 am   BACKBONE|DICT|INTERRES
   155   79   80 1    
   156   79  200 1    
   157   80   81 1    
   158   80   82 1    
   159   80  201 1    
   160   81  202 1    
   161   81  203 1    
   162   81  204 1    
   163   82   83 2    
   164   82   84 am   BACKBONE|DICT|INTERRES
   165   84   85 1    
   166   84  205 1    
   167   85   86 1    
   168   85   87 1    
   169   85  206 1    
   170   86  207 1    
   171   86  208 1    
   172   86  209 1    
   173   87   88 2    
   174   87   89 am   BACKBONE|DICT|INTERRES
   175   89   90 1    
   176   89  210 1    
   177   90   91 1    
   178   90   92 1    
   179   90  211 1    
   180   91  212 1    
   181   91  213 1    
   182   91  214 1    
   183   92   93 2    
   184   92   94 am   BACKBONE|DICT|INTERRES
   185   94   95 1    
   186   94  215 1    
   187   95   96 1    
   188   95   97 1    
   189   95  216 1    
   190   96  217 1    
   191   96  218 1    
   192   96  219 1    
   193   97   98 2    
   194   97   99 am   BACKBONE|DICT|INTERRES
   195   99  100 1    
   196   99  220 1    
   197  100  101 1    
   198  100  102 1    
   199  100  221 1    
   200  101  222 1    
   201  101  223 1    
   202  101  224 1    
   203  102  103 2    
   204  102  104 am   BACKBONE|DICT|INTERRES
   205  104  105 1    
   206  104  225 1    
   207  105  106 1    
   208  105  107 1    
   209  105  226 1    
   210  106  227 1    
   211  106  228 1    
   212  106  229 1    
   213  107  108 2    
   214  107  109 am   BACKBONE|DICT|INTERRES
   215  109  110 1    
   216  109  230 1    
   217  110  111 1    
   218  110  112 1    
   219  110  231 1    
   220  111  232 1    
   221  111  233 1    
   222  111  234 1    
   223  112  113 2    
   224  112  114 am   BACKBONE|DICT|INTERRES
   225  114  115 1    
   226  114  235 1    
   227  115  116 1    
   228  115  117 1    
   229  115  236 1    
   230  116  237 1    
   231  116  238 1    
   232  116  239 1    
   233  117  118 2    
   234  117  119 am   BACKBONE|DICT|INTERRES
   235  119  120 1    
   236  119  240 1    
   237  120  121 1    
   238  120  124 1    
   239  120  241 1    
   240  121  122 am   BACKBONE|DICT|INTERRES
   241  121  123 2    
   242  122  242 1    
   243  122  243 1    
   244  124  125 1    
   245  124  244 1    
   246  124  245 1    
   247  125  126 1    
   248  126  246 1    
   249  126  247 1    
@<TRIPOS>SUBSTRUCTURE
     1 UNK         1 GROUP             0       ****    0 ROOT    
