@<TRIPOS>MOLECULE
3R540
247   249    1
SMALL
USER_CHARGES


@<TRIPOS>ATOM
      1 CA          3.6401  -17.5650  -50.0504 C.3       0 UNK        -0.1800 
      2 C           4.2716  -16.4574  -50.8891 C.2       0 UNK         0.5000 
      3 O           5.1816  -16.7366  -51.6660 O.2       0 UNK        -0.5000 
      4 N           3.8401  -15.1932  -50.7751 N.am      1 UNK        -0.5000 
      5 CA          2.7896  -14.6788  -49.8841 C.3       1 UNK         0.1400 
      6 C6          2.0521  -13.4842  -50.5439 C.3       23 UNK        -0.0398 
      7 S7          0.3209  -13.2839  -49.9929 S.3       23 UNK        -0.2404 
      8 C8         -0.6018  -14.3387  -51.1605 C.3       23 UNK        -0.0205 
      9 C9         -1.1548  -15.5782  -50.4727 C.ar      23 UNK        -0.0193 
     10 C10        -2.4122  -15.5388  -49.8605 C.ar      23 UNK        -0.1150 
     11 C11        -2.9292  -16.6727  -49.2270 C.ar      23 UNK        -0.0193 
     12 C12        -2.1732  -17.8457  -49.1953 C.ar      23 UNK        -0.1150 
     13 C13        -0.9167  -17.8998  -49.8042 C.ar      23 UNK        -0.0193 
     14 C14        -0.4179  -16.7662  -50.4527 C.ar      23 UNK        -0.1150 
     15 C15        -0.1040  -19.1829  -49.7729 C.3       23 UNK        -0.0205 
     16 S16         1.0310  -19.2629  -48.3506 S.3       23 UNK        -0.2404 
     17 C17        -0.0741  -19.5722  -46.9315 C.3       23 UNK        -0.0398 
     18 CA         -0.2103  -21.0738  -46.5866 C.3       11 UNK         0.1400 
     19 N          -0.5615  -21.2725  -45.1756 N.am      11 UNK        -0.5000 
     20 C          -0.6263  -22.4639  -44.5637 C.2       10 UNK         0.5000 
     21 O          -0.3725  -23.5302  -45.1192 O.2       10 UNK        -0.5000 
     22 CA         -1.1248  -22.4752  -43.1122 C.3       10 UNK         0.1400 
     23 CB         -0.0090  -22.0572  -42.1441 C.3       10 UNK        -0.1800 
     24 N          -2.2906  -21.6068  -42.9550 N.am      10 UNK        -0.5000 
     25 C          -3.5142  -21.9124  -43.4132 C.2       9 UNK         0.5000 
     26 O          -3.7955  -22.9862  -43.9451 O.2       9 UNK        -0.5000 
     27 CA         -4.6014  -20.8295  -43.2810 C.3       9 UNK         0.1400 
     28 CB         -5.3392  -20.9686  -41.9411 C.3       9 UNK        -0.1800 
     29 N          -4.0758  -19.4689  -43.4012 N.am      9 UNK        -0.5000 
     30 C          -3.5479  -18.9505  -44.5188 C.2       8 UNK         0.5000 
     31 O          -3.4551  -19.5599  -45.5838 O.2       8 UNK        -0.5000 
     32 CA         -2.9703  -17.5295  -44.4068 C.3       8 UNK         0.1400 
     33 CB         -4.0701  -16.4754  -44.5982 C.3       8 UNK        -0.1800 
     34 N          -2.2776  -17.2828  -43.1369 N.am      8 UNK        -0.5000 
     35 C          -1.2110  -17.9624  -42.6952 C.2       7 UNK         0.5000 
     36 O          -0.6826  -18.8794  -43.3276 O.2       7 UNK        -0.5000 
     37 CA         -0.6719  -17.5727  -41.3113 C.3       7 UNK         0.1400 
     38 CB         -0.5066  -18.8070  -40.4042 C.3       7 UNK        -0.1800 
     39 N           0.5977  -16.8635  -41.4473 N.am      7 UNK        -0.5000 
     40 C           1.1311  -16.0755  -40.5024 C.2       6 UNK         0.5000 
     41 O           0.6057  -15.8731  -39.4067 O.2       6 UNK        -0.5000 
     42 CA          2.4562  -15.3671  -40.8388 C.3       6 UNK         0.1400 
     43 CB          3.6309  -16.3563  -40.9095 C.3       6 UNK        -0.1800 
     44 N           2.3481  -14.6216  -42.0907 N.am      6 UNK        -0.5000 
     45 C           1.7683  -13.4165  -42.2038 C.2       5 UNK         0.5000 
     46 O           1.3861  -12.7484  -41.2424 O.2       5 UNK        -0.5000 
     47 CA          1.5475  -12.8747  -43.6313 C.3       5 UNK         0.1400 
     48 CB          2.7069  -11.9653  -44.0647 C.3       5 UNK        -0.1800 
     49 N           1.3723  -13.9466  -44.6111 N.am      5 UNK        -0.5000 
     50 C           0.3155  -14.7704  -44.6410 C.2       4 UNK         0.5000 
     51 O          -0.6776  -14.6342  -43.9271 O.2       4 UNK        -0.5000 
     52 CA          0.4005  -15.9739  -45.5912 C.3       4 UNK         0.1400 
     53 CB         -0.3076  -15.6707  -46.9134 C.3       4 UNK        -0.1800 
     54 N           1.7766  -16.4025  -45.8445 N.am      4 UNK        -0.5000 
     55 C           2.5251  -17.0705  -44.9553 C.2       3 UNK         0.5000 
     56 O           2.1204  -17.3849  -43.8376 O.2       3 UNK        -0.5000 
     57 CA          3.9751  -17.4055  -45.3537 C.3       3 UNK         0.1400 
     58 CB          4.0554  -18.7908  -46.0111 C.3       3 UNK        -0.1800 
     59 N           4.5628  -16.4072  -46.2481 N.am      3 UNK        -0.5000 
     60 C           4.8817  -15.1595  -45.8765 C.2       2 UNK         0.5000 
     61 O           4.7798  -14.7481  -44.7213 O.2       2 UNK        -0.5000 
     62 CA          5.3371  -14.1986  -46.9935 C.3       2 UNK         0.1400 
     63 CB          6.8565  -14.2899  -47.1976 C.3       2 UNK        -0.1800 
     64 N           4.6613  -14.4297  -48.2764 N.am      2 UNK        -0.5000 
     65 C           3.3369  -14.3350  -48.4761 C.2       1 UNK         0.5000 
     66 O           2.5543  -14.0339  -47.5765 O.2       1 UNK        -0.5000 
     67 C          -1.1932  -21.7962  -47.5361 C.2       11 UNK         0.5000 
     68 O          -0.7625  -22.4470  -48.4903 O.2       11 UNK        -0.5000 
     69 N          -2.4940  -21.7236  -47.2233 N.am      12 UNK        -0.5000 
     70 CA         -3.5689  -22.4170  -47.9349 C.3       12 UNK         0.1400 
     71 CB         -4.9231  -21.8824  -47.4458 C.3       12 UNK        -0.1800 
     72 C          -3.5135  -23.9558  -47.8412 C.2       12 UNK         0.5000 
     73 O          -4.1277  -24.6201  -48.6754 O.2       12 UNK        -0.5000 
     74 N          -2.7816  -24.4967  -46.8595 N.am      13 UNK        -0.5000 
     75 CA         -2.5124  -25.9262  -46.7275 C.3       13 UNK         0.1400 
     76 CB         -2.5426  -26.3140  -45.2401 C.3       13 UNK        -0.1800 
     77 C          -1.1615  -26.2961  -47.3646 C.2       13 UNK         0.5000 
     78 O          -1.0910  -27.2719  -48.1122 O.2       13 UNK        -0.5000 
     79 N          -0.1130  -25.5273  -47.0401 N.am      14 UNK        -0.5000 
     80 CA          1.2730  -25.7948  -47.4188 C.3       14 UNK         0.1400 
     81 CB          2.2113  -24.9551  -46.5367 C.3       14 UNK        -0.1800 
     82 C           1.5624  -25.5440  -48.9070 C.2       14 UNK         0.5000 
     83 O           2.1531  -26.4063  -49.5592 O.2       14 UNK        -0.5000 
     84 N           1.1615  -24.3701  -49.4108 N.am      15 UNK        -0.5000 
     85 CA          1.3596  -23.9687  -50.8024 C.3       15 UNK         0.1400 
     86 CB          1.6807  -22.4670  -50.8720 C.3       15 UNK        -0.1800 
     87 C           0.1170  -24.3075  -51.6352 C.2       15 UNK         0.5000 
     88 O           0.2500  -24.9133  -52.6990 O.2       15 UNK        -0.5000 
     89 N          -1.0620  -23.9248  -51.1198 N.am      16 UNK        -0.5000 
     90 CA         -2.4162  -24.1664  -51.6372 C.3       16 UNK         0.1400 
     91 CB         -2.7450  -25.6706  -51.6518 C.3       16 UNK        -0.1800 
     92 C          -2.7243  -23.5109  -52.9978 C.2       16 UNK         0.5000 
     93 O          -3.6637  -22.7201  -53.0892 O.2       16 UNK        -0.5000 
     94 N          -1.9243  -23.8155  -54.0253 N.am      17 UNK        -0.5000 
     95 CA         -2.0559  -23.2893  -55.3865 C.3       17 UNK         0.1400 
     96 CB         -1.1099  -24.0611  -56.3183 C.3       17 UNK        -0.1800 
     97 C          -1.7887  -21.7754  -55.4736 C.2       17 UNK         0.5000 
     98 O          -2.4173  -21.0906  -56.2804 O.2       17 UNK        -0.5000 
     99 N          -0.8834  -21.2809  -54.6178 N.am      18 UNK        -0.5000 
    100 CA        -0.5823  -19.8576  -54.4566 C.3       18 UNK         0.1400 
    101 CB         0.7634  -19.7125  -53.7301 C.3       18 UNK        -0.1800 
    102 C         -1.6903  -19.0943  -53.7042 C.2       18 UNK         0.5000 
    103 O         -1.8295  -17.8875  -53.9026 O.2       18 UNK        -0.5000 
    104 N         -2.4525  -19.8075  -52.8630 N.am      19 UNK        -0.5000 
    105 CA        -3.5958  -19.2727  -52.1283 C.3       19 UNK         0.1400 
    106 CB        -3.8754  -20.1628  -50.9033 C.3       19 UNK        -0.1800 
    107 C         -4.8362  -19.1949  -53.0294 C.2       19 UNK         0.5000 
    108 O         -5.4706  -18.1437  -53.1101 O.2       19 UNK        -0.5000 
    109 N         -5.1530  -20.3255  -53.6808 N.am      20 UNK        -0.5000 
    110 CA        -6.3469  -20.5634  -54.4980 C.3       20 UNK         0.1400 
    111 CB        -6.3111  -19.7154  -55.7866 C.3       20 UNK        -0.1800 
    112 C         -7.6519  -20.4003  -53.6856 C.2       20 UNK         0.5000 
    113 O         -8.6246  -19.8328  -54.1853 O.2       20 UNK        -0.5000 
    114 N         -7.6261  -20.9155  -52.4450 N.am      21 UNK        -0.5000 
    115 CA        -8.6798  -20.8837  -51.4261 C.3       21 UNK         0.1400 
    116 CB        -9.9277  -21.6635  -51.8918 C.3       21 UNK        -0.1800 
    117 C         -9.0083  -19.4484  -50.9653 C.2       21 UNK         0.5000 
    118 O         -9.9957  -18.8609  -51.4118 O.2       21 UNK        -0.5000 
    119 N         -8.1687  -18.9145  -50.0671 N.am      22 UNK        -0.5000 
    120 CA        -8.3386  -17.5870  -49.4418 C.3       22 UNK         0.1400 
    121 C         -9.5698  -17.4572  -48.4940 C.2       22 UNK         0.5000 
    122 N        -10.1782  -18.5437  -48.0330 N.am      22 UNK        -0.7600 
    123 O         -9.9814  -16.3459  -48.1720 O.2       22 UNK        -0.5000 
    124 C124       -7.0577  -17.1206  -48.6999 C.3       23 UNK        -0.0398 
    125 S125       -5.6076  -16.9888  -49.7928 S.3       23 UNK        -0.2404 
    126 C126       -4.3021  -16.6401  -48.5769 C.3       23 UNK        -0.0205 
    127 H127        4.3094  -18.4230  -49.9865 H         1 UNK         0.0600 
    128 H128        2.7137  -17.8995  -50.5155 H         1 UNK         0.0600 
    129 H129        3.4249  -17.2442  -49.0328 H         1 UNK         0.0600 
    130 H130        4.2847  -14.4929  -51.3525 H         1 UNK         0.3000 
    131 H131        2.0542  -15.4697  -49.7370 H         1 UNK         0.0600 
    132 H132        2.5847  -12.5488  -50.3626 H         1 UNK         0.0800 
    133 H133        2.0405  -13.5967  -51.6288 H         1 UNK         0.0800 
    134 H134       -1.4233  -13.7570  -51.5811 H         1 UNK         0.0800 
    135 H135        0.0229  -14.6271  -52.0067 H         1 UNK         0.0800 
    136 H136       -2.9913  -14.6264  -49.8804 H         1 UNK         0.1150 
    137 H137       -2.5729  -18.7196  -48.7015 H         1 UNK         0.1150 
    138 H138        0.5467  -16.8070  -50.9367 H         1 UNK         0.1150 
    139 H139       -0.7578  -20.0527  -49.7830 H         1 UNK         0.0800 
    140 H140        0.4925  -19.2495  -50.6818 H         1 UNK         0.0800 
    141 H141        0.3816  -19.0536  -46.0874 H         1 UNK         0.0800 
    142 H142       -1.0432  -19.0951  -47.0660 H         1 UNK         0.0800 
    143 H143        0.7668  -21.5427  -46.7221 H         1 UNK         0.0600 
    144 H144       -0.7593  -20.4398  -44.6295 H         1 UNK         0.3000 
    145 H145       -1.4194  -23.4970  -42.8625 H         1 UNK         0.0600 
    146 H146       -0.3701  -22.0127  -41.1166 H         1 UNK         0.0600 
    147 H147        0.8110  -22.7758  -42.1699 H         1 UNK         0.0600 
    148 H148        0.4088  -21.0841  -42.4000 H         1 UNK         0.0600 
    149 H149       -2.1246  -20.6848  -42.5799 H         1 UNK         0.3000 
    150 H150       -5.3225  -20.9846  -44.0862 H         1 UNK         0.0600 
    151 H151       -5.7633  -21.9676  -41.8311 H         1 UNK         0.0600 
    152 H152       -6.1627  -20.2580  -41.8684 H         1 UNK         0.0600 
    153 H153       -4.6729  -20.7997  -41.0941 H         1 UNK         0.0600 
    154 H154       -4.1059  -18.8942  -42.5721 H         1 UNK         0.3000 
    155 H155       -2.2538  -17.4165  -45.2202 H         1 UNK         0.0600 
    156 H156       -3.6445  -15.4734  -44.6605 H         1 UNK         0.0600 
    157 H157       -4.7868  -16.4861  -43.7763 H         1 UNK         0.0600 
    158 H158       -4.6279  -16.6480  -45.5186 H         1 UNK         0.0600 
    159 H159       -2.6311  -16.5183  -42.5794 H         1 UNK         0.3000 
    160 H160       -1.3985  -16.9041  -40.8446 H         1 UNK         0.0600 
    161 H161        0.3272  -19.4300  -40.7268 H         1 UNK         0.0600 
    162 H162       -1.4054  -19.4248  -40.4064 H         1 UNK         0.0600 
    163 H163       -0.3189  -18.5161  -39.3707 H         1 UNK         0.0600 
    164 H164        1.0940  -17.0112  -42.3252 H         1 UNK         0.3000 
    165 H165        2.6737  -14.6643  -40.0315 H         1 UNK         0.0600 
    166 H166        3.4892  -17.1150  -41.6778 H         1 UNK         0.0600 
    167 H167        4.5672  -15.8394  -41.1207 H         1 UNK         0.0600 
    168 H168        3.7543  -16.8770  -39.9592 H         1 UNK         0.0600 
    169 H169        2.6279  -15.1034  -42.9331 H         1 UNK         0.3000 
    170 H170        0.6343  -12.2759  -43.6212 H         1 UNK         0.0600 
    171 H171        2.7946  -11.1062  -43.3985 H         1 UNK         0.0600 
    172 H172        3.6621  -12.4888  -44.0466 H         1 UNK         0.0600 
    173 H173        2.5530  -11.5812  -45.0734 H         1 UNK         0.0600 
    174 H174        2.1221  -14.0971  -45.2735 H         1 UNK         0.3000 
    175 H175       -0.1147  -16.8075  -45.1185 H         1 UNK         0.0600 
    176 H176       -1.3768  -15.5213  -46.7601 H         1 UNK         0.0600 
    177 H177        0.0803  -14.7720  -47.3901 H         1 UNK         0.0600 
    178 H178       -0.1878  -16.4964  -47.6089 H         1 UNK         0.0600 
    179 H179        2.1892  -16.1001  -46.7146 H         1 UNK         0.3000 
    180 H180        4.5654  -17.4338  -44.4352 H         1 UNK         0.0600 
    181 H181        3.5647  -18.8052  -46.9833 H         1 UNK         0.0600 
    182 H182        3.5771  -19.5495  -45.3898 H         1 UNK         0.0600 
    183 H183        5.0915  -19.0964  -46.1568 H         1 UNK         0.0600 
    184 H184        4.6987  -16.6751  -47.2106 H         1 UNK         0.3000 
    185 H185        5.0956  -13.1840  -46.6695 H         1 UNK         0.0600 
    186 H186        7.2028  -13.5503  -47.9197 H         1 UNK         0.0600 
    187 H187        7.3879  -14.1031  -46.2633 H         1 UNK         0.0600 
    188 H188        7.1571  -15.2756  -47.5551 H         1 UNK         0.0600 
    189 H189        5.2476  -14.6770  -49.0606 H         1 UNK         0.3000 
    190 H190       -2.7806  -21.1209  -46.4561 H         1 UNK         0.3000 
    191 H191       -3.4735  -22.1725  -48.9920 H         1 UNK         0.0600 
    192 H192       -5.7484  -22.3528  -47.9817 H         1 UNK         0.0600 
    193 H193       -5.0032  -20.8069  -47.6061 H         1 UNK         0.0600 
    194 H194       -5.0675  -22.0755  -46.3826 H         1 UNK         0.0600 
    195 H195       -2.3052  -23.8838  -46.2115 H         1 UNK         0.3000 
    196 H196       -3.2897  -26.5038  -47.2325 H         1 UNK         0.0600 
    197 H197       -2.3616  -27.3818  -45.1121 H         1 UNK         0.0600 
    198 H198       -3.5140  -26.0923  -44.7976 H         1 UNK         0.0600 
    199 H199       -1.7868  -25.7815  -44.6623 H         1 UNK         0.0600 
    200 H200       -0.2539  -24.7568  -46.3891 H         1 UNK         0.3000 
    201 H201        1.4786  -26.8479  -47.2147 H         1 UNK         0.0600 
    202 H202        2.0758  -25.1926  -45.4814 H         1 UNK         0.0600 
    203 H203        2.0347  -23.8861  -46.6623 H         1 UNK         0.0600 
    204 H204        3.2564  -25.1475  -46.7822 H         1 UNK         0.0600 
    205 H205        0.6211  -23.7363  -48.8299 H         1 UNK         0.3000 
    206 H206        2.2099  -24.5052  -51.2290 H         1 UNK         0.0600 
    207 H207        2.5498  -22.2212  -50.2615 H         1 UNK         0.0600 
    208 H208        1.9091  -22.1687  -51.8954 H         1 UNK         0.0600 
    209 H209        0.8499  -21.8531  -50.5271 H         1 UNK         0.0600 
    210 H210       -1.0268  -23.4183  -50.2405 H         1 UNK         0.3000 
    211 H211       -3.0890  -23.6952  -50.9215 H         1 UNK         0.0600 
    212 H212       -2.1132  -26.2239  -52.3469 H         1 UNK         0.0600 
    213 H213       -3.7815  -25.8390  -51.9462 H         1 UNK         0.0600 
    214 H214       -2.6147  -26.1082  -50.6616 H         1 UNK         0.0600 
    215 H215       -1.1337  -24.4267  -53.8341 H         1 UNK         0.3000 
    216 H216       -3.0819  -23.4633  -55.7174 H         1 UNK         0.0600 
    217 H217       -0.0679  -23.9498  -56.0158 H         1 UNK         0.0600 
    218 H218       -1.3452  -25.1255  -56.3241 H         1 UNK         0.0600 
    219 H219       -1.1951  -23.7041  -57.3456 H         1 UNK         0.0600 
    220 H220       -0.4005  -21.9245  -54.0091 H         1 UNK         0.3000 
    221 H221       -0.4856  -19.4065  -55.4466 H         1 UNK         0.0600 
    222 H222        1.5752  -20.1443  -54.3157 H         1 UNK         0.0600 
    223 H223        1.0084  -18.6632  -53.5592 H         1 UNK         0.0600 
    224 H224        0.7496  -20.2100  -52.7615 H         1 UNK         0.0600 
    225 H225       -2.3080  -20.8042  -52.8110 H         1 UNK         0.3000 
    226 H226       -3.3550  -18.2662  -51.7796 H         1 UNK         0.0600 
    227 H227       -4.2844  -21.1349  -51.1739 H         1 UNK         0.0600 
    228 H228       -2.9674  -20.3417  -50.3329 H         1 UNK         0.0600 
    229 H229       -4.5940  -19.6918  -50.2339 H         1 UNK         0.0600 
    230 H230       -4.5637  -21.1417  -53.5310 H         1 UNK         0.3000 
    231 H231       -6.3047  -21.6118  -54.7967 H         1 UNK         0.0600 
    232 H232       -7.1235  -19.9933  -56.4589 H         1 UNK         0.0600 
    233 H233       -5.3766  -19.8640  -56.3280 H         1 UNK         0.0600 
    234 H234       -6.4113  -18.6503  -55.5764 H         1 UNK         0.0600 
    235 H235       -6.7610  -21.3468  -52.1530 H         1 UNK         0.3000 
    236 H236       -8.2823  -21.4136  -50.5589 H         1 UNK         0.0600 
    237 H237       -9.6747  -22.6910  -52.1527 H         1 UNK         0.0600 
    238 H238      -10.6760  -21.7042  -51.0995 H         1 UNK         0.0600 
    239 H239      -10.4013  -21.2053  -52.7603 H         1 UNK         0.0600 
    240 H240       -7.3653  -19.4440  -49.7649 H         1 UNK         0.3000 
    241 H241       -8.5181  -16.8794  -50.2537 H         1 UNK         0.0600 
    242 H242       -9.8543  -19.4632  -48.2846 H         1 UNK         0.3800 
    243 H243      -10.9756  -18.4435  -47.4244 H         1 UNK         0.3800 
    244 H244       -7.2113  -16.1400  -48.2450 H         1 UNK         0.0800 
    245 H245       -6.8242  -17.8059  -47.8832 H         1 UNK         0.0800 
    246 H246       -4.3484  -17.3799  -47.7763 H         1 UNK         0.0800 
    247 H247       -4.4776  -15.6667  -48.1167 H         1 UNK         0.0800 
@<TRIPOS>BOND
     1    1    2 1    
     2    1  127 1    
     3    1  128 1    
     4    1  129 1    
     5    2    3 2    
     6    2    4 am   BACKBONE|DICT|INTERRES
     7    4    5 1    
     8    4  130 1    
     9    5    6 1    
    10    5   65 1    
    11    5  131 1    
    12    6    7 1    
    13    6  132 1    
    14    6  133 1    
    15    7    8 1    
    16    8    9 1    
    17    8  134 1    
    18    8  135 1    
    19    9   10 ar   
    20    9   14 ar   
    21   10   11 ar   
    22   10  136 1    
    23   11   12 ar   
    24   11  126 1    
    25   12   13 ar   
    26   12  137 1    
    27   13   14 ar   
    28   13   15 1    
    29   14  138 1    
    30   15   16 1    
    31   15  139 1    
    32   15  140 1    
    33   16   17 1    
    34   17   18 1    
    35   17  141 1    
    36   17  142 1    
    37   18   19 1    
    38   18   67 1    
    39   18  143 1    
    40   19   20 am   BACKBONE|DICT|INTERRES
    41   19  144 1    
    42   20   21 2    
    43   20   22 1    
    44   22   23 1    
    45   22   24 1    
    46   22  145 1    
    47   23  146 1    
    48   23  147 1    
    49   23  148 1    
    50   24   25 am   BACKBONE|DICT|INTERRES
    51   24  149 1    
    52   25   26 2    
    53   25   27 1    
    54   27   28 1    
    55   27   29 1    
    56   27  150 1    
    57   28  151 1    
    58   28  152 1    
    59   28  153 1    
    60   29   30 am   BACKBONE|DICT|INTERRES
    61   29  154 1    
    62   30   31 2    
    63   30   32 1    
    64   32   33 1    
    65   32   34 1    
    66   32  155 1    
    67   33  156 1    
    68   33  157 1    
    69   33  158 1    
    70   34   35 am   BACKBONE|DICT|INTERRES
    71   34  159 1    
    72   35   36 2    
    73   35   37 1    
    74   37   38 1    
    75   37   39 1    
    76   37  160 1    
    77   38  161 1    
    78   38  162 1    
    79   38  163 1    
    80   39   40 am   BACKBONE|DICT|INTERRES
    81   39  164 1    
    82   40   41 2    
    83   40   42 1    
    84   42   43 1    
    85   42   44 1    
    86   42  165 1    
    87   43  166 1    
    88   43  167 1    
    89   43  168 1    
    90   44   45 am   BACKBONE|DICT|INTERRES
    91   44  169 1    
    92   45   46 2    
    93   45   47 1    
    94   47   48 1    
    95   47   49 1    
    96   47  170 1    
    97   48  171 1    
    98   48  172 1    
    99   48  173 1    
   100   49   50 am   BACKBONE|DICT|INTERRES
   101   49  174 1    
   102   50   51 2    
   103   50   52 1    
   104   52   53 1    
   105   52   54 1    
   106   52  175 1    
   107   53  176 1    
   108   53  177 1    
   109   53  178 1    
   110   54   55 am   BACKBONE|DICT|INTERRES
   111   54  179 1    
   112   55   56 2    
   113   55   57 1    
   114   57   58 1    
   115   57   59 1    
   116   57  180 1    
   117   58  181 1    
   118   58  182 1    
   119   58  183 1    
   120   59   60 am   BACKBONE|DICT|INTERRES
   121   59  184 1    
   122   60   61 2    
   123   60   62 1    
   124   62   63 1    
   125   62   64 1    
   126   62  185 1    
   127   63  186 1    
   128   63  187 1    
   129   63  188 1    
   130   64   65 am   BACKBONE|DICT|INTERRES
   131   64  189 1    
   132   65   66 2    
   133   67   68 2    
   134   67   69 am   BACKBONE|DICT|INTERRES
   135   69   70 1    
   136   69  190 1    
   137   70   71 1    
   138   70   72 1    
   139   70  191 1    
   140   71  192 1    
   141   71  193 1    
   142   71  194 1    
   143   72   73 2    
   144   72   74 am   BACKBONE|DICT|INTERRES
   145   74   75 1    
   146   74  195 1    
   147   75   76 1    
   148   75   77 1    
   149   75  196 1    
   150   76  197 1    
   151   76  198 1    
   152   76  199 1    
   153   77   78 2    
   154   77   79 am   BACKBONE|DICT|INTERRES
   155   79   80 1    
   156   79  200 1    
   157   80   81 1    
   158   80   82 1    
   159   80  201 1    
   160   81  202 1    
   161   81  203 1    
   162   81  204 1    
   163   82   83 2    
   164   82   84 am   BACKBONE|DICT|INTERRES
   165   84   85 1    
   166   84  205 1    
   167   85   86 1    
   168   85   87 1    
   169   85  206 1    
   170   86  207 1    
   171   86  208 1    
   172   86  209 1    
   173   87   88 2    
   174   87   89 am   BACKBONE|DICT|INTERRES
   175   89   90 1    
   176   89  210 1    
   177   90   91 1    
   178   90   92 1    
   179   90  211 1    
   180   91  212 1    
   181   91  213 1    
   182   91  214 1    
   183   92   93 2    
   184   92   94 am   BACKBONE|DICT|INTERRES
   185   94   95 1    
   186   94  215 1    
   187   95   96 1    
   188   95   97 1    
   189   95  216 1    
   190   96  217 1    
   191   96  218 1    
   192   96  219 1    
   193   97   98 2    
   194   97   99 am   BACKBONE|DICT|INTERRES
   195   99  100 1    
   196   99  220 1    
   197  100  101 1    
   198  100  102 1    
   199  100  221 1    
   200  101  222 1    
   201  101  223 1    
   202  101  224 1    
   203  102  103 2    
   204  102  104 am   BACKBONE|DICT|INTERRES
   205  104  105 1    
   206  104  225 1    
   207  105  106 1    
   208  105  107 1    
   209  105  226 1    
   210  106  227 1    
   211  106  228 1    
   212  106  229 1    
   213  107  108 2    
   214  107  109 am   BACKBONE|DICT|INTERRES
   215  109  110 1    
   216  109  230 1    
   217  110  111 1    
   218  110  112 1    
   219  110  231 1    
   220  111  232 1    
   221  111  233 1    
   222  111  234 1    
   223  112  113 2    
   224  112  114 am   BACKBONE|DICT|INTERRES
   225  114  115 1    
   226  114  235 1    
   227  115  116 1    
   228  115  117 1    
   229  115  236 1    
   230  116  237 1    
   231  116  238 1    
   232  116  239 1    
   233  117  118 2    
   234  117  119 am   BACKBONE|DICT|INTERRES
   235  119  120 1    
   236  119  240 1    
   237  120  121 1    
   238  120  124 1    
   239  120  241 1    
   240  121  122 am   BACKBONE|DICT|INTERRES
   241  121  123 2    
   242  122  242 1    
   243  122  243 1    
   244  124  125 1    
   245  124  244 1    
   246  124  245 1    
   247  125  126 1    
   248  126  246 1    
   249  126  247 1    
@<TRIPOS>SUBSTRUCTURE
     1 UNK         1 GROUP             0       ****    0 ROOT    
