@<TRIPOS>MOLECULE
3R540
247   249    1
SMALL
USER_CHARGES


@<TRIPOS>ATOM
      1 CA          3.0404  -14.8262  -52.5055 C.3       0 UNK        -0.1800 
      2 C           2.4549  -14.7430  -51.1032 C.2       0 UNK         0.5000 
      3 O           1.7502  -13.7834  -50.7898 O.2       0 UNK        -0.5000 
      4 N           2.7515  -15.7381  -50.2599 N.am      1 UNK        -0.5000 
      5 CA          2.2193  -15.8631  -48.9006 C.3       1 UNK         0.1400 
      6 C6          3.0587  -16.8181  -48.0117 C.3       23 UNK        -0.0398 
      7 S7          4.8428  -16.4324  -47.9685 S.3       23 UNK        -0.2404 
      8 C8          5.5700  -18.0961  -47.7120 C.3       23 UNK        -0.0205 
      9 C9          5.4173  -19.0900  -48.8689 C.ar      23 UNK        -0.0193 
     10 C10         5.0501  -18.6892  -50.1589 C.ar      23 UNK        -0.1150 
     11 C11         4.8733  -19.6248  -51.1799 C.ar      23 UNK        -0.0193 
     12 C12         5.1160  -20.9755  -50.9251 C.ar      23 UNK        -0.1150 
     13 C13         5.5332  -21.3924  -49.6587 C.ar      23 UNK        -0.0193 
     14 C14         5.6698  -20.4476  -48.6345 C.ar      23 UNK        -0.1150 
     15 C15         5.8712  -22.8586  -49.4173 C.3       23 UNK        -0.0205 
     16 S16         4.6948  -23.6942  -48.3088 S.3       23 UNK        -0.2404 
     17 C17         3.1260  -23.5492  -49.2349 C.3       23 UNK        -0.0398 
     18 CA          1.9419  -24.2740  -48.5405 C.3       11 UNK         0.1400 
     19 N           1.8734  -23.9409  -47.1163 N.am      11 UNK        -0.5000 
     20 C           1.0200  -24.4246  -46.2045 C.2       10 UNK         0.5000 
     21 O           0.1572  -25.2680  -46.4404 O.2       10 UNK        -0.5000 
     22 CA          1.1064  -23.7781  -44.8058 C.3       10 UNK         0.1400 
     23 CB          2.1272  -24.5193  -43.9304 C.3       10 UNK        -0.1800 
     24 N           1.4570  -22.3523  -44.8643 N.am      10 UNK        -0.5000 
     25 C           0.7634  -21.4377  -45.5546 C.2       9 UNK         0.5000 
     26 O          -0.3058  -21.6791  -46.1178 O.2       9 UNK        -0.5000 
     27 CA          1.3871  -20.0447  -45.6559 C.3       9 UNK         0.1400 
     28 CB          0.6999  -19.1678  -46.7190 C.3       9 UNK        -0.1800 
     29 N           1.3264  -19.4007  -44.3493 N.am      9 UNK        -0.5000 
     30 C           2.1993  -18.4758  -43.9402 C.2       8 UNK         0.5000 
     31 O           3.1683  -18.1068  -44.6087 O.2       8 UNK        -0.5000 
     32 CA          1.9695  -17.8725  -42.5458 C.3       8 UNK         0.1400 
     33 CB          2.8205  -18.5996  -41.4936 C.3       8 UNK        -0.1800 
     34 N           2.3459  -16.4621  -42.5759 N.am      8 UNK        -0.5000 
     35 C           1.5291  -15.4757  -42.9617 C.2       7 UNK         0.5000 
     36 O           0.3140  -15.6225  -43.1047 O.2       7 UNK        -0.5000 
     37 CA          2.1776  -14.0928  -43.1894 C.3       7 UNK         0.1400 
     38 CB          3.6012  -14.1795  -43.7868 C.3       7 UNK        -0.1800 
     39 N           1.3355  -13.2010  -43.9922 N.am      7 UNK        -0.5000 
     40 C           0.9675  -13.3476  -45.2725 C.2       6 UNK         0.5000 
     41 O           1.3144  -14.2812  -46.0010 O.2       6 UNK        -0.5000 
     42 CA          0.0385  -12.2459  -45.8174 C.3       6 UNK         0.1400 
     43 CB          0.0009  -12.2090  -47.3557 C.3       6 UNK        -0.1800 
     44 N          -1.3248  -12.3975  -45.3091 N.am      6 UNK        -0.5000 
     45 C          -1.7409  -12.0356  -44.0900 C.2       5 UNK         0.5000 
     46 O          -1.0007  -11.5349  -43.2410 O.2       5 UNK        -0.5000 
     47 CA         -3.2331  -12.2208  -43.7763 C.3       5 UNK         0.1400 
     48 CB         -4.0555  -11.1182  -44.4759 C.3       5 UNK        -0.1800 
     49 N          -3.7462  -13.5529  -44.1229 N.am      5 UNK        -0.5000 
     50 C          -4.9101  -14.0322  -43.6499 C.2       4 UNK         0.5000 
     51 O          -5.6189  -13.4141  -42.8533 O.2       4 UNK        -0.5000 
     52 CA         -5.4030  -15.4130  -44.1338 C.3       4 UNK         0.1400 
     53 CB         -6.4032  -15.2429  -45.2867 C.3       4 UNK        -0.1800 
     54 N          -4.3421  -16.3191  -44.5612 N.am      4 UNK        -0.5000 
     55 C          -3.4156  -16.8527  -43.7549 C.2       3 UNK         0.5000 
     56 O          -3.4114  -16.7062  -42.5321 O.2       3 UNK        -0.5000 
     57 CA         -2.2993  -17.6845  -44.4207 C.3       3 UNK         0.1400 
     58 CB         -2.5530  -19.1882  -44.2261 C.3       3 UNK        -0.1800 
     59 N          -2.0891  -17.4253  -45.8491 N.am      3 UNK        -0.5000 
     60 C          -1.8121  -16.2392  -46.4044 C.2       2 UNK         0.5000 
     61 O          -1.8134  -15.1742  -45.7893 O.2       2 UNK        -0.5000 
     62 CA         -1.4823  -16.2372  -47.8984 C.3       2 UNK         0.1400 
     63 CB         -2.3700  -15.2441  -48.6722 C.3       2 UNK        -0.1800 
     64 N          -0.0778  -15.8659  -48.0338 N.am      2 UNK        -0.5000 
     65 C           0.7537  -16.3426  -48.9650 C.2       1 UNK         0.5000 
     66 O           0.4177  -17.1568  -49.8307 O.2       1 UNK        -0.5000 
     67 C           0.6254  -23.9569  -49.2843 C.2       11 UNK         0.5000 
     68 O           0.2196  -24.7243  -50.1570 O.2       11 UNK        -0.5000 
     69 N          -0.0144  -22.8353  -48.9198 N.am      12 UNK        -0.5000 
     70 CA         -1.2970  -22.3999  -49.4666 C.3       12 UNK         0.1400 
     71 CB         -1.4091  -20.8700  -49.3638 C.3       12 UNK        -0.1800 
     72 C          -2.4618  -23.0794  -48.7321 C.2       12 UNK         0.5000 
     73 O          -3.3951  -23.5510  -49.3795 O.2       12 UNK        -0.5000 
     74 N          -2.3856  -23.1403  -47.3954 N.am      13 UNK        -0.5000 
     75 CA         -3.4096  -23.7241  -46.5275 C.3       13 UNK         0.1400 
     76 CB         -3.0417  -23.4763  -45.0587 C.3       13 UNK        -0.1800 
     77 C          -3.6576  -25.2206  -46.7919 C.2       13 UNK         0.5000 
     78 O          -4.8131  -25.6446  -46.8010 O.2       13 UNK        -0.5000 
     79 N          -2.5884  -25.9797  -47.0736 N.am      14 UNK        -0.5000 
     80 CA         -2.6466  -27.3934  -47.4619 C.3       14 UNK         0.1400 
     81 CB         -1.2230  -27.9691  -47.4948 C.3       14 UNK        -0.1800 
     82 C          -3.3516  -27.6378  -48.8120 C.2       14 UNK         0.5000 
     83 O          -3.9004  -28.7202  -49.0204 O.2       14 UNK        -0.5000 
     84 N          -3.3438  -26.6273  -49.6910 N.am      15 UNK        -0.5000 
     85 CA         -4.0404  -26.6217  -50.9777 C.3       15 UNK         0.1400 
     86 CB         -3.1836  -25.8408  -51.9894 C.3       15 UNK        -0.1800 
     87 C          -5.4576  -26.0178  -50.8777 C.2       15 UNK         0.5000 
     88 O          -6.1389  -25.9274  -51.8997 O.2       15 UNK        -0.5000 
     89 N          -5.8673  -25.5944  -49.6695 N.am      16 UNK        -0.5000 
     90 CA         -7.0988  -24.8633  -49.3458 C.3       16 UNK         0.1400 
     91 CB         -8.3475  -25.7309  -49.6074 C.3       16 UNK        -0.1800 
     92 C          -7.1684  -23.4766  -50.0239 C.2       16 UNK         0.5000 
     93 O          -8.2569  -22.9890  -50.3321 O.2       16 UNK        -0.5000 
     94 N          -5.9976  -22.8631  -50.2336 N.am      17 UNK        -0.5000 
     95 CA         -5.7967  -21.5956  -50.9310 C.3       17 UNK         0.1400 
     96 CB         -4.7608  -21.8215  -52.0476 C.3       17 UNK        -0.1800 
     97 C          -5.3535  -20.4843  -49.9605 C.2       17 UNK         0.5000 
     98 O          -4.7290  -19.5167  -50.3922 O.2       17 UNK        -0.5000 
     99 N          -5.6838  -20.6203  -48.6676 N.am      18 UNK        -0.5000 
    100 CA        -5.2706  -19.7358  -47.5699 C.3       18 UNK         0.1400 
    101 CB        -5.9191  -20.2220  -46.2648 C.3       18 UNK        -0.1800 
    102 C         -5.5639  -18.2356  -47.7777 C.2       18 UNK         0.5000 
    103 O         -4.7799  -17.4054  -47.3194 O.2       18 UNK        -0.5000 
    104 N         -6.6673  -17.9203  -48.4677 N.am      19 UNK        -0.5000 
    105 CA        -7.0690  -16.5551  -48.8190 C.3       19 UNK         0.1400 
    106 CB        -8.5692  -16.3984  -48.5228 C.3       19 UNK        -0.1800 
    107 C         -6.7678  -16.1979  -50.2890 C.2       19 UNK         0.5000 
    108 O         -6.8938  -15.0295  -50.6570 O.2       19 UNK        -0.5000 
    109 N         -6.3927  -17.1911  -51.1060 N.am      20 UNK        -0.5000 
    110 CA        -6.0911  -17.0373  -52.5328 C.3       20 UNK         0.1400 
    111 CB        -6.6365  -18.2623  -53.2836 C.3       20 UNK        -0.1800 
    112 C         -4.5841  -16.8612  -52.8069 C.2       20 UNK         0.5000 
    113 O         -4.2260  -16.4307  -53.9039 O.2       20 UNK        -0.5000 
    114 N         -3.7513  -17.1876  -51.8082 N.am      21 UNK        -0.5000 
    115 CA        -2.2879  -17.2413  -51.8010 C.3       21 UNK         0.1400 
    116 CB        -1.6444  -15.9641  -52.3865 C.3       21 UNK        -0.1800 
    117 C         -1.7387  -18.5169  -52.4638 C.2       21 UNK         0.5000 
    118 O         -2.4695  -19.2565  -53.1254 O.2       21 UNK        -0.5000 
    119 N         -0.4398  -18.7494  -52.2505 N.am      22 UNK        -0.5000 
    120 CA         0.3308  -19.9038  -52.7434 C.3       22 UNK         0.1400 
    121 C          0.4164  -20.0819  -54.2914 C.2       22 UNK         0.5000 
    122 N          0.0738  -19.0873  -55.1009 N.am      22 UNK        -0.7600 
    123 O          0.7992  -21.1487  -54.7639 O.2       22 UNK        -0.5000 
    124 C124        1.7377  -19.9385  -52.0935 C.3       23 UNK        -0.0398 
    125 S125        2.7425  -18.4652  -52.4991 S.3       23 UNK        -0.2404 
    126 C126        4.4194  -19.1660  -52.5561 C.3       23 UNK        -0.0205 
    127 H127        2.2638  -15.1014  -53.2192 H         1 UNK         0.0600 
    128 H128        3.8390  -15.5661  -52.5656 H         1 UNK         0.0600 
    129 H129        3.4528  -13.8615  -52.8013 H         1 UNK         0.0600 
    130 H130        3.2756  -16.5313  -50.5969 H         1 UNK         0.3000 
    131 H131        2.2401  -14.8725  -48.4416 H         1 UNK         0.0600 
    132 H132        2.7059  -16.7650  -46.9810 H         1 UNK         0.0800 
    133 H133        2.9266  -17.8526  -48.3331 H         1 UNK         0.0800 
    134 H134        6.6343  -17.9735  -47.5078 H         1 UNK         0.0800 
    135 H135        5.1302  -18.5226  -46.8086 H         1 UNK         0.0800 
    136 H136        4.8827  -17.6474  -50.3822 H         1 UNK         0.1150 
    137 H137        4.9965  -21.7005  -51.7180 H         1 UNK         0.1150 
    138 H138        5.9816  -20.7728  -47.6516 H         1 UNK         0.1150 
    139 H139        5.9196  -23.4064  -50.3597 H         1 UNK         0.0800 
    140 H140        6.8684  -22.9228  -48.9799 H         1 UNK         0.0800 
    141 H141        2.9088  -22.4856  -49.3531 H         1 UNK         0.0800 
    142 H142        3.2760  -23.9471  -50.2402 H         1 UNK         0.0800 
    143 H143        2.1085  -25.3510  -48.6097 H         1 UNK         0.0600 
    144 H144        2.5637  -23.2754  -46.8017 H         1 UNK         0.3000 
    145 H145        0.1266  -23.8631  -44.3346 H         1 UNK         0.0600 
    146 H146        2.1438  -24.1172  -42.9173 H         1 UNK         0.0600 
    147 H147        3.1364  -24.4473  -44.3379 H         1 UNK         0.0600 
    148 H148        1.8785  -25.5787  -43.8542 H         1 UNK         0.0600 
    149 H149        2.3135  -22.0759  -44.4060 H         1 UNK         0.3000 
    150 H150        2.4314  -20.1784  -45.9478 H         1 UNK         0.0600 
    151 H151        0.9878  -19.4751  -47.7248 H         1 UNK         0.0600 
    152 H152        0.9639  -18.1208  -46.5997 H         1 UNK         0.0600 
    153 H153       -0.3836  -19.2290  -46.6608 H         1 UNK         0.0600 
    154 H154        0.5802  -19.7007  -43.7374 H         1 UNK         0.3000 
    155 H155        0.9164  -17.9740  -42.2742 H         1 UNK         0.0600 
    156 H156        2.6701  -18.1720  -40.5021 H         1 UNK         0.0600 
    157 H157        3.8851  -18.5432  -41.7250 H         1 UNK         0.0600 
    158 H158        2.5523  -19.6552  -41.4363 H         1 UNK         0.0600 
    159 H159        3.3356  -16.2712  -42.5202 H         1 UNK         0.3000 
    160 H160        2.2554  -13.6258  -42.2068 H         1 UNK         0.0600 
    161 H161        3.6227  -14.7759  -44.7003 H         1 UNK         0.0600 
    162 H162        4.3023  -14.6299  -43.0838 H         1 UNK         0.0600 
    163 H163        3.9881  -13.1892  -44.0273 H         1 UNK         0.0600 
    164 H164        0.8872  -12.4504  -43.4788 H         1 UNK         0.3000 
    165 H165        0.4350  -11.2851  -45.4822 H         1 UNK         0.0600 
    166 H166       -0.4201  -13.1208  -47.7748 H         1 UNK         0.0600 
    167 H167       -0.5960  -11.3706  -47.7147 H         1 UNK         0.0600 
    168 H168        1.0040  -12.0939  -47.7685 H         1 UNK         0.0600 
    169 H169       -1.9631  -12.8970  -45.9113 H         1 UNK         0.3000 
    170 H170       -3.3369  -12.0895  -42.6969 H         1 UNK         0.0600 
    171 H171       -3.6384  -10.1304  -44.2751 H         1 UNK         0.0600 
    172 H172       -4.0698  -11.2548  -45.5578 H         1 UNK         0.0600 
    173 H173       -5.0882  -11.1024  -44.1286 H         1 UNK         0.0600 
    174 H174       -3.1585  -14.1416  -44.7079 H         1 UNK         0.3000 
    175 H175       -5.9261  -15.8842  -43.2991 H         1 UNK         0.0600 
    176 H176       -5.9302  -14.7864  -46.1568 H         1 UNK         0.0600 
    177 H177       -6.8216  -16.2020  -45.5923 H         1 UNK         0.0600 
    178 H178       -7.2371  -14.6043  -44.9929 H         1 UNK         0.0600 
    179 H179       -4.2926  -16.5266  -45.5537 H         1 UNK         0.3000 
    180 H180       -1.3695  -17.4328  -43.9101 H         1 UNK         0.0600 
    181 H181       -3.4403  -19.5185  -44.7642 H         1 UNK         0.0600 
    182 H182       -2.6994  -19.4294  -43.1724 H         1 UNK         0.0600 
    183 H183       -1.7117  -19.7833  -44.5781 H         1 UNK         0.0600 
    184 H184       -2.1253  -18.2347  -46.4482 H         1 UNK         0.3000 
    185 H185       -1.6425  -17.2405  -48.2991 H         1 UNK         0.0600 
    186 H186       -3.3942  -15.6105  -48.7419 H         1 UNK         0.0600 
    187 H187       -2.4083  -14.2645  -48.1964 H         1 UNK         0.0600 
    188 H188       -2.0069  -15.0953  -49.6867 H         1 UNK         0.0600 
    189 H189        0.2855  -15.2529  -47.3048 H         1 UNK         0.3000 
    190 H190        0.3397  -22.3056  -48.1356 H         1 UNK         0.3000 
    191 H191       -1.3498  -22.6728  -50.5229 H         1 UNK         0.0600 
    192 H192       -2.2757  -20.5091  -49.9169 H         1 UNK         0.0600 
    193 H193       -0.5327  -20.3757  -49.7813 H         1 UNK         0.0600 
    194 H194       -1.5190  -20.5365  -48.3322 H         1 UNK         0.0600 
    195 H195       -1.5933  -22.7034  -46.9300 H         1 UNK         0.3000 
    196 H196       -4.3438  -23.1988  -46.7344 H         1 UNK         0.0600 
    197 H197       -3.8337  -23.8243  -44.3946 H         1 UNK         0.0600 
    198 H198       -2.8925  -22.4145  -44.8610 H         1 UNK         0.0600 
    199 H199       -2.1285  -24.0020  -44.7829 H         1 UNK         0.0600 
    200 H200       -1.6601  -25.5702  -47.0034 H         1 UNK         0.3000 
    201 H201       -3.2132  -27.9275  -46.6964 H         1 UNK         0.0600 
    202 H202       -0.7483  -27.9011  -46.5158 H         1 UNK         0.0600 
    203 H203       -0.5931  -27.4389  -48.2105 H         1 UNK         0.0600 
    204 H204       -1.2306  -29.0224  -47.7783 H         1 UNK         0.0600 
    205 H205       -2.8996  -25.7574  -49.4270 H         1 UNK         0.3000 
    206 H206       -4.1471  -27.6445  -51.3443 H         1 UNK         0.0600 
    207 H207       -2.1800  -26.2601  -52.0634 H         1 UNK         0.0600 
    208 H208       -3.6236  -25.8765  -52.9867 H         1 UNK         0.0600 
    209 H209       -3.0865  -24.7905  -51.7136 H         1 UNK         0.0600 
    210 H210       -5.2366  -25.7252  -48.8878 H         1 UNK         0.3000 
    211 H211       -7.0574  -24.6685  -48.2734 H         1 UNK         0.0600 
    212 H212       -8.5072  -25.9049  -50.6717 H         1 UNK         0.0600 
    213 H213       -9.2455  -25.2497  -49.2184 H         1 UNK         0.0600 
    214 H214       -8.2628  -26.7008  -49.1171 H         1 UNK         0.0600 
    215 H215       -5.1421  -23.3173  -49.9185 H         1 UNK         0.3000 
    216 H216       -6.7273  -21.2626  -51.3938 H         1 UNK         0.0600 
    217 H217       -4.6287  -20.9276  -52.6569 H         1 UNK         0.0600 
    218 H218       -5.0715  -22.6245  -52.7162 H         1 UNK         0.0600 
    219 H219       -3.7826  -22.0838  -51.6440 H         1 UNK         0.0600 
    220 H220       -6.2134  -21.4391  -48.4085 H         1 UNK         0.3000 
    221 H221       -4.1879  -19.8349  -47.4692 H         1 UNK         0.0600 
    222 H222       -7.0050  -20.2729  -46.3522 H         1 UNK         0.0600 
    223 H223       -5.5573  -21.2115  -45.9868 H         1 UNK         0.0600 
    224 H224       -5.6942  -19.5504  -45.4352 H         1 UNK         0.0600 
    225 H225       -7.2675  -18.6676  -48.7846 H         1 UNK         0.3000 
    226 H226       -6.5288  -15.8321  -48.2063 H         1 UNK         0.0600 
    227 H227       -8.7842  -16.5930  -47.4719 H         1 UNK         0.0600 
    228 H228       -8.9088  -15.3846  -48.7392 H         1 UNK         0.0600 
    229 H229       -9.1718  -17.0823  -49.1216 H         1 UNK         0.0600 
    230 H230       -6.2159  -18.1048  -50.7098 H         1 UNK         0.3000 
    231 H231       -6.5980  -16.1534  -52.9255 H         1 UNK         0.0600 
    232 H232       -6.4571  -18.1761  -54.3560 H         1 UNK         0.0600 
    233 H233       -7.7123  -18.3656  -53.1413 H         1 UNK         0.0600 
    234 H234       -6.1630  -19.1830  -52.9458 H         1 UNK         0.0600 
    235 H235       -4.1790  -17.6560  -51.0181 H         1 UNK         0.3000 
    236 H236       -2.0223  -17.3029  -50.7467 H         1 UNK         0.0600 
    237 H237       -2.1368  -15.0627  -52.0231 H         1 UNK         0.0600 
    238 H238       -0.5928  -15.8930  -52.1067 H         1 UNK         0.0600 
    239 H239       -1.6880  -15.9500  -53.4758 H         1 UNK         0.0600 
    240 H240        0.0721  -18.1059  -51.6550 H         1 UNK         0.3000 
    241 H241       -0.2031  -20.7870  -52.3880 H         1 UNK         0.0600 
    242 H242       -0.2498  -18.2125  -54.7223 H         1 UNK         0.3800 
    243 H243        0.1299  -19.2153  -56.0987 H         1 UNK         0.3800 
    244 H244        1.6456  -19.9931  -51.0078 H         1 UNK         0.0800 
    245 H245        2.2711  -20.8434  -52.3897 H         1 UNK         0.0800 
    246 H246        5.1091  -18.4053  -52.9244 H         1 UNK         0.0800 
    247 H247        4.4485  -19.9840  -53.2776 H         1 UNK         0.0800 
@<TRIPOS>BOND
     1    1    2 1    
     2    1  127 1    
     3    1  128 1    
     4    1  129 1    
     5    2    3 2    
     6    2    4 am   BACKBONE|DICT|INTERRES
     7    4    5 1    
     8    4  130 1    
     9    5    6 1    
    10    5   65 1    
    11    5  131 1    
    12    6    7 1    
    13    6  132 1    
    14    6  133 1    
    15    7    8 1    
    16    8    9 1    
    17    8  134 1    
    18    8  135 1    
    19    9   10 ar   
    20    9   14 ar   
    21   10   11 ar   
    22   10  136 1    
    23   11   12 ar   
    24   11  126 1    
    25   12   13 ar   
    26   12  137 1    
    27   13   14 ar   
    28   13   15 1    
    29   14  138 1    
    30   15   16 1    
    31   15  139 1    
    32   15  140 1    
    33   16   17 1    
    34   17   18 1    
    35   17  141 1    
    36   17  142 1    
    37   18   19 1    
    38   18   67 1    
    39   18  143 1    
    40   19   20 am   BACKBONE|DICT|INTERRES
    41   19  144 1    
    42   20   21 2    
    43   20   22 1    
    44   22   23 1    
    45   22   24 1    
    46   22  145 1    
    47   23  146 1    
    48   23  147 1    
    49   23  148 1    
    50   24   25 am   BACKBONE|DICT|INTERRES
    51   24  149 1    
    52   25   26 2    
    53   25   27 1    
    54   27   28 1    
    55   27   29 1    
    56   27  150 1    
    57   28  151 1    
    58   28  152 1    
    59   28  153 1    
    60   29   30 am   BACKBONE|DICT|INTERRES
    61   29  154 1    
    62   30   31 2    
    63   30   32 1    
    64   32   33 1    
    65   32   34 1    
    66   32  155 1    
    67   33  156 1    
    68   33  157 1    
    69   33  158 1    
    70   34   35 am   BACKBONE|DICT|INTERRES
    71   34  159 1    
    72   35   36 2    
    73   35   37 1    
    74   37   38 1    
    75   37   39 1    
    76   37  160 1    
    77   38  161 1    
    78   38  162 1    
    79   38  163 1    
    80   39   40 am   BACKBONE|DICT|INTERRES
    81   39  164 1    
    82   40   41 2    
    83   40   42 1    
    84   42   43 1    
    85   42   44 1    
    86   42  165 1    
    87   43  166 1    
    88   43  167 1    
    89   43  168 1    
    90   44   45 am   BACKBONE|DICT|INTERRES
    91   44  169 1    
    92   45   46 2    
    93   45   47 1    
    94   47   48 1    
    95   47   49 1    
    96   47  170 1    
    97   48  171 1    
    98   48  172 1    
    99   48  173 1    
   100   49   50 am   BACKBONE|DICT|INTERRES
   101   49  174 1    
   102   50   51 2    
   103   50   52 1    
   104   52   53 1    
   105   52   54 1    
   106   52  175 1    
   107   53  176 1    
   108   53  177 1    
   109   53  178 1    
   110   54   55 am   BACKBONE|DICT|INTERRES
   111   54  179 1    
   112   55   56 2    
   113   55   57 1    
   114   57   58 1    
   115   57   59 1    
   116   57  180 1    
   117   58  181 1    
   118   58  182 1    
   119   58  183 1    
   120   59   60 am   BACKBONE|DICT|INTERRES
   121   59  184 1    
   122   60   61 2    
   123   60   62 1    
   124   62   63 1    
   125   62   64 1    
   126   62  185 1    
   127   63  186 1    
   128   63  187 1    
   129   63  188 1    
   130   64   65 am   BACKBONE|DICT|INTERRES
   131   64  189 1    
   132   65   66 2    
   133   67   68 2    
   134   67   69 am   BACKBONE|DICT|INTERRES
   135   69   70 1    
   136   69  190 1    
   137   70   71 1    
   138   70   72 1    
   139   70  191 1    
   140   71  192 1    
   141   71  193 1    
   142   71  194 1    
   143   72   73 2    
   144   72   74 am   BACKBONE|DICT|INTERRES
   145   74   75 1    
   146   74  195 1    
   147   75   76 1    
   148   75   77 1    
   149   75  196 1    
   150   76  197 1    
   151   76  198 1    
   152   76  199 1    
   153   77   78 2    
   154   77   79 am   BACKBONE|DICT|INTERRES
   155   79   80 1    
   156   79  200 1    
   157   80   81 1    
   158   80   82 1    
   159   80  201 1    
   160   81  202 1    
   161   81  203 1    
   162   81  204 1    
   163   82   83 2    
   164   82   84 am   BACKBONE|DICT|INTERRES
   165   84   85 1    
   166   84  205 1    
   167   85   86 1    
   168   85   87 1    
   169   85  206 1    
   170   86  207 1    
   171   86  208 1    
   172   86  209 1    
   173   87   88 2    
   174   87   89 am   BACKBONE|DICT|INTERRES
   175   89   90 1    
   176   89  210 1    
   177   90   91 1    
   178   90   92 1    
   179   90  211 1    
   180   91  212 1    
   181   91  213 1    
   182   91  214 1    
   183   92   93 2    
   184   92   94 am   BACKBONE|DICT|INTERRES
   185   94   95 1    
   186   94  215 1    
   187   95   96 1    
   188   95   97 1    
   189   95  216 1    
   190   96  217 1    
   191   96  218 1    
   192   96  219 1    
   193   97   98 2    
   194   97   99 am   BACKBONE|DICT|INTERRES
   195   99  100 1    
   196   99  220 1    
   197  100  101 1    
   198  100  102 1    
   199  100  221 1    
   200  101  222 1    
   201  101  223 1    
   202  101  224 1    
   203  102  103 2    
   204  102  104 am   BACKBONE|DICT|INTERRES
   205  104  105 1    
   206  104  225 1    
   207  105  106 1    
   208  105  107 1    
   209  105  226 1    
   210  106  227 1    
   211  106  228 1    
   212  106  229 1    
   213  107  108 2    
   214  107  109 am   BACKBONE|DICT|INTERRES
   215  109  110 1    
   216  109  230 1    
   217  110  111 1    
   218  110  112 1    
   219  110  231 1    
   220  111  232 1    
   221  111  233 1    
   222  111  234 1    
   223  112  113 2    
   224  112  114 am   BACKBONE|DICT|INTERRES
   225  114  115 1    
   226  114  235 1    
   227  115  116 1    
   228  115  117 1    
   229  115  236 1    
   230  116  237 1    
   231  116  238 1    
   232  116  239 1    
   233  117  118 2    
   234  117  119 am   BACKBONE|DICT|INTERRES
   235  119  120 1    
   236  119  240 1    
   237  120  121 1    
   238  120  124 1    
   239  120  241 1    
   240  121  122 am   BACKBONE|DICT|INTERRES
   241  121  123 2    
   242  122  242 1    
   243  122  243 1    
   244  124  125 1    
   245  124  244 1    
   246  124  245 1    
   247  125  126 1    
   248  126  246 1    
   249  126  247 1    
@<TRIPOS>SUBSTRUCTURE
     1 UNK         1 GROUP             0       ****    0 ROOT    
