@<TRIPOS>MOLECULE
3R540
247   249    1
SMALL
USER_CHARGES


@<TRIPOS>ATOM
      1 CA         -0.6074   -9.3944  -49.8129 C.3       0 UNK        -0.1800 
      2 C          -0.1311  -10.2684  -48.6614 C.2       0 UNK         0.5000 
      3 O           0.1631   -9.7527  -47.5831 O.2       0 UNK        -0.5000 
      4 N          -0.0498  -11.5855  -48.8897 N.am      1 UNK        -0.5000 
      5 CA          0.3341  -12.5991  -47.8995 C.3       1 UNK         0.1400 
      6 C6          0.6382  -13.9664  -48.5675 C.3       23 UNK        -0.0398 
      7 S7         -0.7393  -14.6075  -49.5904 S.3       23 UNK        -0.2404 
      8 C8         -0.6248  -16.3975  -49.3033 C.3       23 UNK        -0.0205 
      9 C9          0.4389  -17.0289  -50.1852 C.ar      23 UNK        -0.0193 
     10 C10         0.1709  -17.2592  -51.5378 C.ar      23 UNK        -0.1150 
     11 C11         1.1427  -17.8184  -52.3712 C.ar      23 UNK        -0.0193 
     12 C12         2.3909  -18.1506  -51.8372 C.ar      23 UNK        -0.1150 
     13 C13         2.6655  -17.9430  -50.4826 C.ar      23 UNK        -0.0193 
     14 C14         1.6866  -17.3762  -49.6599 C.ar      23 UNK        -0.1150 
     15 C15         4.0285  -18.3209  -49.9249 C.3       23 UNK        -0.0205 
     16 S16         4.1373  -20.1000  -49.5539 S.3       23 UNK        -0.2404 
     17 C17         3.3019  -20.1752  -47.9363 C.3       23 UNK        -0.0398 
     18 CA          2.4545  -21.4528  -47.7271 C.3       11 UNK         0.1400 
     19 N           2.2061  -21.6842  -46.3023 N.am      11 UNK        -0.5000 
     20 C           1.7016  -22.8072  -45.7738 C.2       10 UNK         0.5000 
     21 O           1.4353  -23.8161  -46.4265 O.2       10 UNK        -0.5000 
     22 CA          1.4161  -22.7867  -44.2608 C.3       10 UNK         0.1400 
     23 CB          2.6877  -23.1131  -43.4635 C.3       10 UNK        -0.1800 
     24 N           0.8638  -21.5078  -43.8079 N.am      10 UNK        -0.5000 
     25 C          -0.3310  -21.0266  -44.1807 C.2       9 UNK         0.5000 
     26 O          -1.1115  -21.6392  -44.9072 O.2       9 UNK        -0.5000 
     27 CA         -0.6973  -19.6087  -43.7051 C.3       9 UNK         0.1400 
     28 CB         -1.1918  -19.6263  -42.2513 C.3       9 UNK        -0.1800 
     29 N           0.4164  -18.6696  -43.8294 N.am      9 UNK        -0.5000 
     30 C           0.9856  -18.3053  -44.9865 C.2       8 UNK         0.5000 
     31 O           0.6008  -18.6835  -46.0913 O.2       8 UNK        -0.5000 
     32 CA          2.2239  -17.4002  -44.8893 C.3       8 UNK         0.1400 
     33 CB          1.8159  -15.9274  -44.7231 C.3       8 UNK        -0.1800 
     34 N           3.1125  -17.8026  -43.7974 N.am      8 UNK        -0.5000 
     35 C           3.8043  -18.9515  -43.7723 C.2       7 UNK         0.5000 
     36 O           3.7823  -19.7809  -44.6806 O.2       7 UNK        -0.5000 
     37 CA          4.6198  -19.2434  -42.5000 C.3       7 UNK         0.1400 
     38 CB          5.9420  -18.4619  -42.5092 C.3       7 UNK        -0.1800 
     39 N           3.8775  -18.9321  -41.2786 N.am      7 UNK        -0.5000 
     40 C           2.7741  -19.5789  -40.8767 C.2       6 UNK         0.5000 
     41 O           2.2896  -20.5403  -41.4715 O.2       6 UNK        -0.5000 
     42 CA          2.0597  -19.0204  -39.6316 C.3       6 UNK         0.1400 
     43 CB          2.6552  -19.6237  -38.3511 C.3       6 UNK        -0.1800 
     44 N           2.0971  -17.5569  -39.5448 N.am      6 UNK        -0.5000 
     45 C           1.5972  -16.7275  -40.4695 C.2       5 UNK         0.5000 
     46 O           1.0691  -17.1079  -41.5188 O.2       5 UNK        -0.5000 
     47 CA          1.7581  -15.2269  -40.2028 C.3       5 UNK         0.1400 
     48 CB          3.1916  -14.7659  -40.5151 C.3       5 UNK        -0.1800 
     49 N           0.8295  -14.5145  -41.0687 N.am      5 UNK        -0.5000 
     50 C           0.0935  -13.4532  -40.7331 C.2       4 UNK         0.5000 
     51 O           0.1756  -12.8814  -39.6449 O.2       4 UNK        -0.5000 
     52 CA         -0.9020  -12.9332  -41.7888 C.3       4 UNK         0.1400 
     53 CB         -0.4028  -11.6083  -42.3861 C.3       4 UNK        -0.1800 
     54 N          -1.1727  -13.8664  -42.8879 N.am      4 UNK        -0.5000 
     55 C          -1.8902  -14.9978  -42.7903 C.2       3 UNK         0.5000 
     56 O          -2.3102  -15.4458  -41.7227 O.2       3 UNK        -0.5000 
     57 CA         -2.2121  -15.7184  -44.1226 C.3       3 UNK         0.1400 
     58 CB         -3.3653  -16.7364  -44.0084 C.3       3 UNK        -0.1800 
     59 N          -2.4553  -14.7704  -45.2181 N.am      3 UNK        -0.5000 
     60 C          -3.3648  -13.7828  -45.2430 C.2       2 UNK         0.5000 
     61 O          -4.2820  -13.6837  -44.4265 O.2       2 UNK        -0.5000 
     62 CA         -3.2165  -12.6972  -46.3351 C.3       2 UNK         0.1400 
     63 CB         -3.3644  -11.2823  -45.7401 C.3       2 UNK        -0.1800 
     64 N          -1.9948  -12.7500  -47.1524 N.am      2 UNK        -0.5000 
     65 C          -0.7082  -12.7205  -46.7651 C.2       1 UNK         0.5000 
     66 O          -0.3350  -12.7803  -45.5922 O.2       1 UNK        -0.5000 
     67 C           1.1415  -21.4318  -48.5426 C.2       11 UNK         0.5000 
     68 O           1.0783  -22.0471  -49.6075 O.2       11 UNK        -0.5000 
     69 N           0.1083  -20.7627  -48.0091 N.am      12 UNK        -0.5000 
     70 CA         -1.2271  -20.6888  -48.6028 C.3       12 UNK         0.1400 
     71 CB         -2.0336  -19.5853  -47.9019 C.3       12 UNK        -0.1800 
     72 C          -2.0094  -22.0114  -48.5405 C.2       12 UNK         0.5000 
     73 O          -2.8346  -22.2597  -49.4221 O.2       12 UNK        -0.5000 
     74 N          -1.7348  -22.8091  -47.5001 N.am      13 UNK        -0.5000 
     75 CA         -2.4076  -24.0400  -47.0829 C.3       13 UNK         0.1400 
     76 CB         -2.4605  -25.0782  -48.2229 C.3       13 UNK        -0.1800 
     77 C          -3.7982  -23.7730  -46.4731 C.2       13 UNK         0.5000 
     78 O          -4.2949  -22.6424  -46.4895 O.2       13 UNK        -0.5000 
     79 N          -4.4014  -24.8347  -45.9201 N.am      14 UNK        -0.5000 
     80 CA         -5.7297  -24.8260  -45.3041 C.3       14 UNK         0.1400 
     81 CB         -6.0528  -26.2320  -44.7765 C.3       14 UNK        -0.1800 
     82 C          -6.8101  -24.3532  -46.2922 C.2       14 UNK         0.5000 
     83 O          -6.8686  -24.8616  -47.4129 O.2       14 UNK        -0.5000 
     84 N          -7.6010  -23.3554  -45.8743 N.am      15 UNK        -0.5000 
     85 CA         -8.6330  -22.6648  -46.6603 C.3       15 UNK         0.1400 
     86 CB         -9.8109  -23.6164  -46.9598 C.3       15 UNK        -0.1800 
     87 C          -8.0938  -21.9705  -47.9344 C.2       15 UNK         0.5000 
     88 O          -8.8594  -21.7496  -48.8740 O.2       15 UNK        -0.5000 
     89 N          -6.7898  -21.6445  -47.9437 N.am      16 UNK        -0.5000 
     90 CA         -6.0265  -21.0576  -49.0506 C.3       16 UNK         0.1400 
     91 CB         -6.5356  -19.6369  -49.3775 C.3       16 UNK        -0.1800 
     92 C          -5.9512  -21.9742  -50.2929 C.2       16 UNK         0.5000 
     93 O          -5.8520  -21.4763  -51.4153 O.2       16 UNK        -0.5000 
     94 N          -6.0034  -23.2981  -50.0772 N.am      17 UNK        -0.5000 
     95 CA         -6.0779  -24.3196  -51.1240 C.3       17 UNK         0.1400 
     96 CB         -6.2637  -25.7001  -50.4773 C.3       17 UNK        -0.1800 
     97 C          -4.8894  -24.3458  -52.1029 C.2       17 UNK         0.5000 
     98 O          -5.0941  -24.6743  -53.2722 O.2       17 UNK        -0.5000 
     99 N          -3.6826  -24.0022  -51.6310 N.am      18 UNK        -0.5000 
    100 CA        -2.4970  -23.8908  -52.4796 C.3       18 UNK         0.1400 
    101 CB        -1.2227  -24.1930  -51.6774 C.3       18 UNK        -0.1800 
    102 C         -2.4321  -22.5052  -53.1356 C.2       18 UNK         0.5000 
    103 O         -2.1949  -22.4283  -54.3403 O.2       18 UNK        -0.5000 
    104 N         -2.6999  -21.4475  -52.3525 N.am      19 UNK        -0.5000 
    105 CA        -2.7165  -20.0448  -52.7901 C.3       19 UNK         0.1400 
    106 CB        -2.9867  -19.1251  -51.5890 C.3       19 UNK        -0.1800 
    107 C         -3.7080  -19.7403  -53.9288 C.2       19 UNK         0.5000 
    108 O         -3.4546  -18.8354  -54.7243 O.2       19 UNK        -0.5000 
    109 N         -4.7986  -20.5146  -54.0015 N.am      20 UNK        -0.5000 
    110 CA        -5.8206  -20.4639  -55.0477 C.3       20 UNK         0.1400 
    111 CB        -6.9481  -21.4405  -54.6781 C.3       20 UNK        -0.1800 
    112 C         -5.3016  -20.7588  -56.4723 C.2       20 UNK         0.5000 
    113 O         -5.9523  -20.3499  -57.4353 O.2       20 UNK        -0.5000 
    114 N         -4.1591  -21.4494  -56.5882 N.am      21 UNK        -0.5000 
    115 CA        -3.4862  -21.7434  -57.8529 C.3       21 UNK         0.1400 
    116 CB        -3.4990  -23.2620  -58.0990 C.3       21 UNK        -0.1800 
    117 C         -2.0547  -21.1883  -57.8271 C.2       21 UNK         0.5000 
    118 O         -1.7028  -20.3612  -58.6683 O.2       21 UNK        -0.5000 
    119 N         -1.2691  -21.6415  -56.8433 N.am      22 UNK        -0.5000 
    120 CA         0.1105  -21.2347  -56.5369 C.3       22 UNK         0.1400 
    121 C          1.1743  -21.5104  -57.6451 C.2       22 UNK         0.5000 
    122 N          0.9056  -22.3771  -58.6139 N.am      22 UNK        -0.7600 
    123 O          2.2726  -20.9615  -57.6145 O.2       22 UNK        -0.5000 
    124 C124        0.1785  -19.7991  -55.9340 C.3       23 UNK        -0.0398 
    125 S125        0.9661  -19.8053  -54.2903 S.3       23 UNK        -0.2404 
    126 C126        0.8492  -18.0459  -53.8476 C.3       23 UNK        -0.0205 
    127 H127        0.1559   -8.6589  -50.0669 H         1 UNK         0.0600 
    128 H128       -1.5148   -8.8617  -49.5284 H         1 UNK         0.0600 
    129 H129       -0.8240   -9.9819  -50.7056 H         1 UNK         0.0600 
    130 H130       -0.3016  -11.9468  -49.7993 H         1 UNK         0.3000 
    131 H131        1.2605  -12.2567  -47.4331 H         1 UNK         0.0600 
    132 H132        0.9184  -14.7019  -47.8125 H         1 UNK         0.0800 
    133 H133        1.5109  -13.8685  -49.2145 H         1 UNK         0.0800 
    134 H134       -0.4313  -16.5971  -48.2483 H         1 UNK         0.0800 
    135 H135       -1.5924  -16.8473  -49.5299 H         1 UNK         0.0800 
    136 H136       -0.7937  -16.9866  -51.9423 H         1 UNK         0.1150 
    137 H137        3.1469  -18.5843  -52.4769 H         1 UNK         0.1150 
    138 H138        1.8944  -17.2010  -48.6139 H         1 UNK         0.1150 
    139 H139        4.7990  -18.0686  -50.6551 H         1 UNK         0.0800 
    140 H140        4.2586  -17.7389  -49.0310 H         1 UNK         0.0800 
    141 H141        2.7003  -19.2822  -47.7689 H         1 UNK         0.0800 
    142 H142        4.1001  -20.1384  -47.1952 H         1 UNK         0.0800 
    143 H143        3.0407  -22.3041  -48.0803 H         1 UNK         0.0600 
    144 H144        2.4551  -20.9265  -45.6748 H         1 UNK         0.3000 
    145 H145        0.6770  -23.5631  -44.0526 H         1 UNK         0.0600 
    146 H146        2.4738  -23.1926  -42.3975 H         1 UNK         0.0600 
    147 H147        3.1155  -24.0648  -43.7809 H         1 UNK         0.0600 
    148 H148        3.4532  -22.3476  -43.5943 H         1 UNK         0.0600 
    149 H149        1.4298  -20.9750  -43.1535 H         1 UNK         0.3000 
    150 H150       -1.5093  -19.2449  -44.3380 H         1 UNK         0.0600 
    151 H151       -2.0814  -20.2490  -42.1508 H         1 UNK         0.0600 
    152 H152       -1.4520  -18.6248  -41.9079 H         1 UNK         0.0600 
    153 H153       -0.4358  -20.0225  -41.5737 H         1 UNK         0.0600 
    154 H154        0.7759  -18.2713  -42.9654 H         1 UNK         0.3000 
    155 H155        2.7765  -17.4936  -45.8267 H         1 UNK         0.0600 
    156 H156        1.2782  -15.7555  -43.7919 H         1 UNK         0.0600 
    157 H157        1.1645  -15.6085  -45.5373 H         1 UNK         0.0600 
    158 H158        2.6880  -15.2734  -44.7307 H         1 UNK         0.0600 
    159 H159        3.1365  -17.2048  -42.9855 H         1 UNK         0.3000 
    160 H160        4.8538  -20.3102  -42.4921 H         1 UNK         0.0600 
    161 H161        5.7762  -17.3841  -42.4854 H         1 UNK         0.0600 
    162 H162        6.5206  -18.6856  -43.4065 H         1 UNK         0.0600 
    163 H163        6.5608  -18.7253  -41.6512 H         1 UNK         0.0600 
    164 H164        4.2053  -18.1525  -40.7281 H         1 UNK         0.3000 
    165 H165        1.0116  -19.3199  -39.6930 H         1 UNK         0.0600 
    166 H166        2.0971  -19.3081  -37.4694 H         1 UNK         0.0600 
    167 H167        2.6223  -20.7137  -38.3814 H         1 UNK         0.0600 
    168 H168        3.6966  -19.3303  -38.2130 H         1 UNK         0.0600 
    169 H169        2.5241  -17.1676  -38.7165 H         1 UNK         0.3000 
    170 H170        1.5253  -15.0366  -39.1530 H         1 UNK         0.0600 
    171 H171        3.9181  -15.2761  -39.8817 H         1 UNK         0.0600 
    172 H172        3.4614  -14.9633  -41.5534 H         1 UNK         0.0600 
    173 H173        3.3055  -13.6959  -40.3397 H         1 UNK         0.0600 
    174 H174        0.6312  -14.9797  -41.9434 H         1 UNK         0.3000 
    175 H175       -1.8448  -12.7397  -41.2732 H         1 UNK         0.0600 
    176 H176        0.5245  -11.7448  -42.9440 H         1 UNK         0.0600 
    177 H177       -1.1401  -11.1786  -43.0637 H         1 UNK         0.0600 
    178 H178       -0.2125  -10.8703  -41.6057 H         1 UNK         0.0600 
    179 H179       -0.8753  -13.5588  -43.8095 H         1 UNK         0.3000 
    180 H180       -1.3124  -16.2733  -44.3893 H         1 UNK         0.0600 
    181 H181       -3.5329  -17.2477  -44.9564 H         1 UNK         0.0600 
    182 H182       -4.3005  -16.2605  -43.7130 H         1 UNK         0.0600 
    183 H183       -3.1426  -17.5007  -43.2642 H         1 UNK         0.0600 
    184 H184       -1.7468  -14.7430  -45.9363 H         1 UNK         0.3000 
    185 H185       -4.0470  -12.8556  -47.0244 H         1 UNK         0.0600 
    186 H186       -4.3208  -11.1618  -45.2300 H         1 UNK         0.0600 
    187 H187       -2.5772  -11.0671  -45.0175 H         1 UNK         0.0600 
    188 H188       -3.3181  -10.5211  -46.5190 H         1 UNK         0.0600 
    189 H189       -2.1587  -12.7440  -48.1498 H         1 UNK         0.3000 
    190 H190        0.2551  -20.2255  -47.1588 H         1 UNK         0.3000 
    191 H191       -1.0977  -20.4298  -49.6528 H         1 UNK         0.0600 
    192 H192       -2.9886  -19.4191  -48.4012 H         1 UNK         0.0600 
    193 H193       -1.4954  -18.6411  -47.8996 H         1 UNK         0.0600 
    194 H194       -2.2460  -19.8433  -46.8634 H         1 UNK         0.0600 
    195 H195       -1.1141  -22.4248  -46.7964 H         1 UNK         0.3000 
    196 H196       -1.7862  -24.4486  -46.2847 H         1 UNK         0.0600 
    197 H197       -3.1977  -24.8144  -48.9800 H         1 UNK         0.0600 
    198 H198       -1.4912  -25.1761  -48.7116 H         1 UNK         0.0600 
    199 H199       -2.7298  -26.0645  -47.8446 H         1 UNK         0.0600 
    200 H200       -3.9405  -25.7314  -45.9621 H         1 UNK         0.3000 
    201 H201       -5.6956  -24.1390  -44.4560 H         1 UNK         0.0600 
    202 H202       -6.0668  -26.9696  -45.5801 H         1 UNK         0.0600 
    203 H203       -7.0316  -26.2525  -44.2955 H         1 UNK         0.0600 
    204 H204       -5.3209  -26.5548  -44.0359 H         1 UNK         0.0600 
    205 H205       -7.4557  -22.9899  -44.9431 H         1 UNK         0.3000 
    206 H206       -9.0124  -21.8641  -46.0241 H         1 UNK         0.0600 
    207 H207      -10.1768  -24.0902  -46.0490 H         1 UNK         0.0600 
    208 H208      -10.6495  -23.0766  -47.4010 H         1 UNK         0.0600 
    209 H209       -9.5273  -24.4047  -47.6578 H         1 UNK         0.0600 
    210 H210       -6.2279  -21.9067  -47.1413 H         1 UNK         0.3000 
    211 H211       -5.0045  -20.9578  -48.6863 H         1 UNK         0.0600 
    212 H212       -5.8853  -19.1369  -50.0943 H         1 UNK         0.0600 
    213 H213       -6.5664  -19.0146  -48.4833 H         1 UNK         0.0600 
    214 H214       -7.5357  -19.6531  -49.8108 H         1 UNK         0.0600 
    215 H215       -6.1068  -23.6275  -49.1251 H         1 UNK         0.3000 
    216 H216       -6.9699  -24.1045  -51.7160 H         1 UNK         0.0600 
    217 H217       -5.4541  -25.9316  -49.7840 H         1 UNK         0.0600 
    218 H218       -6.2893  -26.4890  -51.2302 H         1 UNK         0.0600 
    219 H219       -7.2032  -25.7521  -49.9271 H         1 UNK         0.0600 
    220 H220       -3.5961  -23.6620  -50.6789 H         1 UNK         0.3000 
    221 H221       -2.5539  -24.6343  -53.2778 H         1 UNK         0.0600 
    222 H222       -0.3471  -24.1819  -52.3275 H         1 UNK         0.0600 
    223 H223       -1.2721  -25.1794  -51.2168 H         1 UNK         0.0600 
    224 H224       -1.0449  -23.4622  -50.8904 H         1 UNK         0.0600 
    225 H225       -2.9084  -21.6237  -51.3761 H         1 UNK         0.3000 
    226 H226       -1.7235  -19.8107  -53.1738 H         1 UNK         0.0600 
    227 H227       -2.1006  -19.0213  -50.9686 H         1 UNK         0.0600 
    228 H228       -3.2588  -18.1175  -51.9068 H         1 UNK         0.0600 
    229 H229       -3.7953  -19.5042  -50.9664 H         1 UNK         0.0600 
    230 H230       -4.9673  -21.1635  -53.2396 H         1 UNK         0.3000 
    231 H231       -6.2316  -19.4526  -55.0562 H         1 UNK         0.0600 
    232 H232       -6.5809  -22.4649  -54.6012 H         1 UNK         0.0600 
    233 H233       -7.7407  -21.4293  -55.4275 H         1 UNK         0.0600 
    234 H234       -7.4025  -21.1755  -53.7232 H         1 UNK         0.0600 
    235 H235       -3.6684  -21.7132  -55.7416 H         1 UNK         0.3000 
    236 H236       -4.0007  -21.2641  -58.6883 H         1 UNK         0.0600 
    237 H237       -4.5194  -23.6295  -58.2091 H         1 UNK         0.0600 
    238 H238       -2.9624  -23.5149  -59.0143 H         1 UNK         0.0600 
    239 H239       -3.0356  -23.8131  -57.2798 H         1 UNK         0.0600 
    240 H240       -1.6714  -22.2643  -56.1492 H         1 UNK         0.3000 
    241 H241        0.3932  -21.9426  -55.7571 H         1 UNK         0.0600 
    242 H242        1.5986  -22.5613  -59.3224 H         1 UNK         0.3800 
    243 H243        0.0139  -22.8440  -58.6501 H         1 UNK         0.3800 
    244 H244       -0.8223  -19.3825  -55.8103 H         1 UNK         0.0800 
    245 H245        0.7036  -19.1006  -56.5876 H         1 UNK         0.0800 
    246 H246        1.5552  -17.4730  -54.4502 H         1 UNK         0.0800 
    247 H247       -0.1472  -17.6784  -54.0986 H         1 UNK         0.0800 
@<TRIPOS>BOND
     1    1    2 1    
     2    1  127 1    
     3    1  128 1    
     4    1  129 1    
     5    2    3 2    
     6    2    4 am   BACKBONE|DICT|INTERRES
     7    4    5 1    
     8    4  130 1    
     9    5    6 1    
    10    5   65 1    
    11    5  131 1    
    12    6    7 1    
    13    6  132 1    
    14    6  133 1    
    15    7    8 1    
    16    8    9 1    
    17    8  134 1    
    18    8  135 1    
    19    9   10 ar   
    20    9   14 ar   
    21   10   11 ar   
    22   10  136 1    
    23   11   12 ar   
    24   11  126 1    
    25   12   13 ar   
    26   12  137 1    
    27   13   14 ar   
    28   13   15 1    
    29   14  138 1    
    30   15   16 1    
    31   15  139 1    
    32   15  140 1    
    33   16   17 1    
    34   17   18 1    
    35   17  141 1    
    36   17  142 1    
    37   18   19 1    
    38   18   67 1    
    39   18  143 1    
    40   19   20 am   BACKBONE|DICT|INTERRES
    41   19  144 1    
    42   20   21 2    
    43   20   22 1    
    44   22   23 1    
    45   22   24 1    
    46   22  145 1    
    47   23  146 1    
    48   23  147 1    
    49   23  148 1    
    50   24   25 am   BACKBONE|DICT|INTERRES
    51   24  149 1    
    52   25   26 2    
    53   25   27 1    
    54   27   28 1    
    55   27   29 1    
    56   27  150 1    
    57   28  151 1    
    58   28  152 1    
    59   28  153 1    
    60   29   30 am   BACKBONE|DICT|INTERRES
    61   29  154 1    
    62   30   31 2    
    63   30   32 1    
    64   32   33 1    
    65   32   34 1    
    66   32  155 1    
    67   33  156 1    
    68   33  157 1    
    69   33  158 1    
    70   34   35 am   BACKBONE|DICT|INTERRES
    71   34  159 1    
    72   35   36 2    
    73   35   37 1    
    74   37   38 1    
    75   37   39 1    
    76   37  160 1    
    77   38  161 1    
    78   38  162 1    
    79   38  163 1    
    80   39   40 am   BACKBONE|DICT|INTERRES
    81   39  164 1    
    82   40   41 2    
    83   40   42 1    
    84   42   43 1    
    85   42   44 1    
    86   42  165 1    
    87   43  166 1    
    88   43  167 1    
    89   43  168 1    
    90   44   45 am   BACKBONE|DICT|INTERRES
    91   44  169 1    
    92   45   46 2    
    93   45   47 1    
    94   47   48 1    
    95   47   49 1    
    96   47  170 1    
    97   48  171 1    
    98   48  172 1    
    99   48  173 1    
   100   49   50 am   BACKBONE|DICT|INTERRES
   101   49  174 1    
   102   50   51 2    
   103   50   52 1    
   104   52   53 1    
   105   52   54 1    
   106   52  175 1    
   107   53  176 1    
   108   53  177 1    
   109   53  178 1    
   110   54   55 am   BACKBONE|DICT|INTERRES
   111   54  179 1    
   112   55   56 2    
   113   55   57 1    
   114   57   58 1    
   115   57   59 1    
   116   57  180 1    
   117   58  181 1    
   118   58  182 1    
   119   58  183 1    
   120   59   60 am   BACKBONE|DICT|INTERRES
   121   59  184 1    
   122   60   61 2    
   123   60   62 1    
   124   62   63 1    
   125   62   64 1    
   126   62  185 1    
   127   63  186 1    
   128   63  187 1    
   129   63  188 1    
   130   64   65 am   BACKBONE|DICT|INTERRES
   131   64  189 1    
   132   65   66 2    
   133   67   68 2    
   134   67   69 am   BACKBONE|DICT|INTERRES
   135   69   70 1    
   136   69  190 1    
   137   70   71 1    
   138   70   72 1    
   139   70  191 1    
   140   71  192 1    
   141   71  193 1    
   142   71  194 1    
   143   72   73 2    
   144   72   74 am   BACKBONE|DICT|INTERRES
   145   74   75 1    
   146   74  195 1    
   147   75   76 1    
   148   75   77 1    
   149   75  196 1    
   150   76  197 1    
   151   76  198 1    
   152   76  199 1    
   153   77   78 2    
   154   77   79 am   BACKBONE|DICT|INTERRES
   155   79   80 1    
   156   79  200 1    
   157   80   81 1    
   158   80   82 1    
   159   80  201 1    
   160   81  202 1    
   161   81  203 1    
   162   81  204 1    
   163   82   83 2    
   164   82   84 am   BACKBONE|DICT|INTERRES
   165   84   85 1    
   166   84  205 1    
   167   85   86 1    
   168   85   87 1    
   169   85  206 1    
   170   86  207 1    
   171   86  208 1    
   172   86  209 1    
   173   87   88 2    
   174   87   89 am   BACKBONE|DICT|INTERRES
   175   89   90 1    
   176   89  210 1    
   177   90   91 1    
   178   90   92 1    
   179   90  211 1    
   180   91  212 1    
   181   91  213 1    
   182   91  214 1    
   183   92   93 2    
   184   92   94 am   BACKBONE|DICT|INTERRES
   185   94   95 1    
   186   94  215 1    
   187   95   96 1    
   188   95   97 1    
   189   95  216 1    
   190   96  217 1    
   191   96  218 1    
   192   96  219 1    
   193   97   98 2    
   194   97   99 am   BACKBONE|DICT|INTERRES
   195   99  100 1    
   196   99  220 1    
   197  100  101 1    
   198  100  102 1    
   199  100  221 1    
   200  101  222 1    
   201  101  223 1    
   202  101  224 1    
   203  102  103 2    
   204  102  104 am   BACKBONE|DICT|INTERRES
   205  104  105 1    
   206  104  225 1    
   207  105  106 1    
   208  105  107 1    
   209  105  226 1    
   210  106  227 1    
   211  106  228 1    
   212  106  229 1    
   213  107  108 2    
   214  107  109 am   BACKBONE|DICT|INTERRES
   215  109  110 1    
   216  109  230 1    
   217  110  111 1    
   218  110  112 1    
   219  110  231 1    
   220  111  232 1    
   221  111  233 1    
   222  111  234 1    
   223  112  113 2    
   224  112  114 am   BACKBONE|DICT|INTERRES
   225  114  115 1    
   226  114  235 1    
   227  115  116 1    
   228  115  117 1    
   229  115  236 1    
   230  116  237 1    
   231  116  238 1    
   232  116  239 1    
   233  117  118 2    
   234  117  119 am   BACKBONE|DICT|INTERRES
   235  119  120 1    
   236  119  240 1    
   237  120  121 1    
   238  120  124 1    
   239  120  241 1    
   240  121  122 am   BACKBONE|DICT|INTERRES
   241  121  123 2    
   242  122  242 1    
   243  122  243 1    
   244  124  125 1    
   245  124  244 1    
   246  124  245 1    
   247  125  126 1    
   248  126  246 1    
   249  126  247 1    
@<TRIPOS>SUBSTRUCTURE
     1 UNK         1 GROUP             0       ****    0 ROOT    
