@<TRIPOS>MOLECULE
3R540
247   249    1
SMALL
USER_CHARGES


@<TRIPOS>ATOM
      1 CA         -4.3601  -17.4807  -48.3203 C.3       0 UNK        -0.1800 
      2 C          -3.4459  -16.4197  -48.9179 C.2       0 UNK         0.5000 
      3 O          -3.8845  -15.6288  -49.7526 O.2       0 UNK        -0.5000 
      4 N          -2.1793  -16.3965  -48.4867 N.am      1 UNK        -0.5000 
      5 CA         -1.2065  -15.3494  -48.8133 C.3       1 UNK         0.1400 
      6 C6          0.2361  -15.8474  -48.5534 C.3       23 UNK        -0.0398 
      7 S7          1.5503  -14.7842  -49.2585 S.3       23 UNK        -0.2404 
      8 C8          1.9701  -15.5964  -50.8413 C.3       23 UNK        -0.0205 
      9 C9          2.2311  -17.0901  -50.6996 C.ar      23 UNK        -0.0193 
     10 C10         1.4417  -18.0031  -51.4064 C.ar      23 UNK        -0.1150 
     11 C11         1.6067  -19.3763  -51.2151 C.ar      23 UNK        -0.0193 
     12 C12         2.5720  -19.8357  -50.3176 C.ar      23 UNK        -0.1150 
     13 C13         3.3659  -18.9347  -49.6045 C.ar      23 UNK        -0.0193 
     14 C14         3.2108  -17.5621  -49.8188 C.ar      23 UNK        -0.1150 
     15 C15         4.3334  -19.4517  -48.5501 C.3       23 UNK        -0.0205 
     16 S16         3.7851  -19.1354  -46.8318 S.3       23 UNK        -0.2404 
     17 C17         1.9608  -19.2275  -46.8935 C.3       23 UNK        -0.0398 
     18 CA          1.4166  -20.6730  -46.9435 C.3       11 UNK         0.1400 
     19 N           1.7373  -21.4244  -45.7287 N.am      11 UNK        -0.5000 
     20 C           1.4122  -22.7005  -45.4831 C.2       10 UNK         0.5000 
     21 O           0.8358  -23.4267  -46.2932 O.2       10 UNK        -0.5000 
     22 CA          1.7292  -23.2395  -44.0734 C.3       10 UNK         0.1400 
     23 CB          2.9282  -22.5297  -43.4080 C.3       10 UNK        -0.1800 
     24 N           0.5735  -23.1993  -43.1672 N.am      10 UNK        -0.5000 
     25 C          -0.2187  -22.1485  -42.9017 C.2       9 UNK         0.5000 
     26 O          -0.1824  -21.0848  -43.5177 O.2       9 UNK        -0.5000 
     27 CA         -1.2192  -22.2724  -41.7388 C.3       9 UNK         0.1400 
     28 CB         -1.4808  -23.7191  -41.2621 C.3       9 UNK        -0.1800 
     29 N          -0.8069  -21.3976  -40.6365 N.am      9 UNK        -0.5000 
     30 C           0.3147  -21.4898  -39.9036 C.2       8 UNK         0.5000 
     31 O           1.1118  -22.4263  -39.9830 O.2       8 UNK        -0.5000 
     32 CA          0.5885  -20.3308  -38.9266 C.3       8 UNK         0.1400 
     33 CB          2.0588  -20.2724  -38.4720 C.3       8 UNK        -0.1800 
     34 N           0.2424  -19.0533  -39.5469 N.am      8 UNK        -0.5000 
     35 C          -0.6291  -18.1580  -39.0645 C.2       7 UNK         0.5000 
     36 O          -1.2692  -18.3242  -38.0255 O.2       7 UNK        -0.5000 
     37 CA         -0.8249  -16.8494  -39.8614 C.3       7 UNK         0.1400 
     38 CB         -0.1282  -15.6796  -39.1490 C.3       7 UNK        -0.1800 
     39 N          -0.3352  -16.9130  -41.2395 N.am      7 UNK        -0.5000 
     40 C          -0.8886  -17.6377  -42.2207 C.2       6 UNK         0.5000 
     41 O          -1.9219  -18.2928  -42.0821 O.2       6 UNK        -0.5000 
     42 CA         -0.1491  -17.6550  -43.5743 C.3       6 UNK         0.1400 
     43 CB         -0.7701  -16.6320  -44.5349 C.3       6 UNK        -0.1800 
     44 N           1.3030  -17.4337  -43.5045 N.am      6 UNK        -0.5000 
     45 C           2.1769  -18.1506  -42.7778 C.2       5 UNK         0.5000 
     46 O           1.8361  -19.0422  -42.0010 O.2       5 UNK        -0.5000 
     47 CA          3.6791  -17.8304  -42.9244 C.3       5 UNK         0.1400 
     48 CB          4.5107  -19.1140  -43.0910 C.3       5 UNK        -0.1800 
     49 N           3.9791  -16.9273  -44.0388 N.am      5 UNK        -0.5000 
     50 C           4.0092  -15.5917  -43.9536 C.2       4 UNK         0.5000 
     51 O           3.7459  -14.9761  -42.9181 O.2       4 UNK        -0.5000 
     52 CA          4.4165  -14.8033  -45.2197 C.3       4 UNK         0.1400 
     53 CB          4.3838  -15.6281  -46.5263 C.3       4 UNK        -0.1800 
     54 N           3.6375  -13.5722  -45.3758 N.am      4 UNK        -0.5000 
     55 C           2.3095  -13.4791  -45.5270 C.2       3 UNK         0.5000 
     56 O           1.5563  -14.4546  -45.5611 O.2       3 UNK        -0.5000 
     57 CA          1.7169  -12.0665  -45.6767 C.3       3 UNK         0.1400 
     58 CB          2.7525  -10.9646  -45.9906 C.3       3 UNK        -0.1800 
     59 N           0.7036  -12.1068  -46.7232 N.am      3 UNK        -0.5000 
     60 C          -0.3811  -11.3282  -46.7963 C.2       2 UNK         0.5000 
     61 O          -0.6319  -10.4293  -45.9921 O.2       2 UNK        -0.5000 
     62 CA         -1.3528  -11.5877  -47.9671 C.3       2 UNK         0.1400 
     63 CB         -1.1882  -10.5090  -49.0493 C.3       2 UNK        -0.1800 
     64 N          -1.1875  -12.9051  -48.5884 N.am      2 UNK        -0.5000 
     65 C          -1.5294  -14.0660  -48.0150 C.2       1 UNK         0.5000 
     66 O          -2.0549  -14.1465  -46.9016 O.2       1 UNK        -0.5000 
     67 C          -0.0948  -20.6446  -47.2508 C.2       11 UNK         0.5000 
     68 O          -0.4670  -20.7429  -48.4175 O.2       11 UNK        -0.5000 
     69 N          -0.9422  -20.5442  -46.2155 N.am      12 UNK        -0.5000 
     70 CA         -2.4004  -20.5476  -46.3582 C.3       12 UNK         0.1400 
     71 CB         -3.0533  -20.0301  -45.0694 C.3       12 UNK        -0.1800 
     72 C          -2.9597  -21.9313  -46.7320 C.2       12 UNK         0.5000 
     73 O          -3.9513  -22.0080  -47.4604 O.2       12 UNK        -0.5000 
     74 N          -2.2980  -22.9945  -46.2540 N.am      13 UNK        -0.5000 
     75 CA         -2.6112  -24.3800  -46.5973 C.3       13 UNK         0.1400 
     76 CB         -1.9711  -25.3308  -45.5739 C.3       13 UNK        -0.1800 
     77 C          -2.1663  -24.7092  -48.0320 C.2       13 UNK         0.5000 
     78 O          -2.9387  -25.3066  -48.7808 O.2       13 UNK        -0.5000 
     79 N          -0.9623  -24.2532  -48.4104 N.am      14 UNK        -0.5000 
     80 CA         -0.4185  -24.3393  -49.7695 C.3       14 UNK         0.1400 
     81 CB          1.0338  -23.8382  -49.7687 C.3       14 UNK        -0.1800 
     82 C          -1.2607  -23.5610  -50.7992 C.2       14 UNK         0.5000 
     83 O          -1.4522  -24.0341  -51.9191 O.2       14 UNK        -0.5000 
     84 N          -1.7824  -22.3996  -50.3809 N.am      15 UNK        -0.5000 
     85 CA         -2.7000  -21.5577  -51.1458 C.3       15 UNK         0.1400 
     86 CB         -2.7689  -20.1716  -50.4842 C.3       15 UNK        -0.1800 
     87 C          -4.1201  -22.1374  -51.2580 C.2       15 UNK         0.5000 
     88 O          -4.9092  -21.6073  -52.0437 O.2       15 UNK        -0.5000 
     89 N          -4.4358  -23.1619  -50.4520 N.am      16 UNK        -0.5000 
     90 CA         -5.7423  -23.8056  -50.3008 C.3       16 UNK         0.1400 
     91 CB         -6.1079  -24.5867  -51.5803 C.3       16 UNK        -0.1800 
     92 C          -6.8274  -22.7993  -49.8692 C.2       16 UNK         0.5000 
     93 O          -7.9044  -22.7598  -50.4629 O.2       16 UNK        -0.5000 
     94 N          -6.4896  -21.9489  -48.8861 N.am      17 UNK        -0.5000 
     95 CA         -7.2908  -20.8178  -48.3978 C.3       17 UNK         0.1400 
     96 CB         -8.5491  -21.3158  -47.6570 C.3       17 UNK        -0.1800 
     97 C          -7.6063  -19.7869  -49.5071 C.2       17 UNK         0.5000 
     98 O          -8.7006  -19.2231  -49.5427 O.2       17 UNK        -0.5000 
     99 N          -6.6236  -19.5850  -50.3970 N.am      18 UNK        -0.5000 
    100 CA        -6.6247  -18.7202  -51.5816 C.3       18 UNK         0.1400 
    101 CB        -6.9700  -17.2575  -51.2320 C.3       18 UNK        -0.1800 
    102 C         -7.4551  -19.2602  -52.7644 C.2       18 UNK         0.5000 
    103 O         -7.6788  -18.5178  -53.7216 O.2       18 UNK        -0.5000 
    104 N         -7.8646  -20.5379  -52.7228 N.am      19 UNK        -0.5000 
    105 CA        -8.5132  -21.2130  -53.8507 C.3       19 UNK         0.1400 
    106 CB        -9.2249  -22.4843  -53.3664 C.3       19 UNK        -0.1800 
    107 C         -7.5185  -21.5453  -54.9795 C.2       19 UNK         0.5000 
    108 O         -7.8938  -21.4816  -56.1509 O.2       19 UNK        -0.5000 
    109 N         -6.2732  -21.8748  -54.6096 N.am      20 UNK        -0.5000 
    110 CA        -5.1621  -22.1020  -55.5346 C.3       20 UNK         0.1400 
    111 CB        -4.3771  -23.3476  -55.0924 C.3       20 UNK        -0.1800 
    112 C         -4.2385  -20.8741  -55.5869 C.2       20 UNK         0.5000 
    113 O         -3.7469  -20.5260  -56.6618 O.2       20 UNK        -0.5000 
    114 N         -4.0106  -20.2490  -54.4196 N.am      21 UNK        -0.5000 
    115 CA        -3.2461  -19.0126  -54.1936 C.3       21 UNK         0.1400 
    116 CB        -3.9917  -17.8135  -54.8134 C.3       21 UNK        -0.1800 
    117 C         -1.7637  -19.0610  -54.6320 C.2       21 UNK         0.5000 
    118 O         -1.1320  -18.0086  -54.7307 O.2       21 UNK        -0.5000 
    119 N         -1.2362  -20.2672  -54.8914 N.am      22 UNK        -0.5000 
    120 CA         0.0632  -20.5187  -55.5434 C.3       22 UNK         0.1400 
    121 C          0.1432  -19.9767  -57.0071 C.2       22 UNK         0.5000 
    122 N         -0.9753  -19.8105  -57.7063 N.am      22 UNK        -0.7600 
    123 O          1.2255  -19.7334  -57.5345 O.2       22 UNK        -0.5000 
    124 C124        1.2835  -20.1261  -54.6573 C.3       23 UNK        -0.0398 
    125 S125        1.4924  -21.2716  -53.2527 S.3       23 UNK        -0.2404 
    126 C126        0.6859  -20.3688  -51.9000 C.3       23 UNK        -0.0205 
    127 H127       -5.3316  -17.0485  -48.0804 H         1 UNK         0.0600 
    128 H128       -4.5145  -18.2897  -49.0313 H         1 UNK         0.0600 
    129 H129       -3.9471  -17.8972  -47.4022 H         1 UNK         0.0600 
    130 H130       -1.8937  -17.0486  -47.7726 H         1 UNK         0.3000 
    131 H131       -1.3011  -15.1274  -49.8788 H         1 UNK         0.0600 
    132 H132        0.4261  -15.9335  -47.4843 H         1 UNK         0.0800 
    133 H133        0.3416  -16.8592  -48.9416 H         1 UNK         0.0800 
    134 H134        2.8583  -15.1200  -51.2578 H         1 UNK         0.0800 
    135 H135        1.1616  -15.4112  -51.5501 H         1 UNK         0.0800 
    136 H136        0.6730  -17.6464  -52.0781 H         1 UNK         0.1150 
    137 H137        2.6765  -20.8983  -50.1496 H         1 UNK         0.1150 
    138 H138        3.8076  -16.8606  -49.2530 H         1 UNK         0.1150 
    139 H139        4.4860  -20.5253  -48.6706 H         1 UNK         0.0800 
    140 H140        5.3103  -18.9900  -48.6989 H         1 UNK         0.0800 
    141 H141        1.5782  -18.7187  -46.0083 H         1 UNK         0.0800 
    142 H142        1.5971  -18.6361  -47.7336 H         1 UNK         0.0800 
    143 H143        1.8977  -21.1923  -47.7735 H         1 UNK         0.0600 
    144 H144        2.1733  -20.9006  -44.9850 H         1 UNK         0.3000 
    145 H145        1.9949  -24.2899  -44.2008 H         1 UNK         0.0600 
    146 H146        3.2307  -23.0522  -42.5003 H         1 UNK         0.0600 
    147 H147        3.7953  -22.5044  -44.0695 H         1 UNK         0.0600 
    148 H148        2.6902  -21.5045  -43.1240 H         1 UNK         0.0600 
    149 H149        0.4421  -24.0277  -42.6048 H         1 UNK         0.3000 
    150 H150       -2.1660  -21.8752  -42.1071 H         1 UNK         0.0600 
    151 H151       -1.8498  -24.3379  -42.0811 H         1 UNK         0.0600 
    152 H152       -2.2413  -23.7365  -40.4814 H         1 UNK         0.0600 
    153 H153       -0.5895  -24.2011  -40.8606 H         1 UNK         0.0600 
    154 H154       -1.3569  -20.5562  -40.5301 H         1 UNK         0.3000 
    155 H155       -0.0315  -20.5149  -38.0474 H         1 UNK         0.0600 
    156 H156        2.3496  -21.1889  -37.9573 H         1 UNK         0.0600 
    157 H157        2.2240  -19.4467  -37.7797 H         1 UNK         0.0600 
    158 H158        2.7332  -20.1393  -39.3192 H         1 UNK         0.0600 
    159 H159        0.7039  -18.8703  -40.4348 H         1 UNK         0.3000 
    160 H160       -1.8968  -16.6432  -39.8905 H         1 UNK         0.0600 
    161 H161        0.9519  -15.8244  -39.1011 H         1 UNK         0.0600 
    162 H162       -0.3190  -14.7356  -39.6599 H         1 UNK         0.0600 
    163 H163       -0.4906  -15.5719  -38.1258 H         1 UNK         0.0600 
    164 H164        0.5165  -16.4106  -41.4424 H         1 UNK         0.3000 
    165 H165       -0.3017  -18.6415  -44.0076 H         1 UNK         0.0600 
    166 H166       -0.3735  -16.7542  -45.5405 H         1 UNK         0.0600 
    167 H167       -1.8524  -16.7499  -44.5994 H         1 UNK         0.0600 
    168 H168       -0.5726  -15.6078  -44.2163 H         1 UNK         0.0600 
    169 H169        1.6676  -16.6906  -44.0850 H         1 UNK         0.3000 
    170 H170        3.9902  -17.3618  -41.9885 H         1 UNK         0.0600 
    171 H171        4.3981  -19.7706  -42.2273 H         1 UNK         0.0600 
    172 H172        4.2111  -19.6797  -43.9724 H         1 UNK         0.0600 
    173 H173        5.5728  -18.8870  -43.1838 H         1 UNK         0.0600 
    174 H174        4.1820  -17.3644  -44.9277 H         1 UNK         0.3000 
    175 H175        5.4483  -14.4893  -45.0571 H         1 UNK         0.0600 
    176 H176        3.4016  -16.0647  -46.7124 H         1 UNK         0.0600 
    177 H177        4.6313  -15.0065  -47.3868 H         1 UNK         0.0600 
    178 H178        5.1146  -16.4367  -46.5026 H         1 UNK         0.0600 
    179 H179        4.1685  -12.7144  -45.3319 H         1 UNK         0.3000 
    180 H180        1.2364  -11.8334  -44.7243 H         1 UNK         0.0600 
    181 H181        3.4793  -10.8579  -45.1846 H         1 UNK         0.0600 
    182 H182        3.2965  -11.1741  -46.9126 H         1 UNK         0.0600 
    183 H183        2.2698   -9.9941  -46.1071 H         1 UNK         0.0600 
    184 H184        0.8020  -12.8639  -47.3862 H         1 UNK         0.3000 
    185 H185       -2.3679  -11.5211  -47.5698 H         1 UNK         0.0600 
    186 H186       -1.3372   -9.5116  -48.6336 H         1 UNK         0.0600 
    187 H187       -0.1921  -10.5337  -49.4933 H         1 UNK         0.0600 
    188 H188       -1.9172  -10.6374  -49.8496 H         1 UNK         0.0600 
    189 H189       -0.7472  -12.9180  -49.4975 H         1 UNK         0.3000 
    190 H190       -0.5730  -20.5552  -45.2667 H         1 UNK         0.3000 
    191 H191       -2.6618  -19.8610  -47.1639 H         1 UNK         0.0600 
    192 H192       -4.1394  -20.0006  -45.1667 H         1 UNK         0.0600 
    193 H193       -2.7233  -19.0185  -44.8381 H         1 UNK         0.0600 
    194 H194       -2.8183  -20.6622  -44.2133 H         1 UNK         0.0600 
    195 H195       -1.4569  -22.8388  -45.7178 H         1 UNK         0.3000 
    196 H196       -3.6943  -24.5113  -46.5441 H         1 UNK         0.0600 
    197 H197       -2.2344  -26.3667  -45.7909 H         1 UNK         0.0600 
    198 H198       -2.3180  -25.1126  -44.5639 H         1 UNK         0.0600 
    199 H199       -0.8834  -25.2648  -45.5753 H         1 UNK         0.0600 
    200 H200       -0.3690  -23.8155  -47.7102 H         1 UNK         0.3000 
    201 H201       -0.4197  -25.3904  -50.0648 H         1 UNK         0.0600 
    202 H202        1.6562  -24.4342  -49.1011 H         1 UNK         0.0600 
    203 H203        1.0998  -22.7995  -49.4464 H         1 UNK         0.0600 
    204 H204        1.4706  -23.9002  -50.7664 H         1 UNK         0.0600 
    205 H205       -1.4930  -22.0370  -49.4775 H         1 UNK         0.3000 
    206 H206       -2.3089  -21.4461  -52.1586 H         1 UNK         0.0600 
    207 H207       -1.8018  -19.6707  -50.4931 H         1 UNK         0.0600 
    208 H208       -3.4754  -19.5150  -50.9885 H         1 UNK         0.0600 
    209 H209       -3.0909  -20.2478  -49.4469 H         1 UNK         0.0600 
    210 H210       -3.7108  -23.5236  -49.8456 H         1 UNK         0.3000 
    211 H211       -5.6456  -24.5244  -49.4861 H         1 UNK         0.0600 
    212 H212       -6.2366  -23.9281  -52.4387 H         1 UNK         0.0600 
    213 H213       -7.0388  -25.1395  -51.4490 H         1 UNK         0.0600 
    214 H214       -5.3330  -25.3110  -51.8309 H         1 UNK         0.0600 
    215 H215       -5.5724  -22.0505  -48.4551 H         1 UNK         0.3000 
    216 H216       -6.6666  -20.2964  -47.6705 H         1 UNK         0.0600 
    217 H217       -8.2890  -22.0313  -46.8771 H         1 UNK         0.0600 
    218 H218       -9.2547  -21.7984  -48.3337 H         1 UNK         0.0600 
    219 H219       -9.0722  -20.4887  -47.1758 H         1 UNK         0.0600 
    220 H220       -5.8039  -20.1664  -50.3013 H         1 UNK         0.3000 
    221 H221       -5.5938  -18.7219  -51.9363 H         1 UNK         0.0600 
    222 H222       -8.0242  -17.1356  -50.9833 H         1 UNK         0.0600 
    223 H223       -6.3816  -16.8996  -50.3885 H         1 UNK         0.0600 
    224 H224       -6.7585  -16.5961  -52.0729 H         1 UNK         0.0600 
    225 H225       -7.6695  -21.0998  -51.9029 H         1 UNK         0.3000 
    226 H226       -9.2731  -20.5440  -54.2603 H         1 UNK         0.0600 
    227 H227       -9.9193  -22.2652  -52.5552 H         1 UNK         0.0600 
    228 H228       -9.7997  -22.9384  -54.1744 H         1 UNK         0.0600 
    229 H229       -8.5179  -23.2335  -53.0107 H         1 UNK         0.0600 
    230 H230       -6.0452  -21.8770  -53.6208 H         1 UNK         0.3000 
    231 H231       -5.5361  -22.2821  -56.5445 H         1 UNK         0.0600 
    232 H232       -3.9494  -23.2324  -54.0963 H         1 UNK         0.0600 
    233 H233       -5.0180  -24.2292  -55.0778 H         1 UNK         0.0600 
    234 H234       -3.5557  -23.5547  -55.7794 H         1 UNK         0.0600 
    235 H235       -4.4322  -20.6555  -53.5901 H         1 UNK         0.3000 
    236 H236       -3.2265  -18.8551  -53.1172 H         1 UNK         0.0600 
    237 H237       -5.0267  -17.7737  -54.4745 H         1 UNK         0.0600 
    238 H238       -3.5254  -16.8690  -54.5308 H         1 UNK         0.0600 
    239 H239       -3.9981  -17.8622  -55.9027 H         1 UNK         0.0600 
    240 H240       -1.8337  -21.0733  -54.7908 H         1 UNK         0.3000 
    241 H241        0.1085  -21.5997  -55.6808 H         1 UNK         0.0600 
    242 H242       -0.9192  -19.4719  -58.6537 H         1 UNK         0.3800 
    243 H243       -1.8823  -20.0259  -57.3050 H         1 UNK         0.3800 
    244 H244        1.2136  -19.0969  -54.3051 H         1 UNK         0.0800 
    245 H245        2.2119  -20.1809  -55.2272 H         1 UNK         0.0800 
    246 H246       -0.2162  -19.8786  -52.2629 H         1 UNK         0.0800 
    247 H247        0.3629  -21.0913  -51.1544 H         1 UNK         0.0800 
@<TRIPOS>BOND
     1    1    2 1    
     2    1  127 1    
     3    1  128 1    
     4    1  129 1    
     5    2    3 2    
     6    2    4 am   BACKBONE|DICT|INTERRES
     7    4    5 1    
     8    4  130 1    
     9    5    6 1    
    10    5   65 1    
    11    5  131 1    
    12    6    7 1    
    13    6  132 1    
    14    6  133 1    
    15    7    8 1    
    16    8    9 1    
    17    8  134 1    
    18    8  135 1    
    19    9   10 ar   
    20    9   14 ar   
    21   10   11 ar   
    22   10  136 1    
    23   11   12 ar   
    24   11  126 1    
    25   12   13 ar   
    26   12  137 1    
    27   13   14 ar   
    28   13   15 1    
    29   14  138 1    
    30   15   16 1    
    31   15  139 1    
    32   15  140 1    
    33   16   17 1    
    34   17   18 1    
    35   17  141 1    
    36   17  142 1    
    37   18   19 1    
    38   18   67 1    
    39   18  143 1    
    40   19   20 am   BACKBONE|DICT|INTERRES
    41   19  144 1    
    42   20   21 2    
    43   20   22 1    
    44   22   23 1    
    45   22   24 1    
    46   22  145 1    
    47   23  146 1    
    48   23  147 1    
    49   23  148 1    
    50   24   25 am   BACKBONE|DICT|INTERRES
    51   24  149 1    
    52   25   26 2    
    53   25   27 1    
    54   27   28 1    
    55   27   29 1    
    56   27  150 1    
    57   28  151 1    
    58   28  152 1    
    59   28  153 1    
    60   29   30 am   BACKBONE|DICT|INTERRES
    61   29  154 1    
    62   30   31 2    
    63   30   32 1    
    64   32   33 1    
    65   32   34 1    
    66   32  155 1    
    67   33  156 1    
    68   33  157 1    
    69   33  158 1    
    70   34   35 am   BACKBONE|DICT|INTERRES
    71   34  159 1    
    72   35   36 2    
    73   35   37 1    
    74   37   38 1    
    75   37   39 1    
    76   37  160 1    
    77   38  161 1    
    78   38  162 1    
    79   38  163 1    
    80   39   40 am   BACKBONE|DICT|INTERRES
    81   39  164 1    
    82   40   41 2    
    83   40   42 1    
    84   42   43 1    
    85   42   44 1    
    86   42  165 1    
    87   43  166 1    
    88   43  167 1    
    89   43  168 1    
    90   44   45 am   BACKBONE|DICT|INTERRES
    91   44  169 1    
    92   45   46 2    
    93   45   47 1    
    94   47   48 1    
    95   47   49 1    
    96   47  170 1    
    97   48  171 1    
    98   48  172 1    
    99   48  173 1    
   100   49   50 am   BACKBONE|DICT|INTERRES
   101   49  174 1    
   102   50   51 2    
   103   50   52 1    
   104   52   53 1    
   105   52   54 1    
   106   52  175 1    
   107   53  176 1    
   108   53  177 1    
   109   53  178 1    
   110   54   55 am   BACKBONE|DICT|INTERRES
   111   54  179 1    
   112   55   56 2    
   113   55   57 1    
   114   57   58 1    
   115   57   59 1    
   116   57  180 1    
   117   58  181 1    
   118   58  182 1    
   119   58  183 1    
   120   59   60 am   BACKBONE|DICT|INTERRES
   121   59  184 1    
   122   60   61 2    
   123   60   62 1    
   124   62   63 1    
   125   62   64 1    
   126   62  185 1    
   127   63  186 1    
   128   63  187 1    
   129   63  188 1    
   130   64   65 am   BACKBONE|DICT|INTERRES
   131   64  189 1    
   132   65   66 2    
   133   67   68 2    
   134   67   69 am   BACKBONE|DICT|INTERRES
   135   69   70 1    
   136   69  190 1    
   137   70   71 1    
   138   70   72 1    
   139   70  191 1    
   140   71  192 1    
   141   71  193 1    
   142   71  194 1    
   143   72   73 2    
   144   72   74 am   BACKBONE|DICT|INTERRES
   145   74   75 1    
   146   74  195 1    
   147   75   76 1    
   148   75   77 1    
   149   75  196 1    
   150   76  197 1    
   151   76  198 1    
   152   76  199 1    
   153   77   78 2    
   154   77   79 am   BACKBONE|DICT|INTERRES
   155   79   80 1    
   156   79  200 1    
   157   80   81 1    
   158   80   82 1    
   159   80  201 1    
   160   81  202 1    
   161   81  203 1    
   162   81  204 1    
   163   82   83 2    
   164   82   84 am   BACKBONE|DICT|INTERRES
   165   84   85 1    
   166   84  205 1    
   167   85   86 1    
   168   85   87 1    
   169   85  206 1    
   170   86  207 1    
   171   86  208 1    
   172   86  209 1    
   173   87   88 2    
   174   87   89 am   BACKBONE|DICT|INTERRES
   175   89   90 1    
   176   89  210 1    
   177   90   91 1    
   178   90   92 1    
   179   90  211 1    
   180   91  212 1    
   181   91  213 1    
   182   91  214 1    
   183   92   93 2    
   184   92   94 am   BACKBONE|DICT|INTERRES
   185   94   95 1    
   186   94  215 1    
   187   95   96 1    
   188   95   97 1    
   189   95  216 1    
   190   96  217 1    
   191   96  218 1    
   192   96  219 1    
   193   97   98 2    
   194   97   99 am   BACKBONE|DICT|INTERRES
   195   99  100 1    
   196   99  220 1    
   197  100  101 1    
   198  100  102 1    
   199  100  221 1    
   200  101  222 1    
   201  101  223 1    
   202  101  224 1    
   203  102  103 2    
   204  102  104 am   BACKBONE|DICT|INTERRES
   205  104  105 1    
   206  104  225 1    
   207  105  106 1    
   208  105  107 1    
   209  105  226 1    
   210  106  227 1    
   211  106  228 1    
   212  106  229 1    
   213  107  108 2    
   214  107  109 am   BACKBONE|DICT|INTERRES
   215  109  110 1    
   216  109  230 1    
   217  110  111 1    
   218  110  112 1    
   219  110  231 1    
   220  111  232 1    
   221  111  233 1    
   222  111  234 1    
   223  112  113 2    
   224  112  114 am   BACKBONE|DICT|INTERRES
   225  114  115 1    
   226  114  235 1    
   227  115  116 1    
   228  115  117 1    
   229  115  236 1    
   230  116  237 1    
   231  116  238 1    
   232  116  239 1    
   233  117  118 2    
   234  117  119 am   BACKBONE|DICT|INTERRES
   235  119  120 1    
   236  119  240 1    
   237  120  121 1    
   238  120  124 1    
   239  120  241 1    
   240  121  122 am   BACKBONE|DICT|INTERRES
   241  121  123 2    
   242  122  242 1    
   243  122  243 1    
   244  124  125 1    
   245  124  244 1    
   246  124  245 1    
   247  125  126 1    
   248  126  246 1    
   249  126  247 1    
@<TRIPOS>SUBSTRUCTURE
     1 UNK         1 GROUP             0       ****    0 ROOT    
