@<TRIPOS>MOLECULE
3R540
247   249    1
SMALL
USER_CHARGES


@<TRIPOS>ATOM
      1 CA         -3.6167  -15.1860  -52.3289 C.3       0 UNK        -0.1800 
      2 C          -2.2988  -14.5639  -51.8895 C.2       0 UNK         0.5000 
      3 O          -1.8822  -13.5451  -52.4404 O.2       0 UNK        -0.5000 
      4 N          -1.6437  -15.1793  -50.8985 N.am      1 UNK        -0.5000 
      5 CA         -0.4360  -14.6704  -50.2440 C.3       1 UNK         0.1400 
      6 C6          0.2550  -15.8061  -49.4509 C.3       23 UNK        -0.0398 
      7 S7          1.8709  -15.3634  -48.7245 S.3       23 UNK        -0.2404 
      8 C8          3.0057  -15.6773  -50.1121 C.3       23 UNK        -0.0205 
      9 C9          3.2264  -17.1611  -50.3691 C.ar      23 UNK        -0.0193 
     10 C10         2.5660  -17.8033  -51.4227 C.ar      23 UNK        -0.1150 
     11 C11         2.8154  -19.1512  -51.6965 C.ar      23 UNK        -0.0193 
     12 C12         3.7425  -19.8482  -50.9216 C.ar      23 UNK        -0.1150 
     13 C13         4.3773  -19.2329  -49.8412 C.ar      23 UNK        -0.0193 
     14 C14         4.1205  -17.8851  -49.5727 C.ar      23 UNK        -0.1150 
     15 C15         5.3347  -20.0327  -48.9700 C.3       23 UNK        -0.0205 
     16 S16         4.5014  -20.7268  -47.5057 S.3       23 UNK        -0.2404 
     17 C17         3.2491  -21.8262  -48.2538 C.3       23 UNK        -0.0398 
     18 CA          3.0851  -23.1726  -47.5119 C.3       11 UNK         0.1400 
     19 N           2.7499  -23.0203  -46.0942 N.am      11 UNK        -0.5000 
     20 C           2.9187  -23.9758  -45.1688 C.2       10 UNK         0.5000 
     21 O           3.4315  -25.0704  -45.4050 O.2       10 UNK        -0.5000 
     22 CA          2.4308  -23.6723  -43.7388 C.3       10 UNK         0.1400 
     23 CB          3.5805  -23.1295  -42.8769 C.3       10 UNK        -0.1800 
     24 N           1.3142  -22.7290  -43.7119 N.am      10 UNK        -0.5000 
     25 C           0.0678  -23.0246  -44.1062 C.2       9 UNK         0.5000 
     26 O          -0.2952  -24.1544  -44.4344 O.2       9 UNK        -0.5000 
     27 CA         -0.9369  -21.8599  -44.1746 C.3       9 UNK         0.1400 
     28 CB         -1.7253  -21.7387  -42.8647 C.3       9 UNK        -0.1800 
     29 N          -0.3170  -20.5731  -44.5021 N.am      9 UNK        -0.5000 
     30 C           0.2876  -20.2997  -45.6686 C.2       8 UNK         0.5000 
     31 O           0.3755  -21.1022  -46.5967 O.2       8 UNK        -0.5000 
     32 CA          0.9018  -18.9007  -45.8289 C.3       8 UNK         0.1400 
     33 CB         -0.1599  -17.9144  -46.3286 C.3       8 UNK        -0.1800 
     34 N           1.4991  -18.3959  -44.5926 N.am      8 UNK        -0.5000 
     35 C           2.5802  -18.9344  -44.0110 C.2       7 UNK         0.5000 
     36 O           3.1911  -19.9012  -44.4636 O.2       7 UNK        -0.5000 
     37 CA          3.0196  -18.3238  -42.6689 C.3       7 UNK         0.1400 
     38 CB          3.4891  -16.8715  -42.8434 C.3       7 UNK        -0.1800 
     39 N           1.9581  -18.3729  -41.6643 N.am      7 UNK        -0.5000 
     40 C           1.3868  -19.4921  -41.1959 C.2       6 UNK         0.5000 
     41 O           1.7233  -20.6279  -41.5281 O.2       6 UNK        -0.5000 
     42 CA          0.2173  -19.3126  -40.2083 C.3       6 UNK         0.1400 
     43 CB          0.7371  -19.2979  -38.7630 C.3       6 UNK        -0.1800 
     44 N          -0.5918  -18.1116  -40.4381 N.am      6 UNK        -0.5000 
     45 C          -1.2142  -17.7877  -41.5802 C.2       5 UNK         0.5000 
     46 O          -1.1423  -18.4625  -42.6117 O.2       5 UNK        -0.5000 
     47 CA         -2.0346  -16.4860  -41.5808 C.3       5 UNK         0.1400 
     48 CB         -1.5890  -15.4577  -40.5191 C.3       5 UNK        -0.1800 
     49 N          -1.9374  -15.8974  -42.9073 N.am      5 UNK        -0.5000 
     50 C          -2.8405  -15.1273  -43.5110 C.2       4 UNK         0.5000 
     51 O          -3.8872  -14.7563  -42.9763 O.2       4 UNK        -0.5000 
     52 CA         -2.5001  -14.7058  -44.9566 C.3       4 UNK         0.1400 
     53 CB         -3.6662  -13.9661  -45.6364 C.3       4 UNK        -0.1800 
     54 N          -1.2938  -13.8810  -45.0613 N.am      4 UNK        -0.5000 
     55 C          -0.0241  -14.2652  -44.8661 C.2       3 UNK         0.5000 
     56 O           0.3011  -15.3919  -44.4827 O.2       3 UNK        -0.5000 
     57 CA          1.0572  -13.2151  -45.1950 C.3       3 UNK         0.1400 
     58 CB          2.4860  -13.7733  -45.0709 C.3       3 UNK        -0.1800 
     59 N           0.8777  -12.6890  -46.5491 N.am      3 UNK        -0.5000 
     60 C           0.0843  -11.6634  -46.8868 C.2       2 UNK         0.5000 
     61 O          -0.5856  -11.0273  -46.0726 O.2       2 UNK        -0.5000 
     62 CA         -0.0065  -11.3166  -48.3858 C.3       2 UNK         0.1400 
     63 CB          1.0688  -10.2878  -48.7663 C.3       2 UNK        -0.1800 
     64 N           0.1227  -12.4906  -49.2528 N.am      2 UNK        -0.5000 
     65 C          -0.7902  -13.4674  -49.3421 C.2       1 UNK         0.5000 
     66 O          -1.8602  -13.4583  -48.7304 O.2       1 UNK        -0.5000 
     67 C           2.0441  -24.0593  -48.2240 C.2       11 UNK         0.5000 
     68 O           2.4247  -25.0171  -48.8989 O.2       11 UNK        -0.5000 
     69 N           0.7557  -23.7460  -48.0372 N.am      12 UNK        -0.5000 
     70 CA         -0.3775  -24.5264  -48.5246 C.3       12 UNK         0.1400 
     71 CB         -0.6168  -24.2715  -50.0238 C.3       12 UNK        -0.1800 
     72 C          -1.6112  -24.1735  -47.6856 C.2       12 UNK         0.5000 
     73 O          -1.7757  -23.0100  -47.3150 O.2       12 UNK        -0.5000 
     74 N          -2.4458  -25.1832  -47.4085 N.am      13 UNK        -0.5000 
     75 CA         -3.5725  -25.1538  -46.4704 C.3       13 UNK         0.1400 
     76 CB         -4.3095  -26.4995  -46.5505 C.3       13 UNK        -0.1800 
     77 C          -4.5706  -23.9968  -46.6705 C.2       13 UNK         0.5000 
     78 O          -4.7959  -23.5563  -47.7993 O.2       13 UNK        -0.5000 
     79 N          -5.1628  -23.5432  -45.5561 N.am      14 UNK        -0.5000 
     80 CA         -6.1576  -22.4651  -45.4664 C.3       14 UNK         0.1400 
     81 CB         -7.4855  -22.8986  -46.1236 C.3       14 UNK        -0.1800 
     82 C          -5.6403  -21.1031  -45.9822 C.2       14 UNK         0.5000 
     83 O          -6.4247  -20.3013  -46.4871 O.2       14 UNK        -0.5000 
     84 N          -4.3269  -20.8812  -45.8289 N.am      15 UNK        -0.5000 
     85 CA         -3.5431  -19.7392  -46.2982 C.3       15 UNK         0.1400 
     86 CB         -4.0339  -18.4077  -45.6939 C.3       15 UNK        -0.1800 
     87 C          -3.4467  -19.6976  -47.8334 C.2       15 UNK         0.5000 
     88 O          -4.2756  -19.0684  -48.4904 O.2       15 UNK        -0.5000 
     89 N          -2.4179  -20.3663  -48.3707 N.am      16 UNK        -0.5000 
     90 CA         -2.0305  -20.3954  -49.7836 C.3       16 UNK         0.1400 
     91 CB         -1.6003  -18.9967  -50.2705 C.3       16 UNK        -0.1800 
     92 C          -3.0978  -21.0496  -50.6815 C.2       16 UNK         0.5000 
     93 O          -3.4944  -20.4713  -51.6974 O.2       16 UNK        -0.5000 
     94 N          -3.5315  -22.2526  -50.2793 N.am      17 UNK        -0.5000 
     95 CA         -4.5170  -23.1088  -50.9499 C.3       17 UNK         0.1400 
     96 CB         -4.0117  -23.5627  -52.3357 C.3       17 UNK        -0.1800 
     97 C          -5.9083  -22.4502  -50.9956 C.2       17 UNK         0.5000 
     98 O          -6.5116  -22.3490  -52.0632 O.2       17 UNK        -0.5000 
     99 N          -6.3742  -21.9944  -49.8245 N.am      18 UNK        -0.5000 
    100 CA        -7.6239  -21.2553  -49.6073 C.3       18 UNK         0.1400 
    101 CB        -8.8504  -22.1483  -49.8927 C.3       18 UNK        -0.1800 
    102 C         -7.6529  -19.9122  -50.3678 C.2       18 UNK         0.5000 
    103 O         -8.6383  -19.5999  -51.0392 O.2       18 UNK        -0.5000 
    104 N         -6.5558  -19.1492  -50.2472 N.am      19 UNK        -0.5000 
    105 CA        -6.3045  -17.8435  -50.8638 C.3       19 UNK         0.1400 
    106 CB        -7.2372  -16.7684  -50.2692 C.3       19 UNK        -0.1800 
    107 C         -6.3163  -17.8736  -52.4075 C.2       19 UNK         0.5000 
    108 O         -6.7433  -16.9068  -53.0405 O.2       19 UNK        -0.5000 
    109 N         -5.8180  -18.9727  -52.9877 N.am      20 UNK        -0.5000 
    110 CA        -5.7038  -19.1833  -54.4337 C.3       20 UNK         0.1400 
    111 CB        -6.1454  -20.6184  -54.7618 C.3       20 UNK        -0.1800 
    112 C         -4.2743  -18.9196  -54.9452 C.2       20 UNK         0.5000 
    113 O         -3.9620  -19.2898  -56.0782 O.2       20 UNK        -0.5000 
    114 N         -3.4169  -18.3332  -54.0944 N.am      21 UNK        -0.5000 
    115 CA        -1.9884  -18.0719  -54.3138 C.3       21 UNK         0.1400 
    116 CB        -1.7846  -16.9914  -55.3961 C.3       21 UNK        -0.1800 
    117 C         -1.2021  -19.3682  -54.6001 C.2       21 UNK         0.5000 
    118 O         -0.3207  -19.3869  -55.4605 O.2       21 UNK        -0.5000 
    119 N         -1.5710  -20.4336  -53.8776 N.am      22 UNK        -0.5000 
    120 CA        -1.0638  -21.8087  -54.0088 C.3       22 UNK         0.1400 
    121 C         -1.5378  -22.5549  -55.2940 C.2       22 UNK         0.5000 
    122 N         -2.4470  -22.0098  -56.0950 N.am      22 UNK        -0.7600 
    123 O         -1.0980  -23.6708  -55.5565 O.2       22 UNK        -0.5000 
    124 C124        0.4674  -21.9418  -53.7793 C.3       23 UNK        -0.0398 
    125 S125        1.0245  -21.1966  -52.2079 S.3       23 UNK        -0.2404 
    126 C126        2.1029  -19.8661  -52.8317 C.3       23 UNK        -0.0205 
    127 H127       -3.6867  -15.2102  -53.4158 H         1 UNK         0.0600 
    128 H128       -4.4534  -14.6000  -51.9486 H         1 UNK         0.0600 
    129 H129       -3.7183  -16.2055  -51.9597 H         1 UNK         0.0600 
    130 H130       -2.0722  -15.9766  -50.4538 H         1 UNK         0.3000 
    131 H131        0.2482  -14.3297  -51.0241 H         1 UNK         0.0600 
    132 H132       -0.3981  -16.1448  -48.6462 H         1 UNK         0.0800 
    133 H133        0.3981  -16.6702  -50.0976 H         1 UNK         0.0800 
    134 H134        2.6345  -15.1820  -51.0104 H         1 UNK         0.0800 
    135 H135        3.9650  -15.2088  -49.8871 H         1 UNK         0.0800 
    136 H136        1.8673  -17.2515  -52.0356 H         1 UNK         0.1150 
    137 H137        3.9476  -20.8837  -51.1522 H         1 UNK         0.1150 
    138 H138        4.6189  -17.3979  -48.7463 H         1 UNK         0.1150 
    139 H139        5.7930  -20.8394  -49.5444 H         1 UNK         0.0800 
    140 H140        6.1533  -19.3918  -48.6396 H         1 UNK         0.0800 
    141 H141        3.5384  -22.0377  -49.2822 H         1 UNK         0.0800 
    142 H142        2.3068  -21.2799  -48.3103 H         1 UNK         0.0800 
    143 H143        4.0456  -23.6898  -47.5711 H         1 UNK         0.0600 
    144 H144        2.3181  -22.1462  -45.8260 H         1 UNK         0.3000 
    145 H145        2.0947  -24.6131  -43.2979 H         1 UNK         0.0600 
    146 H146        3.2617  -22.9766  -41.8458 H         1 UNK         0.0600 
    147 H147        4.4182  -23.8276  -42.8581 H         1 UNK         0.0600 
    148 H148        3.9543  -22.1782  -43.2562 H         1 UNK         0.0600 
    149 H149        1.5222  -21.7874  -43.3999 H         1 UNK         0.3000 
    150 H150       -1.6504  -22.0914  -44.9642 H         1 UNK         0.0600 
    151 H151       -2.2647  -22.6615  -42.6477 H         1 UNK         0.0600 
    152 H152       -2.4602  -20.9350  -42.9153 H         1 UNK         0.0600 
    153 H153       -1.0644  -21.5415  -42.0224 H         1 UNK         0.0600 
    154 H154       -0.3886  -19.8392  -43.8024 H         1 UNK         0.3000 
    155 H155        1.6879  -18.9683  -46.5846 H         1 UNK         0.0600 
    156 H156       -0.6415  -18.2789  -47.2354 H         1 UNK         0.0600 
    157 H157        0.2920  -16.9529  -46.5659 H         1 UNK         0.0600 
    158 H158       -0.9361  -17.7479  -45.5813 H         1 UNK         0.0600 
    159 H159        1.0520  -17.5946  -44.1672 H         1 UNK         0.3000 
    160 H160        3.8613  -18.9116  -42.2966 H         1 UNK         0.0600 
    161 H161        2.6647  -16.2164  -43.1243 H         1 UNK         0.0600 
    162 H162        4.2512  -16.7951  -43.6201 H         1 UNK         0.0600 
    163 H163        3.9238  -16.4847  -41.9216 H         1 UNK         0.0600 
    164 H164        1.6029  -17.4874  -41.3368 H         1 UNK         0.3000 
    165 H165       -0.4422  -20.1740  -40.3171 H         1 UNK         0.0600 
    166 H166       -0.0848  -19.2742  -38.0473 H         1 UNK         0.0600 
    167 H167        1.3249  -20.1919  -38.5500 H         1 UNK         0.0600 
    168 H168        1.3743  -18.4332  -38.5731 H         1 UNK         0.0600 
    169 H169       -0.6972  -17.4917  -39.6483 H         1 UNK         0.3000 
    170 H170       -3.0720  -16.7674  -41.3905 H         1 UNK         0.0600 
    171 H171       -1.7404  -15.8344  -39.5071 H         1 UNK         0.0600 
    172 H172       -0.5356  -15.1967  -40.6293 H         1 UNK         0.0600 
    173 H173       -2.1658  -14.5361  -40.5991 H         1 UNK         0.0600 
    174 H174       -1.0911  -16.1223  -43.4239 H         1 UNK         0.3000 
    175 H175       -2.3174  -15.6199  -45.5224 H         1 UNK         0.0600 
    176 H176       -3.8782  -13.0140  -45.1484 H         1 UNK         0.0600 
    177 H177       -3.4505  -13.7633  -46.6842 H         1 UNK         0.0600 
    178 H178       -4.5788  -14.5629  -45.6084 H         1 UNK         0.0600 
    179 H179       -1.4399  -12.9251  -45.3610 H         1 UNK         0.3000 
    180 H180        0.9547  -12.4030  -44.4723 H         1 UNK         0.0600 
    181 H181        3.2281  -13.0258  -45.3515 H         1 UNK         0.0600 
    182 H182        2.6364  -14.6492  -45.7037 H         1 UNK         0.0600 
    183 H183        2.6989  -14.0653  -44.0429 H         1 UNK         0.0600 
    184 H184        1.3466  -13.1947  -47.2874 H         1 UNK         0.3000 
    185 H185       -0.9863  -10.8678  -48.5633 H         1 UNK         0.0600 
    186 H186        0.9848   -9.3904  -48.1519 H         1 UNK         0.0600 
    187 H187        2.0750  -10.6862  -48.6294 H         1 UNK         0.0600 
    188 H188        0.9681   -9.9781  -49.8066 H         1 UNK         0.0600 
    189 H189        0.9791  -12.5661  -49.7827 H         1 UNK         0.3000 
    190 H190        0.5059  -22.9446  -47.4609 H         1 UNK         0.3000 
    191 H191       -0.1583  -25.5859  -48.3758 H         1 UNK         0.0600 
    192 H192        0.2149  -24.6385  -50.6251 H         1 UNK         0.0600 
    193 H193       -1.5157  -24.7822  -50.3705 H         1 UNK         0.0600 
    194 H194       -0.7339  -23.2119  -50.2408 H         1 UNK         0.0600 
    195 H195       -2.2399  -26.0892  -47.8023 H         1 UNK         0.3000 
    196 H196       -3.1407  -25.0555  -45.4723 H         1 UNK         0.0600 
    197 H197       -5.1405  -26.5375  -45.8448 H         1 UNK         0.0600 
    198 H198       -3.6456  -27.3302  -46.3105 H         1 UNK         0.0600 
    199 H199       -4.7183  -26.6720  -47.5471 H         1 UNK         0.0600 
    200 H200       -4.9229  -23.9790  -44.6763 H         1 UNK         0.3000 
    201 H201       -6.3549  -22.3194  -44.4035 H         1 UNK         0.0600 
    202 H202       -7.8580  -23.8217  -45.6798 H         1 UNK         0.0600 
    203 H203       -7.3735  -23.0682  -47.1937 H         1 UNK         0.0600 
    204 H204       -8.2600  -22.1425  -45.9897 H         1 UNK         0.0600 
    205 H205       -3.7885  -21.6391  -45.4372 H         1 UNK         0.3000 
    206 H206       -2.5356  -19.8927  -45.9196 H         1 UNK         0.0600 
    207 H207       -3.9784  -18.4243  -44.6053 H         1 UNK         0.0600 
    208 H208       -3.4137  -17.5825  -46.0404 H         1 UNK         0.0600 
    209 H209       -5.0595  -18.1726  -45.9776 H         1 UNK         0.0600 
    210 H210       -1.8588  -20.9617  -47.7661 H         1 UNK         0.3000 
    211 H211       -1.1468  -21.0304  -49.8376 H         1 UNK         0.0600 
    212 H212       -2.4327  -18.2935  -50.2886 H         1 UNK         0.0600 
    213 H213       -1.1859  -19.0452  -51.2774 H         1 UNK         0.0600 
    214 H214       -0.8231  -18.5916  -49.6253 H         1 UNK         0.0600 
    215 H215       -3.2187  -22.5891  -49.3771 H         1 UNK         0.3000 
    216 H216       -4.6193  -24.0075  -50.3411 H         1 UNK         0.0600 
    217 H217       -4.6958  -24.2872  -52.7786 H         1 UNK         0.0600 
    218 H218       -3.0367  -24.0434  -52.2632 H         1 UNK         0.0600 
    219 H219       -3.9292  -22.7303  -53.0340 H         1 UNK         0.0600 
    220 H220       -5.8075  -22.1713  -49.0018 H         1 UNK         0.3000 
    221 H221       -7.6597  -21.0005  -48.5507 H         1 UNK         0.0600 
    222 H222       -8.9348  -22.4016  -50.9497 H         1 UNK         0.0600 
    223 H223       -8.8007  -23.0791  -49.3279 H         1 UNK         0.0600 
    224 H224       -9.7732  -21.6437  -49.6045 H         1 UNK         0.0600 
    225 H225       -5.8053  -19.4696  -49.6407 H         1 UNK         0.3000 
    226 H226       -5.2856  -17.5772  -50.5812 H         1 UNK         0.0600 
    227 H227       -7.1814  -16.7591  -49.1806 H         1 UNK         0.0600 
    228 H228       -6.9575  -15.7726  -50.6151 H         1 UNK         0.0600 
    229 H229       -8.2774  -16.9330  -50.5515 H         1 UNK         0.0600 
    230 H230       -5.4486  -19.7122  -52.4002 H         1 UNK         0.3000 
    231 H231       -6.3671  -18.5001  -54.9675 H         1 UNK         0.0600 
    232 H232       -5.4572  -21.3535  -54.3441 H         1 UNK         0.0600 
    233 H233       -6.1856  -20.7828  -55.8391 H         1 UNK         0.0600 
    234 H234       -7.1398  -20.8258  -54.3660 H         1 UNK         0.0600 
    235 H235       -3.7661  -18.1390  -53.1682 H         1 UNK         0.3000 
    236 H236       -1.5964  -17.6765  -53.3757 H         1 UNK         0.0600 
    237 H237       -2.3499  -16.0885  -55.1695 H         1 UNK         0.0600 
    238 H238       -0.7347  -16.7048  -55.4672 H         1 UNK         0.0600 
    239 H239       -2.0946  -17.3407  -56.3813 H         1 UNK         0.0600 
    240 H240       -2.3252  -20.3203  -53.2061 H         1 UNK         0.3000 
    241 H241       -1.5388  -22.3512  -53.1929 H         1 UNK         0.0600 
    242 H242       -2.8135  -21.0818  -55.9249 H         1 UNK         0.3800 
    243 H243       -2.7456  -22.5169  -56.9128 H         1 UNK         0.3800 
    244 H244        0.7519  -22.9948  -53.7498 H         1 UNK         0.0800 
    245 H245        1.0188  -21.5105  -54.6156 H         1 UNK         0.0800 
    246 H246        2.8481  -20.2871  -53.5080 H         1 UNK         0.0800 
    247 H247        1.5117  -19.1621  -53.4173 H         1 UNK         0.0800 
@<TRIPOS>BOND
     1    1    2 1    
     2    1  127 1    
     3    1  128 1    
     4    1  129 1    
     5    2    3 2    
     6    2    4 am   BACKBONE|DICT|INTERRES
     7    4    5 1    
     8    4  130 1    
     9    5    6 1    
    10    5   65 1    
    11    5  131 1    
    12    6    7 1    
    13    6  132 1    
    14    6  133 1    
    15    7    8 1    
    16    8    9 1    
    17    8  134 1    
    18    8  135 1    
    19    9   10 ar   
    20    9   14 ar   
    21   10   11 ar   
    22   10  136 1    
    23   11   12 ar   
    24   11  126 1    
    25   12   13 ar   
    26   12  137 1    
    27   13   14 ar   
    28   13   15 1    
    29   14  138 1    
    30   15   16 1    
    31   15  139 1    
    32   15  140 1    
    33   16   17 1    
    34   17   18 1    
    35   17  141 1    
    36   17  142 1    
    37   18   19 1    
    38   18   67 1    
    39   18  143 1    
    40   19   20 am   BACKBONE|DICT|INTERRES
    41   19  144 1    
    42   20   21 2    
    43   20   22 1    
    44   22   23 1    
    45   22   24 1    
    46   22  145 1    
    47   23  146 1    
    48   23  147 1    
    49   23  148 1    
    50   24   25 am   BACKBONE|DICT|INTERRES
    51   24  149 1    
    52   25   26 2    
    53   25   27 1    
    54   27   28 1    
    55   27   29 1    
    56   27  150 1    
    57   28  151 1    
    58   28  152 1    
    59   28  153 1    
    60   29   30 am   BACKBONE|DICT|INTERRES
    61   29  154 1    
    62   30   31 2    
    63   30   32 1    
    64   32   33 1    
    65   32   34 1    
    66   32  155 1    
    67   33  156 1    
    68   33  157 1    
    69   33  158 1    
    70   34   35 am   BACKBONE|DICT|INTERRES
    71   34  159 1    
    72   35   36 2    
    73   35   37 1    
    74   37   38 1    
    75   37   39 1    
    76   37  160 1    
    77   38  161 1    
    78   38  162 1    
    79   38  163 1    
    80   39   40 am   BACKBONE|DICT|INTERRES
    81   39  164 1    
    82   40   41 2    
    83   40   42 1    
    84   42   43 1    
    85   42   44 1    
    86   42  165 1    
    87   43  166 1    
    88   43  167 1    
    89   43  168 1    
    90   44   45 am   BACKBONE|DICT|INTERRES
    91   44  169 1    
    92   45   46 2    
    93   45   47 1    
    94   47   48 1    
    95   47   49 1    
    96   47  170 1    
    97   48  171 1    
    98   48  172 1    
    99   48  173 1    
   100   49   50 am   BACKBONE|DICT|INTERRES
   101   49  174 1    
   102   50   51 2    
   103   50   52 1    
   104   52   53 1    
   105   52   54 1    
   106   52  175 1    
   107   53  176 1    
   108   53  177 1    
   109   53  178 1    
   110   54   55 am   BACKBONE|DICT|INTERRES
   111   54  179 1    
   112   55   56 2    
   113   55   57 1    
   114   57   58 1    
   115   57   59 1    
   116   57  180 1    
   117   58  181 1    
   118   58  182 1    
   119   58  183 1    
   120   59   60 am   BACKBONE|DICT|INTERRES
   121   59  184 1    
   122   60   61 2    
   123   60   62 1    
   124   62   63 1    
   125   62   64 1    
   126   62  185 1    
   127   63  186 1    
   128   63  187 1    
   129   63  188 1    
   130   64   65 am   BACKBONE|DICT|INTERRES
   131   64  189 1    
   132   65   66 2    
   133   67   68 2    
   134   67   69 am   BACKBONE|DICT|INTERRES
   135   69   70 1    
   136   69  190 1    
   137   70   71 1    
   138   70   72 1    
   139   70  191 1    
   140   71  192 1    
   141   71  193 1    
   142   71  194 1    
   143   72   73 2    
   144   72   74 am   BACKBONE|DICT|INTERRES
   145   74   75 1    
   146   74  195 1    
   147   75   76 1    
   148   75   77 1    
   149   75  196 1    
   150   76  197 1    
   151   76  198 1    
   152   76  199 1    
   153   77   78 2    
   154   77   79 am   BACKBONE|DICT|INTERRES
   155   79   80 1    
   156   79  200 1    
   157   80   81 1    
   158   80   82 1    
   159   80  201 1    
   160   81  202 1    
   161   81  203 1    
   162   81  204 1    
   163   82   83 2    
   164   82   84 am   BACKBONE|DICT|INTERRES
   165   84   85 1    
   166   84  205 1    
   167   85   86 1    
   168   85   87 1    
   169   85  206 1    
   170   86  207 1    
   171   86  208 1    
   172   86  209 1    
   173   87   88 2    
   174   87   89 am   BACKBONE|DICT|INTERRES
   175   89   90 1    
   176   89  210 1    
   177   90   91 1    
   178   90   92 1    
   179   90  211 1    
   180   91  212 1    
   181   91  213 1    
   182   91  214 1    
   183   92   93 2    
   184   92   94 am   BACKBONE|DICT|INTERRES
   185   94   95 1    
   186   94  215 1    
   187   95   96 1    
   188   95   97 1    
   189   95  216 1    
   190   96  217 1    
   191   96  218 1    
   192   96  219 1    
   193   97   98 2    
   194   97   99 am   BACKBONE|DICT|INTERRES
   195   99  100 1    
   196   99  220 1    
   197  100  101 1    
   198  100  102 1    
   199  100  221 1    
   200  101  222 1    
   201  101  223 1    
   202  101  224 1    
   203  102  103 2    
   204  102  104 am   BACKBONE|DICT|INTERRES
   205  104  105 1    
   206  104  225 1    
   207  105  106 1    
   208  105  107 1    
   209  105  226 1    
   210  106  227 1    
   211  106  228 1    
   212  106  229 1    
   213  107  108 2    
   214  107  109 am   BACKBONE|DICT|INTERRES
   215  109  110 1    
   216  109  230 1    
   217  110  111 1    
   218  110  112 1    
   219  110  231 1    
   220  111  232 1    
   221  111  233 1    
   222  111  234 1    
   223  112  113 2    
   224  112  114 am   BACKBONE|DICT|INTERRES
   225  114  115 1    
   226  114  235 1    
   227  115  116 1    
   228  115  117 1    
   229  115  236 1    
   230  116  237 1    
   231  116  238 1    
   232  116  239 1    
   233  117  118 2    
   234  117  119 am   BACKBONE|DICT|INTERRES
   235  119  120 1    
   236  119  240 1    
   237  120  121 1    
   238  120  124 1    
   239  120  241 1    
   240  121  122 am   BACKBONE|DICT|INTERRES
   241  121  123 2    
   242  122  242 1    
   243  122  243 1    
   244  124  125 1    
   245  124  244 1    
   246  124  245 1    
   247  125  126 1    
   248  126  246 1    
   249  126  247 1    
@<TRIPOS>SUBSTRUCTURE
     1 UNK         1 GROUP             0       ****    0 ROOT    
