@<TRIPOS>MOLECULE
3R540
247   249    1
SMALL
USER_CHARGES


@<TRIPOS>ATOM
      1 CA         -3.3491  -13.2807  -48.0178 C.3       0 UNK        -0.1800 
      2 C          -2.5758  -14.3690  -48.7486 C.2       0 UNK         0.5000 
      3 O          -2.9522  -14.7520  -49.8560 O.2       0 UNK        -0.5000 
      4 N          -1.5001  -14.8667  -48.1346 N.am      1 UNK        -0.5000 
      5 CA         -0.6150  -15.9020  -48.6618 C.3       1 UNK         0.1400 
      6 C6         -1.2780  -17.3098  -48.6866 C.3       23 UNK        -0.0398 
      7 S7         -1.5763  -18.0405  -47.0378 S.3       23 UNK        -0.2404 
      8 C8         -3.3616  -17.7965  -46.8122 C.3       23 UNK        -0.0205 
      9 C9         -4.1293  -19.0741  -47.1069 C.ar      23 UNK        -0.0193 
     10 C10        -4.6002  -19.3410  -48.3953 C.ar      23 UNK        -0.1150 
     11 C11        -5.3177  -20.5141  -48.6602 C.ar      23 UNK        -0.0193 
     12 C12        -5.5648  -21.4100  -47.6156 C.ar      23 UNK        -0.1150 
     13 C13        -5.1124  -21.1537  -46.3186 C.ar      23 UNK        -0.0193 
     14 C14        -4.3897  -19.9802  -46.0750 C.ar      23 UNK        -0.1150 
     15 C15        -5.4927  -22.1292  -45.2043 C.3       23 UNK        -0.0205 
     16 S16        -4.3656  -22.1709  -43.7697 S.3       23 UNK        -0.2404 
     17 C17        -2.9106  -23.0346  -44.4554 C.3       23 UNK        -0.0398 
     18 CA         -1.5868  -22.2441  -44.2618 C.3       11 UNK         0.1400 
     19 N          -1.3345  -21.8404  -42.8709 N.am      11 UNK        -0.5000 
     20 C          -1.1261  -22.6448  -41.8168 C.2       10 UNK         0.5000 
     21 O          -1.1891  -23.8736  -41.8712 O.2       10 UNK        -0.5000 
     22 CA         -0.7497  -21.9765  -40.4777 C.3       10 UNK         0.1400 
     23 CB          0.7361  -22.2146  -40.1638 C.3       10 UNK        -0.1800 
     24 N          -1.0067  -20.5363  -40.4554 N.am      10 UNK        -0.5000 
     25 C          -2.2171  -19.9788  -40.3196 C.2       9 UNK         0.5000 
     26 O          -3.2459  -20.6198  -40.1032 O.2       9 UNK        -0.5000 
     27 CA         -2.2936  -18.4487  -40.4811 C.3       9 UNK         0.1400 
     28 CB         -2.0607  -17.7511  -39.1326 C.3       9 UNK        -0.1800 
     29 N          -1.3453  -17.9258  -41.4681 N.am      9 UNK        -0.5000 
     30 C          -1.3695  -18.2075  -42.7790 C.2       8 UNK         0.5000 
     31 O          -2.2137  -18.9284  -43.3072 O.2       8 UNK        -0.5000 
     32 CA         -0.2268  -17.6328  -43.6318 C.3       8 UNK         0.1400 
     33 CB         -0.4661  -16.1460  -43.9327 C.3       8 UNK        -0.1800 
     34 N           1.0788  -17.8109  -43.0006 N.am      8 UNK        -0.5000 
     35 C           1.6606  -18.9976  -42.7781 C.2       7 UNK         0.5000 
     36 O           1.1774  -20.0752  -43.1257 O.2       7 UNK        -0.5000 
     37 CA          2.9861  -18.9810  -41.9979 C.3       7 UNK         0.1400 
     38 CB          4.1822  -18.7587  -42.9357 C.3       7 UNK        -0.1800 
     39 N           2.9904  -17.9606  -40.9505 N.am      7 UNK        -0.5000 
     40 C           2.2445  -18.0156  -39.8382 C.2       6 UNK         0.5000 
     41 O           1.5068  -18.9590  -39.5532 O.2       6 UNK        -0.5000 
     42 CA          2.3007  -16.7830  -38.9176 C.3       6 UNK         0.1400 
     43 CB          3.5467  -16.8293  -38.0206 C.3       6 UNK        -0.1800 
     44 N           2.2878  -15.5263  -39.6700 N.am      6 UNK        -0.5000 
     45 C           1.2429  -15.0900  -40.3875 C.2       5 UNK         0.5000 
     46 O           0.1694  -15.6862  -40.4578 O.2       5 UNK        -0.5000 
     47 CA          1.4404  -13.7931  -41.1940 C.3       5 UNK         0.1400 
     48 CB          1.0869  -12.5685  -40.3371 C.3       5 UNK        -0.1800 
     49 N           2.7931  -13.6328  -41.7353 N.am      5 UNK        -0.5000 
     50 C           3.3658  -14.4590  -42.6198 C.2       4 UNK         0.5000 
     51 O           2.8381  -15.4917  -43.0400 O.2       4 UNK        -0.5000 
     52 CA          4.7826  -14.0927  -43.0745 C.3       4 UNK         0.1400 
     53 CB          5.8227  -14.5826  -42.0507 C.3       4 UNK        -0.1800 
     54 N           5.0390  -14.7094  -44.3715 N.am      4 UNK        -0.5000 
     55 C           5.9308  -14.2807  -45.2728 C.2       3 UNK         0.5000 
     56 O           6.6327  -13.2817  -45.1081 O.2       3 UNK        -0.5000 
     57 CA          6.0917  -15.1021  -46.5673 C.3       3 UNK         0.1400 
     58 CB          7.4277  -15.8628  -46.5492 C.3       3 UNK        -0.1800 
     59 N           5.0123  -16.0717  -46.7654 N.am      3 UNK        -0.5000 
     60 C           3.9022  -15.8516  -47.4812 C.2       2 UNK         0.5000 
     61 O           3.6853  -14.8049  -48.0961 O.2       2 UNK        -0.5000 
     62 CA          2.9122  -17.0359  -47.5511 C.3       2 UNK         0.1400 
     63 CB          2.6374  -17.6537  -46.1629 C.3       2 UNK        -0.1800 
     64 N           1.6425  -16.7518  -48.2253 N.am      2 UNK        -0.5000 
     65 C           0.7096  -15.8570  -47.8698 C.2       1 UNK         0.5000 
     66 O           0.8394  -15.0445  -46.9489 O.2       1 UNK        -0.5000 
     67 C          -0.3672  -22.9868  -44.8601 C.2       11 UNK         0.5000 
     68 O          -0.5304  -23.8830  -45.6899 O.2       11 UNK        -0.5000 
     69 N           0.8404  -22.6168  -44.4079 N.am      12 UNK        -0.5000 
     70 CA          2.0997  -23.3000  -44.7101 C.3       12 UNK         0.1400 
     71 CB          3.1613  -22.8492  -43.6951 C.3       12 UNK        -0.1800 
     72 C           2.5948  -23.0700  -46.1488 C.2       12 UNK         0.5000 
     73 O           3.3716  -23.8780  -46.6594 O.2       12 UNK        -0.5000 
     74 N           2.1357  -21.9814  -46.7729 N.am      13 UNK        -0.5000 
     75 CA          2.4505  -21.5975  -48.1422 C.3       13 UNK         0.1400 
     76 CB          3.7525  -20.7757  -48.1715 C.3       13 UNK        -0.1800 
     77 C           1.2337  -20.8795  -48.7420 C.2       13 UNK         0.5000 
     78 O           1.3215  -19.7097  -49.1203 O.2       13 UNK        -0.5000 
     79 N           0.1060  -21.6051  -48.7845 N.am      14 UNK        -0.5000 
     80 CA         -1.1501  -21.2039  -49.4217 C.3       14 UNK         0.1400 
     81 CB         -2.1802  -22.3289  -49.2419 C.3       14 UNK        -0.1800 
     82 C          -0.9437  -20.8714  -50.9126 C.2       14 UNK         0.5000 
     83 O          -0.3402  -21.6710  -51.6317 O.2       14 UNK        -0.5000 
     84 N          -1.4161  -19.6903  -51.3282 N.am      15 UNK        -0.5000 
     85 CA         -1.1752  -19.0575  -52.6258 C.3       15 UNK         0.1400 
     86 CB         -1.7509  -17.6324  -52.5805 C.3       15 UNK        -0.1800 
     87 C          -1.7386  -19.8701  -53.8074 C.2       15 UNK         0.5000 
     88 O          -2.9015  -19.6999  -54.1671 O.2       15 UNK        -0.5000 
     89 N          -0.8957  -20.7555  -54.3581 N.am      16 UNK        -0.5000 
     90 CA         -1.1951  -21.7601  -55.3856 C.3       16 UNK         0.1400 
     91 CB         -1.6206  -21.1073  -56.7164 C.3       16 UNK        -0.1800 
     92 C          -2.1613  -22.8657  -54.9027 C.2       16 UNK         0.5000 
     93 O          -2.8116  -23.5119  -55.7256 O.2       16 UNK        -0.5000 
     94 N          -2.1947  -23.0907  -53.5797 N.am      17 UNK        -0.5000 
     95 CA         -2.8827  -24.1424  -52.8197 C.3       17 UNK         0.1400 
     96 CB         -2.2979  -25.5276  -53.1534 C.3       17 UNK        -0.1800 
     97 C          -4.4215  -24.1576  -52.9152 C.2       17 UNK         0.5000 
     98 O          -5.0885  -24.1241  -51.8811 O.2       17 UNK        -0.5000 
     99 N          -4.9567  -24.2367  -54.1361 N.am      18 UNK        -0.5000 
    100 CA        -6.3812  -24.3736  -54.4449 C.3       18 UNK         0.1400 
    101 CB        -6.8021  -25.8503  -54.3100 C.3       18 UNK        -0.1800 
    102 C         -6.7139  -23.7875  -55.8311 C.2       18 UNK         0.5000 
    103 O         -7.7043  -24.1850  -56.4470 O.2       18 UNK        -0.5000 
    104 N         -5.8767  -22.8611  -56.3055 N.am      19 UNK        -0.5000 
    105 CA        -6.0159  -22.1285  -57.5581 C.3       19 UNK         0.1400 
    106 CB        -5.1171  -22.7833  -58.6210 C.3       19 UNK        -0.1800 
    107 C         -5.6137  -20.6684  -57.3079 C.2       19 UNK         0.5000 
    108 O         -5.1093  -20.3548  -56.2281 O.2       19 UNK        -0.5000 
    109 N         -5.8436  -19.7998  -58.3028 N.am      20 UNK        -0.5000 
    110 CA        -5.5495  -18.3616  -58.2844 C.3       20 UNK         0.1400 
    111 CB        -4.0227  -18.1244  -58.3479 C.3       20 UNK        -0.1800 
    112 C         -6.2504  -17.6603  -57.1003 C.2       20 UNK         0.5000 
    113 O         -7.4801  -17.7037  -57.0248 O.2       20 UNK        -0.5000 
    114 N         -5.4754  -17.0727  -56.1787 N.am      21 UNK        -0.5000 
    115 CA        -5.9586  -16.4427  -54.9470 C.3       21 UNK         0.1400 
    116 CB        -4.7851  -15.7346  -54.2552 C.3       21 UNK        -0.1800 
    117 C         -6.6546  -17.4217  -53.9781 C.2       21 UNK         0.5000 
    118 O         -7.5415  -17.0000  -53.2345 O.2       21 UNK        -0.5000 
    119 N         -6.2726  -18.7032  -54.0291 N.am      22 UNK        -0.5000 
    120 CA        -6.9364  -19.8115  -53.3287 C.3       22 UNK         0.1400 
    121 C         -8.0788  -20.4754  -54.1570 C.2       22 UNK         0.5000 
    122 N         -8.4574  -19.9708  -55.3261 N.am      22 UNK        -0.7600 
    123 O         -8.6566  -21.4665  -53.7201 O.2       22 UNK        -0.5000 
    124 C124       -5.9086  -20.8562  -52.8238 C.3       23 UNK        -0.0398 
    125 S125       -4.8957  -20.2312  -51.4420 S.3       23 UNK        -0.2404 
    126 C126       -5.8980  -20.8206  -50.0384 C.3       23 UNK        -0.0205 
    127 H127       -2.9032  -13.0470  -47.0506 H         1 UNK         0.0600 
    128 H128       -4.3774  -13.6007  -47.8494 H         1 UNK         0.0600 
    129 H129       -3.3675  -12.3683  -48.6138 H         1 UNK         0.0600 
    130 H130       -1.1852  -14.4941  -47.2466 H         1 UNK         0.3000 
    131 H131       -0.3650  -15.6251  -49.6881 H         1 UNK         0.0600 
    132 H132       -0.6387  -17.9969  -49.2375 H         1 UNK         0.0800 
    133 H133       -2.2113  -17.2808  -49.2488 H         1 UNK         0.0800 
    134 H134       -3.7227  -16.9766  -47.4341 H         1 UNK         0.0800 
    135 H135       -3.5385  -17.4911  -45.7796 H         1 UNK         0.0800 
    136 H136       -4.4191  -18.6258  -49.1846 H         1 UNK         0.1150 
    137 H137       -6.1406  -22.3047  -47.8085 H         1 UNK         0.1150 
    138 H138       -4.0413  -19.7536  -45.0775 H         1 UNK         0.1150 
    139 H139       -6.4852  -21.8547  -44.8453 H         1 UNK         0.0800 
    140 H140       -5.5821  -23.1410  -45.6032 H         1 UNK         0.0800 
    141 H141       -3.0805  -23.2209  -45.5172 H         1 UNK         0.0800 
    142 H142       -2.8473  -24.0164  -43.9842 H         1 UNK         0.0800 
    143 H143       -1.6747  -21.3161  -44.8292 H         1 UNK         0.0600 
    144 H144       -1.2837  -20.8408  -42.7221 H         1 UNK         0.3000 
    145 H145       -1.3445  -22.4509  -39.6945 H         1 UNK         0.0600 
    146 H146        1.0057  -21.7986  -39.1929 H         1 UNK         0.0600 
    147 H147        0.9664  -23.2803  -40.1360 H         1 UNK         0.0600 
    148 H148        1.3828  -21.7589  -40.9138 H         1 UNK         0.0600 
    149 H149       -0.2027  -19.9301  -40.5662 H         1 UNK         0.3000 
    150 H150       -3.3006  -18.2030  -40.8243 H         1 UNK         0.0600 
    151 H151       -2.7606  -18.1125  -38.3781 H         1 UNK         0.0600 
    152 H152       -2.2016  -16.6735  -39.2173 H         1 UNK         0.0600 
    153 H153       -1.0516  -17.9279  -38.7584 H         1 UNK         0.0600 
    154 H154       -0.6434  -17.2774  -41.1205 H         1 UNK         0.3000 
    155 H155       -0.1995  -18.1781  -44.5752 H         1 UNK         0.0600 
    156 H156       -0.6278  -15.5674  -43.0243 H         1 UNK         0.0600 
    157 H157       -1.3459  -16.0164  -44.5638 H         1 UNK         0.0600 
    158 H158        0.3804  -15.7066  -44.4581 H         1 UNK         0.0600 
    159 H159        1.5835  -16.9671  -42.7485 H         1 UNK         0.3000 
    160 H160        3.1034  -19.9587  -41.5258 H         1 UNK         0.0600 
    161 H161        4.1580  -17.7722  -43.3975 H         1 UNK         0.0600 
    162 H162        4.1952  -19.4974  -43.7376 H         1 UNK         0.0600 
    163 H163        5.1250  -18.8499  -42.3963 H         1 UNK         0.0600 
    164 H164        3.5268  -17.1259  -41.1327 H         1 UNK         0.3000 
    165 H165        1.4169  -16.8058  -38.2763 H         1 UNK         0.0600 
    166 H166        3.5533  -16.0002  -37.3128 H         1 UNK         0.0600 
    167 H167        3.5740  -17.7518  -37.4391 H         1 UNK         0.0600 
    168 H168        4.4675  -16.7808  -38.6033 H         1 UNK         0.0600 
    169 H169        3.1328  -14.9747  -39.6615 H         1 UNK         0.3000 
    170 H170        0.7502  -13.8249  -42.0391 H         1 UNK         0.0600 
    171 H171        0.0749  -12.6504  -39.9380 H         1 UNK         0.0600 
    172 H172        1.7658  -12.4589  -39.4905 H         1 UNK         0.0600 
    173 H173        1.1294  -11.6506  -40.9236 H         1 UNK         0.0600 
    174 H174        3.3021  -12.8157  -41.4297 H         1 UNK         0.3000 
    175 H175        4.8418  -13.0065  -43.1705 H         1 UNK         0.0600 
    176 H176        5.7962  -15.6675  -41.9402 H         1 UNK         0.0600 
    177 H177        6.8333  -14.3029  -42.3487 H         1 UNK         0.0600 
    178 H178        5.6450  -14.1460  -41.0672 H         1 UNK         0.0600 
    179 H179        4.4356  -15.4910  -44.5896 H         1 UNK         0.3000 
    180 H180        6.1162  -14.3975  -47.4013 H         1 UNK         0.0600 
    181 H181        7.4751  -16.5756  -45.7249 H         1 UNK         0.0600 
    182 H182        8.2682  -15.1764  -46.4379 H         1 UNK         0.0600 
    183 H183        7.5811  -16.4123  -47.4782 H         1 UNK         0.0600 
    184 H184        5.1353  -16.9688  -46.3192 H         1 UNK         0.3000 
    185 H185        3.3976  -17.7905  -48.1696 H         1 UNK         0.0600 
    186 H186        3.5316  -18.1165  -45.7481 H         1 UNK         0.0600 
    187 H187        2.2923  -16.9029  -45.4520 H         1 UNK         0.0600 
    188 H188        1.8763  -18.4325  -46.2197 H         1 UNK         0.0600 
    189 H189        1.4319  -17.3921  -48.9799 H         1 UNK         0.3000 
    190 H190        0.8971  -21.8198  -43.7775 H         1 UNK         0.3000 
    191 H191        1.9422  -24.3733  -44.5849 H         1 UNK         0.0600 
    192 H192        2.8453  -23.0596  -42.6733 H         1 UNK         0.0600 
    193 H193        3.3596  -21.7803  -43.7717 H         1 UNK         0.0600 
    194 H194        4.1053  -23.3710  -43.8576 H         1 UNK         0.0600 
    195 H195        1.4836  -21.3866  -46.2810 H         1 UNK         0.3000 
    196 H196        2.6034  -22.4918  -48.7502 H         1 UNK         0.0600 
    197 H197        3.9387  -20.3573  -49.1613 H         1 UNK         0.0600 
    198 H198        4.6103  -21.3981  -47.9169 H         1 UNK         0.0600 
    199 H199        3.7216  -19.9554  -47.4575 H         1 UNK         0.0600 
    200 H200        0.1401  -22.5522  -48.4364 H         1 UNK         0.3000 
    201 H201       -1.5230  -20.3183  -48.9069 H         1 UNK         0.0600 
    202 H202       -2.4390  -22.4584  -48.1905 H         1 UNK         0.0600 
    203 H203       -1.8046  -23.2821  -49.6147 H         1 UNK         0.0600 
    204 H204       -3.1038  -22.1082  -49.7773 H         1 UNK         0.0600 
    205 H205       -1.9821  -19.1547  -50.6892 H         1 UNK         0.3000 
    206 H206       -0.0949  -18.9712  -52.7599 H         1 UNK         0.0600 
    207 H207       -1.2417  -17.0222  -51.8346 H         1 UNK         0.0600 
    208 H208       -1.6333  -17.1320  -53.5424 H         1 UNK         0.0600 
    209 H209       -2.8143  -17.6387  -52.3368 H         1 UNK         0.0600 
    210 H210        0.0200  -20.8415  -53.9373 H         1 UNK         0.3000 
    211 H211       -0.2510  -22.2726  -55.5745 H         1 UNK         0.0600 
    212 H212       -2.5801  -20.6028  -56.6302 H         1 UNK         0.0600 
    213 H213       -1.7144  -21.8511  -57.5081 H         1 UNK         0.0600 
    214 H214       -0.8866  -20.3729  -57.0475 H         1 UNK         0.0600 
    215 H215       -1.6097  -22.4865  -53.0113 H         1 UNK         0.3000 
    216 H216       -2.6456  -23.9395  -51.7751 H         1 UNK         0.0600 
    217 H217       -2.7589  -26.3035  -52.5407 H         1 UNK         0.0600 
    218 H218       -1.2253  -25.5575  -52.9616 H         1 UNK         0.0600 
    219 H219       -2.4587  -25.7985  -54.1974 H         1 UNK         0.0600 
    220 H220       -4.3176  -24.2129  -54.9290 H         1 UNK         0.3000 
    221 H221       -6.9566  -23.7884  -53.7255 H         1 UNK         0.0600 
    222 H222       -6.2700  -26.4822  -55.0220 H         1 UNK         0.0600 
    223 H223       -6.6008  -26.2308  -53.3086 H         1 UNK         0.0600 
    224 H224       -7.8704  -25.9751  -54.4902 H         1 UNK         0.0600 
    225 H225       -5.1189  -22.5282  -55.7229 H         1 UNK         0.3000 
    226 H226       -7.0554  -22.1394  -57.8918 H         1 UNK         0.0600 
    227 H227       -5.3933  -23.8257  -58.7803 H         1 UNK         0.0600 
    228 H228       -5.2027  -22.2752  -59.5820 H         1 UNK         0.0600 
    229 H229       -4.0670  -22.7583  -58.3263 H         1 UNK         0.0600 
    230 H230       -6.2946  -20.1378  -59.1411 H         1 UNK         0.3000 
    231 H231       -5.9875  -17.9411  -59.1907 H         1 UNK         0.0600 
    232 H232       -3.5053  -18.5133  -57.4704 H         1 UNK         0.0600 
    233 H233       -3.7925  -17.0612  -58.4275 H         1 UNK         0.0600 
    234 H234       -3.5911  -18.6101  -59.2231 H         1 UNK         0.0600 
    235 H235       -4.4738  -17.1259  -56.2936 H         1 UNK         0.3000 
    236 H236       -6.6946  -15.6864  -55.2274 H         1 UNK         0.0600 
    237 H237       -5.1020  -15.2647  -53.3231 H         1 UNK         0.0600 
    238 H238       -3.9867  -16.4356  -54.0159 H         1 UNK         0.0600 
    239 H239       -4.3667  -14.9521  -54.8883 H         1 UNK         0.0600 
    240 H240       -5.5509  -18.9821  -54.6868 H         1 UNK         0.3000 
    241 H241       -7.4414  -19.4117  -52.4478 H         1 UNK         0.0600 
    242 H242       -9.2133  -20.4117  -55.8247 H         1 UNK         0.3800 
    243 H243       -8.0208  -19.1429  -55.7146 H         1 UNK         0.3800 
    244 H244       -6.4029  -21.7687  -52.4898 H         1 UNK         0.0800 
    245 H245       -5.2420  -21.1568  -53.6331 H         1 UNK         0.0800 
    246 H246       -6.8920  -20.3762  -50.0999 H         1 UNK         0.0800 
    247 H247       -6.0285  -21.8989  -50.1465 H         1 UNK         0.0800 
@<TRIPOS>BOND
     1    1    2 1    
     2    1  127 1    
     3    1  128 1    
     4    1  129 1    
     5    2    3 2    
     6    2    4 am   BACKBONE|DICT|INTERRES
     7    4    5 1    
     8    4  130 1    
     9    5    6 1    
    10    5   65 1    
    11    5  131 1    
    12    6    7 1    
    13    6  132 1    
    14    6  133 1    
    15    7    8 1    
    16    8    9 1    
    17    8  134 1    
    18    8  135 1    
    19    9   10 ar   
    20    9   14 ar   
    21   10   11 ar   
    22   10  136 1    
    23   11   12 ar   
    24   11  126 1    
    25   12   13 ar   
    26   12  137 1    
    27   13   14 ar   
    28   13   15 1    
    29   14  138 1    
    30   15   16 1    
    31   15  139 1    
    32   15  140 1    
    33   16   17 1    
    34   17   18 1    
    35   17  141 1    
    36   17  142 1    
    37   18   19 1    
    38   18   67 1    
    39   18  143 1    
    40   19   20 am   BACKBONE|DICT|INTERRES
    41   19  144 1    
    42   20   21 2    
    43   20   22 1    
    44   22   23 1    
    45   22   24 1    
    46   22  145 1    
    47   23  146 1    
    48   23  147 1    
    49   23  148 1    
    50   24   25 am   BACKBONE|DICT|INTERRES
    51   24  149 1    
    52   25   26 2    
    53   25   27 1    
    54   27   28 1    
    55   27   29 1    
    56   27  150 1    
    57   28  151 1    
    58   28  152 1    
    59   28  153 1    
    60   29   30 am   BACKBONE|DICT|INTERRES
    61   29  154 1    
    62   30   31 2    
    63   30   32 1    
    64   32   33 1    
    65   32   34 1    
    66   32  155 1    
    67   33  156 1    
    68   33  157 1    
    69   33  158 1    
    70   34   35 am   BACKBONE|DICT|INTERRES
    71   34  159 1    
    72   35   36 2    
    73   35   37 1    
    74   37   38 1    
    75   37   39 1    
    76   37  160 1    
    77   38  161 1    
    78   38  162 1    
    79   38  163 1    
    80   39   40 am   BACKBONE|DICT|INTERRES
    81   39  164 1    
    82   40   41 2    
    83   40   42 1    
    84   42   43 1    
    85   42   44 1    
    86   42  165 1    
    87   43  166 1    
    88   43  167 1    
    89   43  168 1    
    90   44   45 am   BACKBONE|DICT|INTERRES
    91   44  169 1    
    92   45   46 2    
    93   45   47 1    
    94   47   48 1    
    95   47   49 1    
    96   47  170 1    
    97   48  171 1    
    98   48  172 1    
    99   48  173 1    
   100   49   50 am   BACKBONE|DICT|INTERRES
   101   49  174 1    
   102   50   51 2    
   103   50   52 1    
   104   52   53 1    
   105   52   54 1    
   106   52  175 1    
   107   53  176 1    
   108   53  177 1    
   109   53  178 1    
   110   54   55 am   BACKBONE|DICT|INTERRES
   111   54  179 1    
   112   55   56 2    
   113   55   57 1    
   114   57   58 1    
   115   57   59 1    
   116   57  180 1    
   117   58  181 1    
   118   58  182 1    
   119   58  183 1    
   120   59   60 am   BACKBONE|DICT|INTERRES
   121   59  184 1    
   122   60   61 2    
   123   60   62 1    
   124   62   63 1    
   125   62   64 1    
   126   62  185 1    
   127   63  186 1    
   128   63  187 1    
   129   63  188 1    
   130   64   65 am   BACKBONE|DICT|INTERRES
   131   64  189 1    
   132   65   66 2    
   133   67   68 2    
   134   67   69 am   BACKBONE|DICT|INTERRES
   135   69   70 1    
   136   69  190 1    
   137   70   71 1    
   138   70   72 1    
   139   70  191 1    
   140   71  192 1    
   141   71  193 1    
   142   71  194 1    
   143   72   73 2    
   144   72   74 am   BACKBONE|DICT|INTERRES
   145   74   75 1    
   146   74  195 1    
   147   75   76 1    
   148   75   77 1    
   149   75  196 1    
   150   76  197 1    
   151   76  198 1    
   152   76  199 1    
   153   77   78 2    
   154   77   79 am   BACKBONE|DICT|INTERRES
   155   79   80 1    
   156   79  200 1    
   157   80   81 1    
   158   80   82 1    
   159   80  201 1    
   160   81  202 1    
   161   81  203 1    
   162   81  204 1    
   163   82   83 2    
   164   82   84 am   BACKBONE|DICT|INTERRES
   165   84   85 1    
   166   84  205 1    
   167   85   86 1    
   168   85   87 1    
   169   85  206 1    
   170   86  207 1    
   171   86  208 1    
   172   86  209 1    
   173   87   88 2    
   174   87   89 am   BACKBONE|DICT|INTERRES
   175   89   90 1    
   176   89  210 1    
   177   90   91 1    
   178   90   92 1    
   179   90  211 1    
   180   91  212 1    
   181   91  213 1    
   182   91  214 1    
   183   92   93 2    
   184   92   94 am   BACKBONE|DICT|INTERRES
   185   94   95 1    
   186   94  215 1    
   187   95   96 1    
   188   95   97 1    
   189   95  216 1    
   190   96  217 1    
   191   96  218 1    
   192   96  219 1    
   193   97   98 2    
   194   97   99 am   BACKBONE|DICT|INTERRES
   195   99  100 1    
   196   99  220 1    
   197  100  101 1    
   198  100  102 1    
   199  100  221 1    
   200  101  222 1    
   201  101  223 1    
   202  101  224 1    
   203  102  103 2    
   204  102  104 am   BACKBONE|DICT|INTERRES
   205  104  105 1    
   206  104  225 1    
   207  105  106 1    
   208  105  107 1    
   209  105  226 1    
   210  106  227 1    
   211  106  228 1    
   212  106  229 1    
   213  107  108 2    
   214  107  109 am   BACKBONE|DICT|INTERRES
   215  109  110 1    
   216  109  230 1    
   217  110  111 1    
   218  110  112 1    
   219  110  231 1    
   220  111  232 1    
   221  111  233 1    
   222  111  234 1    
   223  112  113 2    
   224  112  114 am   BACKBONE|DICT|INTERRES
   225  114  115 1    
   226  114  235 1    
   227  115  116 1    
   228  115  117 1    
   229  115  236 1    
   230  116  237 1    
   231  116  238 1    
   232  116  239 1    
   233  117  118 2    
   234  117  119 am   BACKBONE|DICT|INTERRES
   235  119  120 1    
   236  119  240 1    
   237  120  121 1    
   238  120  124 1    
   239  120  241 1    
   240  121  122 am   BACKBONE|DICT|INTERRES
   241  121  123 2    
   242  122  242 1    
   243  122  243 1    
   244  124  125 1    
   245  124  244 1    
   246  124  245 1    
   247  125  126 1    
   248  126  246 1    
   249  126  247 1    
@<TRIPOS>SUBSTRUCTURE
     1 UNK         1 GROUP             0       ****    0 ROOT    
