@<TRIPOS>MOLECULE
3R540
247   249    1
SMALL
USER_CHARGES


@<TRIPOS>ATOM
      1 CA          2.7912  -11.6102  -44.9551 C.3       0 UNK        -0.1800 
      2 C           4.0435  -11.4329  -45.7987 C.2       0 UNK         0.5000 
      3 O           4.1602  -10.4479  -46.5279 O.2       0 UNK        -0.5000 
      4 N           4.9771  -12.3814  -45.6978 N.am      1 UNK        -0.5000 
      5 CA          6.2682  -12.3734  -46.3824 C.3       1 UNK         0.1400 
      6 C6          6.1706  -12.5954  -47.9235 C.3       23 UNK        -0.0398 
      7 S7          5.4249  -14.1735  -48.4769 S.3       23 UNK        -0.2404 
      8 C8          3.6894  -13.7007  -48.7763 C.3       23 UNK        -0.0205 
      9 C9          2.8768  -14.8186  -49.4221 C.ar      23 UNK        -0.0193 
     10 C10         2.0128  -14.5344  -50.4837 C.ar      23 UNK        -0.1150 
     11 C11         1.2412  -15.5471  -51.0596 C.ar      23 UNK        -0.0193 
     12 C12         1.3425  -16.8530  -50.5730 C.ar      23 UNK        -0.1150 
     13 C13         2.2055  -17.1601  -49.5151 C.ar      23 UNK        -0.0193 
     14 C14         2.9591  -16.1310  -48.9456 C.ar      23 UNK        -0.1150 
     15 C15         2.3399  -18.5688  -48.9345 C.3       23 UNK        -0.0205 
     16 S16         1.9922  -19.9359  -50.0926 S.3       23 UNK        -0.2404 
     17 C17         0.1902  -20.1448  -49.9042 C.3       23 UNK        -0.0398 
     18 CA         -0.1653  -21.0991  -48.7320 C.3       11 UNK         0.1400 
     19 N          -0.6204  -20.3640  -47.5478 N.am      11 UNK        -0.5000 
     20 C          -0.8795  -20.9095  -46.3517 C.2       10 UNK         0.5000 
     21 O          -0.7254  -22.1021  -46.0911 O.2       10 UNK        -0.5000 
     22 CA         -1.4663  -19.9708  -45.2851 C.3       10 UNK         0.1400 
     23 CB         -0.3612  -19.1376  -44.6155 C.3       10 UNK        -0.1800 
     24 N          -2.5004  -19.0982  -45.8475 N.am      10 UNK        -0.5000 
     25 C          -3.7063  -19.5352  -46.2421 C.2       9 UNK         0.5000 
     26 O          -4.0825  -20.6990  -46.1138 O.2       9 UNK        -0.5000 
     27 CA         -4.6315  -18.5310  -46.9509 C.3       9 UNK         0.1400 
     28 CB         -5.5228  -17.7783  -45.9541 C.3       9 UNK        -0.1800 
     29 N          -3.8991  -17.5801  -47.7870 N.am      9 UNK        -0.5000 
     30 C          -3.2944  -17.9163  -48.9357 C.2       8 UNK         0.5000 
     31 O          -3.3245  -19.0512  -49.4074 O.2       8 UNK        -0.5000 
     32 CA         -2.4815  -16.8234  -49.6548 C.3       8 UNK         0.1400 
     33 CB         -3.3924  -16.0005  -50.5766 C.3       8 UNK        -0.1800 
     34 N          -1.7826  -15.9163  -48.7444 N.am      8 UNK        -0.5000 
     35 C          -0.9143  -16.2811  -47.7908 C.2       7 UNK         0.5000 
     36 O          -0.5946  -17.4501  -47.5741 O.2       7 UNK        -0.5000 
     37 CA         -0.3427  -15.1641  -46.8959 C.3       7 UNK         0.1400 
     38 CB         -0.4312  -13.7578  -47.5260 C.3       7 UNK        -0.1800 
     39 N          -0.9433  -15.1402  -45.5580 N.am      7 UNK        -0.5000 
     40 C          -2.2478  -15.1415  -45.2320 C.2       6 UNK         0.5000 
     41 O          -3.1622  -15.2778  -46.0459 O.2       6 UNK        -0.5000 
     42 CA         -2.6044  -14.9315  -43.7433 C.3       6 UNK         0.1400 
     43 CB         -2.8018  -16.2773  -43.0295 C.3       6 UNK        -0.1800 
     44 N          -1.6048  -14.1601  -43.0045 N.am      6 UNK        -0.5000 
     45 C          -1.2681  -12.8863  -43.2467 C.2       5 UNK         0.5000 
     46 O          -1.8780  -12.1572  -44.0296 O.2       5 UNK        -0.5000 
     47 CA         -0.0247  -12.3359  -42.5141 C.3       5 UNK         0.1400 
     48 CB         -0.4484  -11.3903  -41.3796 C.3       5 UNK        -0.1800 
     49 N           0.8975  -13.3429  -41.9663 N.am      5 UNK        -0.5000 
     50 C           1.4964  -14.3352  -42.6410 C.2       4 UNK         0.5000 
     51 O           1.2716  -14.5875  -43.8271 O.2       4 UNK        -0.5000 
     52 CA          2.4667  -15.2163  -41.8262 C.3       4 UNK         0.1400 
     53 CB          1.6895  -16.0755  -40.8143 C.3       4 UNK        -0.1800 
     54 N           3.2667  -16.1112  -42.6640 N.am      4 UNK        -0.5000 
     55 C           4.1685  -15.7257  -43.5744 C.2       3 UNK         0.5000 
     56 O           4.4994  -14.5513  -43.7672 O.2       3 UNK        -0.5000 
     57 CA          4.7558  -16.8534  -44.4422 C.3       3 UNK         0.1400 
     58 CB          3.6958  -17.3532  -45.4387 C.3       3 UNK        -0.1800 
     59 N           5.9187  -16.3727  -45.1851 N.am      3 UNK        -0.5000 
     60 C           7.1770  -16.3690  -44.7218 C.2       2 UNK         0.5000 
     61 O           7.5268  -16.9208  -43.6776 O.2       2 UNK        -0.5000 
     62 CA          8.2146  -15.5895  -45.5569 C.3       2 UNK         0.1400 
     63 CB          8.8657  -16.5043  -46.6053 C.3       2 UNK        -0.1800 
     64 N           7.6102  -14.4388  -46.2312 N.am      2 UNK        -0.5000 
     65 C           7.1896  -13.3324  -45.6049 C.2       1 UNK         0.5000 
     66 O           7.4691  -13.0724  -44.4327 O.2       1 UNK        -0.5000 
     67 C          -1.1839  -22.1736  -49.1614 C.2       11 UNK         0.5000 
     68 O          -0.8022  -23.3278  -49.3566 O.2       11 UNK        -0.5000 
     69 N          -2.4652  -21.7938  -49.2569 N.am      12 UNK        -0.5000 
     70 CA         -3.5544  -22.7010  -49.6103 C.3       12 UNK         0.1400 
     71 CB         -4.8264  -21.8956  -49.8821 C.3       12 UNK        -0.1800 
     72 C          -3.8205  -23.7810  -48.5486 C.2       12 UNK         0.5000 
     73 O          -4.1890  -24.8968  -48.9174 O.2       12 UNK        -0.5000 
     74 N          -3.6335  -23.4481  -47.2639 N.am      13 UNK        -0.5000 
     75 CA         -3.7194  -24.3961  -46.1527 C.3       13 UNK         0.1400 
     76 CB         -3.7785  -23.6435  -44.8158 C.3       13 UNK        -0.1800 
     77 C          -2.5579  -25.4042  -46.1653 C.2       13 UNK         0.5000 
     78 O          -2.7980  -26.5986  -45.9925 O.2       13 UNK        -0.5000 
     79 N          -1.3328  -24.9211  -46.4206 N.am      14 UNK        -0.5000 
     80 CA         -0.1256  -25.7401  -46.5685 C.3       14 UNK         0.1400 
     81 CB          1.1075  -24.8282  -46.6558 C.3       14 UNK        -0.1800 
     82 C          -0.1909  -26.6897  -47.7802 C.2       14 UNK         0.5000 
     83 O           0.2668  -27.8291  -47.6877 O.2       14 UNK        -0.5000 
     84 N          -0.8000  -26.2185  -48.8767 N.am      15 UNK        -0.5000 
     85 CA         -1.0995  -27.0014  -50.0776 C.3       15 UNK         0.1400 
     86 CB         -1.4079  -26.0316  -51.2297 C.3       15 UNK        -0.1800 
     87 C          -2.2665  -27.9959  -49.8950 C.2       15 UNK         0.5000 
     88 O          -2.4651  -28.8462  -50.7634 O.2       15 UNK        -0.5000 
     89 N          -3.0270  -27.8574  -48.7972 N.am      16 UNK        -0.5000 
     90 CA         -4.2421  -28.6003  -48.4410 C.3       16 UNK         0.1400 
     91 CB         -3.9333  -30.0948  -48.2148 C.3       16 UNK        -0.1800 
     92 C          -5.4124  -28.3650  -49.4215 C.2       16 UNK         0.5000 
     93 O          -6.2908  -29.2194  -49.5521 O.2       16 UNK        -0.5000 
     94 N          -5.4071  -27.2028  -50.0849 N.am      17 UNK        -0.5000 
     95 CA         -6.4394  -26.7588  -51.0168 C.3       17 UNK         0.1400 
     96 CB         -5.7812  -25.9198  -52.1246 C.3       17 UNK        -0.1800 
     97 C          -7.5193  -25.9366  -50.2966 C.2       17 UNK         0.5000 
     98 O          -8.7001  -26.0777  -50.6132 O.2       17 UNK        -0.5000 
     99 N          -7.0844  -25.0814  -49.3558 N.am      18 UNK        -0.5000 
    100 CA        -7.8852  -24.1692  -48.5239 C.3       18 UNK         0.1400 
    101 CB        -8.7749  -24.9703  -47.5522 C.3       18 UNK        -0.1800 
    102 C         -8.6867  -23.1011  -49.3092 C.2       18 UNK         0.5000 
    103 O         -9.5813  -22.4710  -48.7444 O.2       18 UNK        -0.5000 
    104 N         -8.3440  -22.8961  -50.5887 N.am      19 UNK        -0.5000 
    105 CA        -9.0163  -21.9819  -51.5169 C.3       19 UNK         0.1400 
    106 CB        -8.6941  -22.4351  -52.9504 C.3       19 UNK        -0.1800 
    107 C         -8.6339  -20.4989  -51.3307 C.2       19 UNK         0.5000 
    108 O         -9.2925  -19.6339  -51.9086 O.2       19 UNK        -0.5000 
    109 N         -7.5685  -20.2389  -50.5582 N.am      20 UNK        -0.5000 
    110 CA        -6.9415  -18.9347  -50.3114 C.3       20 UNK         0.1400 
    111 CB        -7.8707  -18.0094  -49.5001 C.3       20 UNK        -0.1800 
    112 C         -6.3821  -18.2823  -51.5929 C.2       20 UNK         0.5000 
    113 O         -6.5063  -17.0714  -51.7823 O.2       20 UNK        -0.5000 
    114 N         -5.7646  -19.1105  -52.4433 N.am      21 UNK        -0.5000 
    115 CA        -5.0464  -18.7071  -53.6476 C.3       21 UNK         0.1400 
    116 CB        -5.4406  -19.6535  -54.7920 C.3       21 UNK        -0.1800 
    117 C         -3.5338  -18.7865  -53.3887 C.2       21 UNK         0.5000 
    118 O         -3.0875  -19.6318  -52.6084 O.2       21 UNK        -0.5000 
    119 N         -2.7670  -17.9297  -54.0725 N.am      22 UNK        -0.5000 
    120 CA        -1.2966  -17.8525  -54.0137 C.3       22 UNK         0.1400 
    121 C         -0.5788  -19.0527  -54.7095 C.2       22 UNK         0.5000 
    122 N         -0.8969  -20.2831  -54.3328 N.am      22 UNK        -0.7600 
    123 O          0.2519  -18.8830  -55.5980 O.2       22 UNK        -0.5000 
    124 C124       -0.8002  -16.4549  -54.4818 C.3       23 UNK        -0.0398 
    125 S125        0.8106  -16.0023  -53.7521 S.3       23 UNK        -0.2404 
    126 C126        0.2733  -15.2399  -52.1898 C.3       23 UNK        -0.0205 
    127 H127        2.0349  -12.1633  -45.5117 H         1 UNK         0.0600 
    128 H128        2.3764  -10.6414  -44.6770 H         1 UNK         0.0600 
    129 H129        3.0128  -12.1567  -44.0387 H         1 UNK         0.0600 
    130 H130        4.8450  -13.1466  -45.0376 H         1 UNK         0.3000 
    131 H131        6.7037  -11.3830  -46.2339 H         1 UNK         0.0600 
    132 H132        5.6165  -11.7725  -48.3758 H         1 UNK         0.0800 
    133 H133        7.1674  -12.5287  -48.3621 H         1 UNK         0.0800 
    134 H134        3.2186  -13.4341  -47.8300 H         1 UNK         0.0800 
    135 H135        3.6694  -12.8074  -49.4024 H         1 UNK         0.0800 
    136 H136        1.9318  -13.5224  -50.8551 H         1 UNK         0.1150 
    137 H137        0.7439  -17.6226  -51.0339 H         1 UNK         0.1150 
    138 H138        3.6285  -16.3558  -48.1303 H         1 UNK         0.1150 
    139 H139        3.3626  -18.7078  -48.5813 H         1 UNK         0.0800 
    140 H140        1.7045  -18.6589  -48.0534 H         1 UNK         0.0800 
    141 H141       -0.1750  -20.5175  -50.8638 H         1 UNK         0.0800 
    142 H142       -0.2900  -19.1754  -49.7760 H         1 UNK         0.0800 
    143 H143        0.7305  -21.6467  -48.4309 H         1 UNK         0.0600 
    144 H144       -0.7433  -19.3603  -47.6502 H         1 UNK         0.3000 
    145 H145       -1.9261  -20.5933  -44.5145 H         1 UNK         0.0600 
    146 H146       -0.7542  -18.5666  -43.7771 H         1 UNK         0.0600 
    147 H147        0.4249  -19.7826  -44.2211 H         1 UNK         0.0600 
    148 H148        0.1097  -18.4396  -45.3068 H         1 UNK         0.0600 
    149 H149       -2.2260  -18.1524  -46.0733 H         1 UNK         0.3000 
    150 H150       -5.2917  -19.1155  -47.5918 H         1 UNK         0.0600 
    151 H151       -6.0708  -18.4735  -45.3167 H         1 UNK         0.0600 
    152 H152       -6.2592  -17.1655  -46.4742 H         1 UNK         0.0600 
    153 H153       -4.9453  -17.1229  -45.3054 H         1 UNK         0.0600 
    154 H154       -3.7733  -16.6432  -47.4152 H         1 UNK         0.3000 
    155 H155       -1.7286  -17.3185  -50.2698 H         1 UNK         0.0600 
    156 H156       -4.2160  -15.5433  -50.0264 H         1 UNK         0.0600 
    157 H157       -3.8264  -16.6300  -51.3522 H         1 UNK         0.0600 
    158 H158       -2.8466  -15.2027  -51.0789 H         1 UNK         0.0600 
    159 H159       -2.0196  -14.9379  -48.8155 H         1 UNK         0.3000 
    160 H160        0.7143  -15.3978  -46.7582 H         1 UNK         0.0600 
    161 H161       -1.4601  -13.4052  -47.6052 H         1 UNK         0.0600 
    162 H162        0.0083  -13.7414  -48.5238 H         1 UNK         0.0600 
    163 H163        0.1157  -13.0320  -46.9242 H         1 UNK         0.0600 
    164 H164       -0.2675  -15.0225  -44.8065 H         1 UNK         0.3000 
    165 H165       -3.5483  -14.3835  -43.7117 H         1 UNK         0.0600 
    166 H166       -3.2470  -16.1348  -42.0447 H         1 UNK         0.0600 
    167 H167       -3.4615  -16.9395  -43.5887 H         1 UNK         0.0600 
    168 H168       -1.8549  -16.7972  -42.8913 H         1 UNK         0.0600 
    169 H169       -1.0459  -14.6705  -42.3378 H         1 UNK         0.3000 
    170 H170        0.5333  -11.7524  -43.2470 H         1 UNK         0.0600 
    171 H171       -1.1090  -10.6044  -41.7486 H         1 UNK         0.0600 
    172 H172       -0.9814  -11.9235  -40.5913 H         1 UNK         0.0600 
    173 H173        0.4151  -10.8994  -40.9304 H         1 UNK         0.0600 
    174 H174        1.1254  -13.2305  -40.9888 H         1 UNK         0.3000 
    175 H175        3.1497  -14.5581  -41.2854 H         1 UNK         0.0600 
    176 H176        0.9847  -16.7435  -41.3117 H         1 UNK         0.0600 
    177 H177        2.3650  -16.6875  -40.2162 H         1 UNK         0.0600 
    178 H178        1.1204  -15.4574  -40.1189 H         1 UNK         0.0600 
    179 H179        3.0360  -17.0914  -42.6026 H         1 UNK         0.3000 
    180 H180        5.0515  -17.6832  -43.7968 H         1 UNK         0.0600 
    181 H181        4.1273  -18.0239  -46.1817 H         1 UNK         0.0600 
    182 H182        3.2166  -16.5240  -45.9594 H         1 UNK         0.0600 
    183 H183        2.9067  -17.9044  -44.9261 H         1 UNK         0.0600 
    184 H184        5.7219  -15.8511  -46.0257 H         1 UNK         0.3000 
    185 H185        8.9937  -15.2316  -44.8805 H         1 UNK         0.0600 
    186 H186        9.3410  -17.3639  -46.1310 H         1 UNK         0.0600 
    187 H187        8.1339  -16.8854  -47.3188 H         1 UNK         0.0600 
    188 H188        9.6368  -15.9751  -47.1654 H         1 UNK         0.0600 
    189 H189        7.3284  -14.5758  -47.1933 H         1 UNK         0.3000 
    190 H190       -2.7094  -20.8133  -49.1382 H         1 UNK         0.3000 
    191 H191       -3.2760  -23.2092  -50.5357 H         1 UNK         0.0600 
    192 H192       -4.6510  -21.1497  -50.6567 H         1 UNK         0.0600 
    193 H193       -5.6234  -22.5495  -50.2316 H         1 UNK         0.0600 
    194 H194       -5.1732  -21.3816  -48.9846 H         1 UNK         0.0600 
    195 H195       -3.3997  -22.4908  -47.0271 H         1 UNK         0.3000 
    196 H196       -4.6489  -24.9600  -46.2594 H         1 UNK         0.0600 
    197 H197       -3.8311  -24.3391  -43.9773 H         1 UNK         0.0600 
    198 H198       -4.6612  -23.0063  -44.7632 H         1 UNK         0.0600 
    199 H199       -2.9014  -23.0138  -44.6663 H         1 UNK         0.0600 
    200 H200       -1.2090  -23.9155  -46.5060 H         1 UNK         0.3000 
    201 H201       -0.0297  -26.3555  -45.6717 H         1 UNK         0.0600 
    202 H202        1.2040  -24.2105  -45.7629 H         1 UNK         0.0600 
    203 H203        1.0566  -24.1624  -47.5177 H         1 UNK         0.0600 
    204 H204        2.0225  -25.4148  -46.7465 H         1 UNK         0.0600 
    205 H205       -1.0645  -25.2380  -48.8975 H         1 UNK         0.3000 
    206 H206       -0.2127  -27.5800  -50.3435 H         1 UNK         0.0600 
    207 H207       -0.5772  -25.3474  -51.4037 H         1 UNK         0.0600 
    208 H208       -1.5846  -26.5709  -52.1612 H         1 UNK         0.0600 
    209 H209       -2.2965  -25.4346  -51.0235 H         1 UNK         0.0600 
    210 H210       -2.7695  -27.1314  -48.1409 H         1 UNK         0.3000 
    211 H211       -4.5716  -28.1888  -47.4862 H         1 UNK         0.0600 
    212 H212       -3.6737  -30.6019  -49.1444 H         1 UNK         0.0600 
    213 H213       -4.7947  -30.6123  -47.7913 H         1 UNK         0.0600 
    214 H214       -3.1047  -30.2240  -47.5184 H         1 UNK         0.0600 
    215 H215       -4.6824  -26.5308  -49.8535 H         1 UNK         0.3000 
    216 H216       -6.9191  -27.6230  -51.4813 H         1 UNK         0.0600 
    217 H217       -5.0479  -26.5082  -52.6766 H         1 UNK         0.0600 
    218 H218       -5.2694  -25.0443  -51.7229 H         1 UNK         0.0600 
    219 H219       -6.5231  -25.5684  -52.8431 H         1 UNK         0.0600 
    220 H220       -6.0852  -25.0664  -49.1739 H         1 UNK         0.3000 
    221 H221       -7.1667  -23.6119  -47.9210 H         1 UNK         0.0600 
    222 H222       -9.5619  -25.5120  -48.0776 H         1 UNK         0.0600 
    223 H223       -8.1879  -25.6951  -46.9881 H         1 UNK         0.0600 
    224 H224       -9.2581  -24.3137  -46.8278 H         1 UNK         0.0600 
    225 H225       -7.6219  -23.4807  -50.9806 H         1 UNK         0.3000 
    226 H226      -10.0949  -22.0628  -51.3661 H         1 UNK         0.0600 
    227 H227       -9.0117  -23.4643  -53.1196 H         1 UNK         0.0600 
    228 H228       -9.2098  -21.8139  -53.6841 H         1 UNK         0.0600 
    229 H229       -7.6258  -22.3734  -53.1625 H         1 UNK         0.0600 
    230 H230       -7.1196  -21.0306  -50.1247 H         1 UNK         0.3000 
    231 H231       -6.0696  -19.1364  -49.6933 H         1 UNK         0.0600 
    232 H232       -7.3496  -17.0988  -49.2018 H         1 UNK         0.0600 
    233 H233       -8.2139  -18.4981  -48.5882 H         1 UNK         0.0600 
    234 H234       -8.7488  -17.7115  -50.0734 H         1 UNK         0.0600 
    235 H235       -5.6524  -20.0769  -52.1775 H         1 UNK         0.3000 
    236 H236       -5.3085  -17.6850  -53.9291 H         1 UNK         0.0600 
    237 H237       -6.5137  -19.6153  -54.9810 H         1 UNK         0.0600 
    238 H238       -4.9370  -19.3784  -55.7196 H         1 UNK         0.0600 
    239 H239       -5.1774  -20.6886  -54.5696 H         1 UNK         0.0600 
    240 H240       -3.2106  -17.3056  -54.7308 H         1 UNK         0.3000 
    241 H241       -1.0336  -17.9404  -52.9576 H         1 UNK         0.0600 
    242 H242       -0.4565  -21.0775  -54.7689 H         1 UNK         0.3800 
    243 H243       -1.6119  -20.4117  -53.6239 H         1 UNK         0.3800 
    244 H244       -0.7268  -16.4078  -55.5695 H         1 UNK         0.0800 
    245 H245       -1.5182  -15.6810  -54.2060 H         1 UNK         0.0800 
    246 H246        0.1612  -14.1643  -52.3338 H         1 UNK         0.0800 
    247 H247       -0.7085  -15.6181  -51.9093 H         1 UNK         0.0800 
@<TRIPOS>BOND
     1    1    2 1    
     2    1  127 1    
     3    1  128 1    
     4    1  129 1    
     5    2    3 2    
     6    2    4 am   BACKBONE|DICT|INTERRES
     7    4    5 1    
     8    4  130 1    
     9    5    6 1    
    10    5   65 1    
    11    5  131 1    
    12    6    7 1    
    13    6  132 1    
    14    6  133 1    
    15    7    8 1    
    16    8    9 1    
    17    8  134 1    
    18    8  135 1    
    19    9   10 ar   
    20    9   14 ar   
    21   10   11 ar   
    22   10  136 1    
    23   11   12 ar   
    24   11  126 1    
    25   12   13 ar   
    26   12  137 1    
    27   13   14 ar   
    28   13   15 1    
    29   14  138 1    
    30   15   16 1    
    31   15  139 1    
    32   15  140 1    
    33   16   17 1    
    34   17   18 1    
    35   17  141 1    
    36   17  142 1    
    37   18   19 1    
    38   18   67 1    
    39   18  143 1    
    40   19   20 am   BACKBONE|DICT|INTERRES
    41   19  144 1    
    42   20   21 2    
    43   20   22 1    
    44   22   23 1    
    45   22   24 1    
    46   22  145 1    
    47   23  146 1    
    48   23  147 1    
    49   23  148 1    
    50   24   25 am   BACKBONE|DICT|INTERRES
    51   24  149 1    
    52   25   26 2    
    53   25   27 1    
    54   27   28 1    
    55   27   29 1    
    56   27  150 1    
    57   28  151 1    
    58   28  152 1    
    59   28  153 1    
    60   29   30 am   BACKBONE|DICT|INTERRES
    61   29  154 1    
    62   30   31 2    
    63   30   32 1    
    64   32   33 1    
    65   32   34 1    
    66   32  155 1    
    67   33  156 1    
    68   33  157 1    
    69   33  158 1    
    70   34   35 am   BACKBONE|DICT|INTERRES
    71   34  159 1    
    72   35   36 2    
    73   35   37 1    
    74   37   38 1    
    75   37   39 1    
    76   37  160 1    
    77   38  161 1    
    78   38  162 1    
    79   38  163 1    
    80   39   40 am   BACKBONE|DICT|INTERRES
    81   39  164 1    
    82   40   41 2    
    83   40   42 1    
    84   42   43 1    
    85   42   44 1    
    86   42  165 1    
    87   43  166 1    
    88   43  167 1    
    89   43  168 1    
    90   44   45 am   BACKBONE|DICT|INTERRES
    91   44  169 1    
    92   45   46 2    
    93   45   47 1    
    94   47   48 1    
    95   47   49 1    
    96   47  170 1    
    97   48  171 1    
    98   48  172 1    
    99   48  173 1    
   100   49   50 am   BACKBONE|DICT|INTERRES
   101   49  174 1    
   102   50   51 2    
   103   50   52 1    
   104   52   53 1    
   105   52   54 1    
   106   52  175 1    
   107   53  176 1    
   108   53  177 1    
   109   53  178 1    
   110   54   55 am   BACKBONE|DICT|INTERRES
   111   54  179 1    
   112   55   56 2    
   113   55   57 1    
   114   57   58 1    
   115   57   59 1    
   116   57  180 1    
   117   58  181 1    
   118   58  182 1    
   119   58  183 1    
   120   59   60 am   BACKBONE|DICT|INTERRES
   121   59  184 1    
   122   60   61 2    
   123   60   62 1    
   124   62   63 1    
   125   62   64 1    
   126   62  185 1    
   127   63  186 1    
   128   63  187 1    
   129   63  188 1    
   130   64   65 am   BACKBONE|DICT|INTERRES
   131   64  189 1    
   132   65   66 2    
   133   67   68 2    
   134   67   69 am   BACKBONE|DICT|INTERRES
   135   69   70 1    
   136   69  190 1    
   137   70   71 1    
   138   70   72 1    
   139   70  191 1    
   140   71  192 1    
   141   71  193 1    
   142   71  194 1    
   143   72   73 2    
   144   72   74 am   BACKBONE|DICT|INTERRES
   145   74   75 1    
   146   74  195 1    
   147   75   76 1    
   148   75   77 1    
   149   75  196 1    
   150   76  197 1    
   151   76  198 1    
   152   76  199 1    
   153   77   78 2    
   154   77   79 am   BACKBONE|DICT|INTERRES
   155   79   80 1    
   156   79  200 1    
   157   80   81 1    
   158   80   82 1    
   159   80  201 1    
   160   81  202 1    
   161   81  203 1    
   162   81  204 1    
   163   82   83 2    
   164   82   84 am   BACKBONE|DICT|INTERRES
   165   84   85 1    
   166   84  205 1    
   167   85   86 1    
   168   85   87 1    
   169   85  206 1    
   170   86  207 1    
   171   86  208 1    
   172   86  209 1    
   173   87   88 2    
   174   87   89 am   BACKBONE|DICT|INTERRES
   175   89   90 1    
   176   89  210 1    
   177   90   91 1    
   178   90   92 1    
   179   90  211 1    
   180   91  212 1    
   181   91  213 1    
   182   91  214 1    
   183   92   93 2    
   184   92   94 am   BACKBONE|DICT|INTERRES
   185   94   95 1    
   186   94  215 1    
   187   95   96 1    
   188   95   97 1    
   189   95  216 1    
   190   96  217 1    
   191   96  218 1    
   192   96  219 1    
   193   97   98 2    
   194   97   99 am   BACKBONE|DICT|INTERRES
   195   99  100 1    
   196   99  220 1    
   197  100  101 1    
   198  100  102 1    
   199  100  221 1    
   200  101  222 1    
   201  101  223 1    
   202  101  224 1    
   203  102  103 2    
   204  102  104 am   BACKBONE|DICT|INTERRES
   205  104  105 1    
   206  104  225 1    
   207  105  106 1    
   208  105  107 1    
   209  105  226 1    
   210  106  227 1    
   211  106  228 1    
   212  106  229 1    
   213  107  108 2    
   214  107  109 am   BACKBONE|DICT|INTERRES
   215  109  110 1    
   216  109  230 1    
   217  110  111 1    
   218  110  112 1    
   219  110  231 1    
   220  111  232 1    
   221  111  233 1    
   222  111  234 1    
   223  112  113 2    
   224  112  114 am   BACKBONE|DICT|INTERRES
   225  114  115 1    
   226  114  235 1    
   227  115  116 1    
   228  115  117 1    
   229  115  236 1    
   230  116  237 1    
   231  116  238 1    
   232  116  239 1    
   233  117  118 2    
   234  117  119 am   BACKBONE|DICT|INTERRES
   235  119  120 1    
   236  119  240 1    
   237  120  121 1    
   238  120  124 1    
   239  120  241 1    
   240  121  122 am   BACKBONE|DICT|INTERRES
   241  121  123 2    
   242  122  242 1    
   243  122  243 1    
   244  124  125 1    
   245  124  244 1    
   246  124  245 1    
   247  125  126 1    
   248  126  246 1    
   249  126  247 1    
@<TRIPOS>SUBSTRUCTURE
     1 UNK         1 GROUP             0       ****    0 ROOT    
