@<TRIPOS>MOLECULE
3R540
247   249    1
SMALL
USER_CHARGES


@<TRIPOS>ATOM
      1 CA          0.4950  -13.0196  -51.7100 C.3       0 UNK        -0.1800 
      2 C           0.6265  -13.0333  -50.1945 C.2       0 UNK         0.5000 
      3 O          -0.3750  -13.1748  -49.4933 O.2       0 UNK        -0.5000 
      4 N           1.8561  -12.8763  -49.6872 N.am      1 UNK        -0.5000 
      5 CA          2.2786  -12.9269  -48.2752 C.3       1 UNK         0.1400 
      6 C6          1.9534  -14.2647  -47.5602 C.3       23 UNK        -0.0398 
      7 S7          2.6839  -15.7007  -48.4178 S.3       23 UNK        -0.2404 
      8 C8          1.1868  -16.5581  -48.9849 C.3       23 UNK        -0.0205 
      9 C9          1.5223  -17.6559  -49.9779 C.ar      23 UNK        -0.0193 
     10 C10         1.4844  -17.3934  -51.3487 C.ar      23 UNK        -0.1150 
     11 C11         1.8032  -18.3935  -52.2702 C.ar      23 UNK        -0.0193 
     12 C12         2.1552  -19.6651  -51.8085 C.ar      23 UNK        -0.1150 
     13 C13         2.1945  -19.9479  -50.4389 C.ar      23 UNK        -0.0193 
     14 C14         1.8783  -18.9297  -49.5280 C.ar      23 UNK        -0.1150 
     15 C15         2.6283  -21.3478  -49.9991 C.3       23 UNK        -0.0205 
     16 S16         2.2091  -21.8052  -48.2820 S.3       23 UNK        -0.2404 
     17 C17         0.3925  -21.9317  -48.3740 C.3       23 UNK        -0.0398 
     18 CA         -0.1393  -22.9905  -47.3836 C.3       11 UNK         0.1400 
     19 N          -0.0059  -22.5680  -45.9858 N.am      11 UNK        -0.5000 
     20 C          -0.1672  -23.3842  -44.9357 C.2       10 UNK         0.5000 
     21 O          -0.4597  -24.5746  -45.0379 O.2       10 UNK        -0.5000 
     22 CA         -0.0243  -22.7648  -43.5357 C.3       10 UNK         0.1400 
     23 CB          1.4499  -22.4884  -43.2049 C.3       10 UNK        -0.1800 
     24 N          -0.8120  -21.5425  -43.3808 N.am      10 UNK        -0.5000 
     25 C          -2.1495  -21.4882  -43.4638 C.2       9 UNK         0.5000 
     26 O          -2.8651  -22.4739  -43.6442 O.2       9 UNK        -0.5000 
     27 CA         -2.7955  -20.0928  -43.3779 C.3       9 UNK         0.1400 
     28 CB         -2.8883  -19.6213  -41.9193 C.3       9 UNK        -0.1800 
     29 N          -2.0907  -19.0885  -44.1758 N.am      9 UNK        -0.5000 
     30 C          -1.9179  -19.1579  -45.5030 C.2       8 UNK         0.5000 
     31 O          -2.3568  -20.0672  -46.2027 O.2       8 UNK        -0.5000 
     32 CA         -1.0487  -18.0705  -46.1530 C.3       8 UNK         0.1400 
     33 CB         -1.8245  -16.7565  -46.3301 C.3       8 UNK        -0.1800 
     34 N           0.1825  -17.8311  -45.4010 N.am      8 UNK        -0.5000 
     35 C           1.1457  -18.7483  -45.2297 C.2       7 UNK         0.5000 
     36 O           1.1200  -19.8701  -45.7336 O.2       7 UNK        -0.5000 
     37 CA          2.2972  -18.3681  -44.2865 C.3       7 UNK         0.1400 
     38 CB          3.3488  -17.5209  -45.0185 C.3       7 UNK        -0.1800 
     39 N           1.8089  -17.6550  -43.1049 N.am      7 UNK        -0.5000 
     40 C           1.1070  -18.2383  -42.1203 C.2       6 UNK         0.5000 
     41 O           0.8386  -19.4389  -42.0958 O.2       6 UNK        -0.5000 
     42 CA          0.5791  -17.3295  -40.9933 C.3       6 UNK         0.1400 
     43 CB          1.6300  -17.1826  -39.8832 C.3       6 UNK        -0.1800 
     44 N           0.1862  -16.0016  -41.4634 N.am      6 UNK        -0.5000 
     45 C          -0.7942  -15.7594  -42.3446 C.2       5 UNK         0.5000 
     46 O          -1.5275  -16.6344  -42.8028 O.2       5 UNK        -0.5000 
     47 CA         -0.9502  -14.3077  -42.8364 C.3       5 UNK         0.1400 
     48 CB         -2.0609  -13.5891  -42.0576 C.3       5 UNK        -0.1800 
     49 N           0.2803  -13.5159  -42.7544 N.am      5 UNK        -0.5000 
     50 C           1.4242  -13.7797  -43.3990 C.2       4 UNK         0.5000 
     51 O           1.5811  -14.7714  -44.1126 O.2       4 UNK        -0.5000 
     52 CA          2.5681  -12.7640  -43.1996 C.3       4 UNK         0.1400 
     53 CB          3.8530  -13.1474  -43.9549 C.3       4 UNK        -0.1800 
     54 N           2.1525  -11.4178  -43.5982 N.am      4 UNK        -0.5000 
     55 C           1.4310  -10.5815  -42.8371 C.2       3 UNK         0.5000 
     56 O           1.0841  -10.8479  -41.6853 O.2       3 UNK        -0.5000 
     57 CA          0.9838   -9.2478  -43.4659 C.3       3 UNK         0.1400 
     58 CB          1.9671   -8.1255  -43.1014 C.3       3 UNK        -0.1800 
     59 N           0.8419   -9.3029  -44.9211 N.am      3 UNK        -0.5000 
     60 C          -0.0577  -10.0395  -45.5878 C.2       2 UNK         0.5000 
     61 O          -0.9034  -10.7490  -45.0415 O.2       2 UNK        -0.5000 
     62 CA          0.0032   -9.9894  -47.1280 C.3       2 UNK         0.1400 
     63 CB          0.6964   -8.7257  -47.6845 C.3       2 UNK        -0.1800 
     64 N           0.6168  -11.1906  -47.6995 N.am      2 UNK        -0.5000 
     65 C           1.8229  -11.7120  -47.4341 C.2       1 UNK         0.5000 
     66 O           2.5914  -11.2534  -46.5870 O.2       1 UNK        -0.5000 
     67 C          -1.5793  -23.4095  -47.7357 C.2       11 UNK         0.5000 
     68 O          -1.7514  -24.3818  -48.4715 O.2       11 UNK        -0.5000 
     69 N          -2.5853  -22.7098  -47.1926 N.am      12 UNK        -0.5000 
     70 CA         -4.0015  -23.0552  -47.3268 C.3       12 UNK         0.1400 
     71 CB         -4.8721  -21.9304  -46.7461 C.3       12 UNK        -0.1800 
     72 C          -4.3545  -24.4041  -46.6742 C.2       12 UNK         0.5000 
     73 O          -5.1570  -25.1508  -47.2328 O.2       12 UNK        -0.5000 
     74 N          -3.7412  -24.6996  -45.5216 N.am      13 UNK        -0.5000 
     75 CA         -3.9110  -25.9621  -44.8079 C.3       13 UNK         0.1400 
     76 CB         -3.4640  -25.7884  -43.3477 C.3       13 UNK        -0.1800 
     77 C          -3.1555  -27.1243  -45.4774 C.2       13 UNK         0.5000 
     78 O          -3.7360  -28.1936  -45.6686 O.2       13 UNK        -0.5000 
     79 N          -1.8710  -26.9078  -45.7899 N.am      14 UNK        -0.5000 
     80 CA         -0.9552  -27.9507  -46.2488 C.3       14 UNK         0.1400 
     81 CB          0.4926  -27.5228  -45.9586 C.3       14 UNK        -0.1800 
     82 C          -1.1203  -28.3064  -47.7345 C.2       14 UNK         0.5000 
     83 O          -1.1891  -29.4912  -48.0650 O.2       14 UNK        -0.5000 
     84 N          -1.1381  -27.2866  -48.6017 N.am      15 UNK        -0.5000 
     85 CA         -1.0755  -27.4484  -50.0572 C.3       15 UNK         0.1400 
     86 CB          0.0790  -26.5817  -50.5898 C.3       15 UNK        -0.1800 
     87 C          -2.3849  -27.0618  -50.7623 C.2       15 UNK         0.5000 
     88 O          -2.6000  -27.4885  -51.8967 O.2       15 UNK        -0.5000 
     89 N          -3.2021  -26.2259  -50.1054 N.am      16 UNK        -0.5000 
     90 CA         -4.3906  -25.5380  -50.6258 C.3       16 UNK         0.1400 
     91 CB         -5.4667  -26.5300  -51.1119 C.3       16 UNK        -0.1800 
     92 C          -4.0598  -24.4554  -51.6757 C.2       16 UNK         0.5000 
     93 O          -4.9697  -23.9528  -52.3344 O.2       16 UNK        -0.5000 
     94 N          -2.7767  -24.0807  -51.7922 N.am      17 UNK        -0.5000 
     95 CA         -2.2664  -23.1106  -52.7616 C.3       17 UNK         0.1400 
     96 CB         -0.7294  -23.0998  -52.7181 C.3       17 UNK        -0.1800 
     97 C          -2.8337  -21.7032  -52.5271 C.2       17 UNK         0.5000 
     98 O          -3.3696  -21.0962  -53.4516 O.2       17 UNK        -0.5000 
     99 N          -2.7515  -21.2360  -51.2744 N.am      18 UNK        -0.5000 
    100 CA        -3.2874  -19.9434  -50.8481 C.3       18 UNK         0.1400 
    101 CB        -2.6756  -19.5674  -49.4926 C.3       18 UNK        -0.1800 
    102 C         -4.8271  -19.9271  -50.7915 C.2       18 UNK         0.5000 
    103 O         -5.4248  -18.8756  -51.0173 O.2       18 UNK        -0.5000 
    104 N         -5.4443  -21.0923  -50.5396 N.am      19 UNK        -0.5000 
    105 CA        -6.8988  -21.2818  -50.5481 C.3       19 UNK         0.1400 
    106 CB        -7.2488  -22.6418  -49.9238 C.3       19 UNK        -0.1800 
    107 C         -7.4967  -21.1608  -51.9633 C.2       19 UNK         0.5000 
    108 O         -8.5857  -20.6094  -52.1220 O.2       19 UNK        -0.5000 
    109 N         -6.7485  -21.6360  -52.9677 N.am      20 UNK        -0.5000 
    110 CA        -7.0549  -21.5106  -54.3945 C.3       20 UNK         0.1400 
    111 CB        -6.3232  -22.6368  -55.1438 C.3       20 UNK        -0.1800 
    112 C         -6.6908  -20.1292  -54.9867 C.2       20 UNK         0.5000 
    113 O         -6.9124  -19.9209  -56.1805 O.2       20 UNK        -0.5000 
    114 N         -6.1505  -19.2302  -54.1494 N.am      21 UNK        -0.5000 
    115 CA        -5.5550  -17.9213  -54.4329 C.3       21 UNK         0.1400 
    116 CB        -6.4626  -17.0201  -55.2929 C.3       21 UNK        -0.1800 
    117 C         -4.1416  -18.0580  -55.0275 C.2       21 UNK         0.5000 
    118 O         -3.9145  -18.8590  -55.9365 O.2       21 UNK        -0.5000 
    119 N         -3.2128  -17.2590  -54.4961 N.am      22 UNK        -0.5000 
    120 CA        -1.7840  -17.2804  -54.8241 C.3       22 UNK         0.1400 
    121 C         -1.1941  -15.8492  -54.7376 C.2       22 UNK         0.5000 
    122 N         -0.1976  -15.5284  -55.5506 N.am      22 UNK        -0.7600 
    123 O         -1.6214  -15.0311  -53.9260 O.2       22 UNK        -0.5000 
    124 C124       -1.0307  -18.2771  -53.9045 C.3       23 UNK        -0.0398 
    125 S125        0.4777  -18.9723  -54.6568 S.3       23 UNK        -0.2404 
    126 C126        1.7959  -18.0889  -53.7622 C.3       23 UNK        -0.0205 
    127 H127       -0.2246  -12.2619  -52.0196 H         1 UNK         0.0600 
    128 H128        0.1420  -13.9893  -52.0605 H         1 UNK         0.0600 
    129 H129        1.4458  -12.8071  -52.1992 H         1 UNK         0.0600 
    130 H130        2.6178  -12.7345  -50.3358 H         1 UNK         0.3000 
    131 H131        3.3667  -12.8512  -48.3150 H         1 UNK         0.0600 
    132 H132        0.8769  -14.3987  -47.4442 H         1 UNK         0.0800 
    133 H133        2.3621  -14.2602  -46.5508 H         1 UNK         0.0800 
    134 H134        0.6791  -16.9794  -48.1208 H         1 UNK         0.0800 
    135 H135        0.4927  -15.8488  -49.4357 H         1 UNK         0.0800 
    136 H136        1.2175  -16.4052  -51.6968 H         1 UNK         0.1150 
    137 H137        2.4091  -20.4356  -52.5232 H         1 UNK         0.1150 
    138 H138        1.9203  -19.1104  -48.4636 H         1 UNK         0.1150 
    139 H139        2.2055  -22.0950  -50.6726 H         1 UNK         0.0800 
    140 H140        3.7112  -21.4144  -50.1103 H         1 UNK         0.0800 
    141 H141        0.1200  -22.1879  -49.3988 H         1 UNK         0.0800 
    142 H142       -0.0454  -20.9530  -48.1703 H         1 UNK         0.0800 
    143 H143        0.4682  -23.8906  -47.5046 H         1 UNK         0.0600 
    144 H144        0.2680  -21.6010  -45.8291 H         1 UNK         0.3000 
    145 H145       -0.3994  -23.4931  -42.8138 H         1 UNK         0.0600 
    146 H146        1.5641  -22.1441  -42.1770 H         1 UNK         0.0600 
    147 H147        2.0507  -23.3921  -43.3135 H         1 UNK         0.0600 
    148 H148        1.8767  -21.7293  -43.8607 H         1 UNK         0.0600 
    149 H149       -0.2947  -20.6908  -43.1888 H         1 UNK         0.3000 
    150 H150       -3.8099  -20.1732  -43.7736 H         1 UNK         0.0600 
    151 H151       -3.4426  -20.3379  -41.3121 H         1 UNK         0.0600 
    152 H152       -3.4046  -18.6638  -41.8466 H         1 UNK         0.0600 
    153 H153       -1.9019  -19.5038  -41.4708 H         1 UNK         0.0600 
    154 H154       -1.7310  -18.2786  -43.6767 H         1 UNK         0.3000 
    155 H155       -0.7717  -18.4367  -47.1434 H         1 UNK         0.0600 
    156 H156       -2.1518  -16.3448  -45.3758 H         1 UNK         0.0600 
    157 H157       -2.7150  -16.9132  -46.9401 H         1 UNK         0.0600 
    158 H158       -1.2183  -16.0007  -46.8294 H         1 UNK         0.0600 
    159 H159        0.2728  -16.9427  -44.9288 H         1 UNK         0.3000 
    160 H160        2.7793  -19.2906  -43.9560 H         1 UNK         0.0600 
    161 H161        2.9270  -16.5940  -45.4061 H         1 UNK         0.0600 
    162 H162        3.7629  -18.0665  -45.8674 H         1 UNK         0.0600 
    163 H163        4.1780  -17.2627  -44.3599 H         1 UNK         0.0600 
    164 H164        1.9292  -16.6497  -43.1016 H         1 UNK         0.3000 
    165 H165       -0.3045  -17.8083  -40.5669 H         1 UNK         0.0600 
    166 H166        1.2393  -16.6077  -39.0434 H         1 UNK         0.0600 
    167 H167        1.9278  -18.1584  -39.4969 H         1 UNK         0.0600 
    168 H168        2.5303  -16.6832  -40.2435 H         1 UNK         0.0600 
    169 H169        0.7353  -15.2208  -41.1362 H         1 UNK         0.3000 
    170 H170       -1.2424  -14.3514  -43.8875 H         1 UNK         0.0600 
    171 H171       -3.0012  -14.1386  -42.1202 H         1 UNK         0.0600 
    172 H172       -1.8092  -13.4855  -41.0014 H         1 UNK         0.0600 
    173 H173       -2.2408  -12.5918  -42.4601 H         1 UNK         0.0600 
    174 H174        0.2434  -12.6698  -42.1966 H         1 UNK         0.3000 
    175 H175        2.8095  -12.7629  -42.1347 H         1 UNK         0.0600 
    176 H176        3.7084  -13.1454  -45.0341 H         1 UNK         0.0600 
    177 H177        4.6618  -12.4528  -43.7283 H         1 UNK         0.0600 
    178 H178        4.1931  -14.1441  -43.6709 H         1 UNK         0.0600 
    179 H179        2.3466  -11.1561  -44.5599 H         1 UNK         0.3000 
    180 H180        0.0079   -8.9984  -43.0442 H         1 UNK         0.0600 
    181 H181        2.9585   -8.3085  -43.5178 H         1 UNK         0.0600 
    182 H182        2.0764   -8.0378  -42.0195 H         1 UNK         0.0600 
    183 H183        1.6197   -7.1604  -43.4705 H         1 UNK         0.0600 
    184 H184        1.5170   -8.7790  -45.4589 H         1 UNK         0.3000 
    185 H185       -1.0313   -9.9750  -47.4740 H         1 UNK         0.0600 
    186 H186        0.2459   -7.8186  -47.2793 H         1 UNK         0.0600 
    187 H187        1.7623   -8.7006  -47.4559 H         1 UNK         0.0600 
    188 H188        0.5947   -8.6758  -48.7687 H         1 UNK         0.0600 
    189 H189        0.0485  -11.6999  -48.3710 H         1 UNK         0.3000 
    190 H190       -2.3756  -21.8816  -46.6390 H         1 UNK         0.3000 
    191 H191       -4.2244  -23.1348  -48.3916 H         1 UNK         0.0600 
    192 H192       -4.7462  -21.0032  -47.3047 H         1 UNK         0.0600 
    193 H193       -5.9306  -22.1891  -46.7830 H         1 UNK         0.0600 
    194 H194       -4.6237  -21.7296  -45.7038 H         1 UNK         0.0600 
    195 H195       -3.1296  -24.0112  -45.0969 H         1 UNK         0.3000 
    196 H196       -4.9735  -26.2154  -44.8011 H         1 UNK         0.0600 
    197 H197       -3.5831  -26.7172  -42.7885 H         1 UNK         0.0600 
    198 H198       -4.0586  -25.0262  -42.8437 H         1 UNK         0.0600 
    199 H199       -2.4168  -25.4927  -43.2765 H         1 UNK         0.0600 
    200 H200       -1.4552  -26.0037  -45.5724 H         1 UNK         0.3000 
    201 H201       -1.1498  -28.8562  -45.6695 H         1 UNK         0.0600 
    202 H202        0.6433  -27.3416  -44.8942 H         1 UNK         0.0600 
    203 H203        0.7601  -26.6102  -46.4927 H         1 UNK         0.0600 
    204 H204        1.1979  -28.2984  -46.2597 H         1 UNK         0.0600 
    205 H205       -1.1230  -26.3359  -48.2511 H         1 UNK         0.3000 
    206 H206       -0.8631  -28.4858  -50.3238 H         1 UNK         0.0600 
    207 H207        1.0318  -26.8926  -50.1611 H         1 UNK         0.0600 
    208 H208        0.1688  -26.6683  -51.6736 H         1 UNK         0.0600 
    209 H209       -0.0624  -25.5261  -50.3552 H         1 UNK         0.0600 
    210 H210       -2.8832  -25.8923  -49.2028 H         1 UNK         0.3000 
    211 H211       -4.8170  -24.9985  -49.7828 H         1 UNK         0.0600 
    212 H212       -5.1712  -27.0383  -52.0297 H         1 UNK         0.0600 
    213 H213       -6.4057  -26.0147  -51.3174 H         1 UNK         0.0600 
    214 H214       -5.6732  -27.2880  -50.3564 H         1 UNK         0.0600 
    215 H215       -2.1008  -24.5250  -51.1891 H         1 UNK         0.3000 
    216 H216       -2.5783  -23.4335  -53.7572 H         1 UNK         0.0600 
    217 H217       -0.3241  -22.3759  -53.4268 H         1 UNK         0.0600 
    218 H218       -0.3222  -24.0757  -52.9831 H         1 UNK         0.0600 
    219 H219       -0.3502  -22.8373  -51.7304 H         1 UNK         0.0600 
    220 H220       -2.3093  -21.8067  -50.5711 H         1 UNK         0.3000 
    221 H221       -2.9822  -19.1867  -51.5739 H         1 UNK         0.0600 
    222 H222       -2.8894  -20.3240  -48.7398 H         1 UNK         0.0600 
    223 H223       -1.5930  -19.4592  -49.5645 H         1 UNK         0.0600 
    224 H224       -3.0728  -18.6190  -49.1286 H         1 UNK         0.0600 
    225 H225       -4.8780  -21.9159  -50.4161 H         1 UNK         0.3000 
    226 H226       -7.3445  -20.5000  -49.9292 H         1 UNK         0.0600 
    227 H227       -6.8504  -22.7329  -48.9146 H         1 UNK         0.0600 
    228 H228       -8.3300  -22.7685  -49.8562 H         1 UNK         0.0600 
    229 H229       -6.8630  -23.4727  -50.5134 H         1 UNK         0.0600 
    230 H230       -5.8937  -22.1339  -52.7432 H         1 UNK         0.3000 
    231 H231       -8.1284  -21.6506  -54.5362 H         1 UNK         0.0600 
    232 H232       -6.6071  -23.6163  -54.7585 H         1 UNK         0.0600 
    233 H233       -5.2407  -22.5415  -55.0486 H         1 UNK         0.0600 
    234 H234       -6.5628  -22.6251  -56.2077 H         1 UNK         0.0600 
    235 H235       -6.0181  -19.5404  -53.1966 H         1 UNK         0.3000 
    236 H236       -5.4611  -17.4424  -53.4568 H         1 UNK         0.0600 
    237 H237       -6.0762  -16.0008  -55.3201 H         1 UNK         0.0600 
    238 H238       -6.5249  -17.3653  -56.3251 H         1 UNK         0.0600 
    239 H239       -7.4740  -16.9746  -54.8890 H         1 UNK         0.0600 
    240 H240       -3.4726  -16.5648  -53.8078 H         1 UNK         0.3000 
    241 H241       -1.6832  -17.6065  -55.8614 H         1 UNK         0.0600 
    242 H242        0.1720  -16.1884  -56.2174 H         1 UNK         0.3800 
    243 H243        0.1933  -14.6006  -55.5036 H         1 UNK         0.3800 
    244 H244       -1.6664  -19.1367  -53.6997 H         1 UNK         0.0800 
    245 H245       -0.8235  -17.8384  -52.9281 H         1 UNK         0.0800 
    246 H246        1.6950  -17.0171  -53.9387 H         1 UNK         0.0800 
    247 H247        2.7593  -18.3758  -54.1858 H         1 UNK         0.0800 
@<TRIPOS>BOND
     1    1    2 1    
     2    1  127 1    
     3    1  128 1    
     4    1  129 1    
     5    2    3 2    
     6    2    4 am   BACKBONE|DICT|INTERRES
     7    4    5 1    
     8    4  130 1    
     9    5    6 1    
    10    5   65 1    
    11    5  131 1    
    12    6    7 1    
    13    6  132 1    
    14    6  133 1    
    15    7    8 1    
    16    8    9 1    
    17    8  134 1    
    18    8  135 1    
    19    9   10 ar   
    20    9   14 ar   
    21   10   11 ar   
    22   10  136 1    
    23   11   12 ar   
    24   11  126 1    
    25   12   13 ar   
    26   12  137 1    
    27   13   14 ar   
    28   13   15 1    
    29   14  138 1    
    30   15   16 1    
    31   15  139 1    
    32   15  140 1    
    33   16   17 1    
    34   17   18 1    
    35   17  141 1    
    36   17  142 1    
    37   18   19 1    
    38   18   67 1    
    39   18  143 1    
    40   19   20 am   BACKBONE|DICT|INTERRES
    41   19  144 1    
    42   20   21 2    
    43   20   22 1    
    44   22   23 1    
    45   22   24 1    
    46   22  145 1    
    47   23  146 1    
    48   23  147 1    
    49   23  148 1    
    50   24   25 am   BACKBONE|DICT|INTERRES
    51   24  149 1    
    52   25   26 2    
    53   25   27 1    
    54   27   28 1    
    55   27   29 1    
    56   27  150 1    
    57   28  151 1    
    58   28  152 1    
    59   28  153 1    
    60   29   30 am   BACKBONE|DICT|INTERRES
    61   29  154 1    
    62   30   31 2    
    63   30   32 1    
    64   32   33 1    
    65   32   34 1    
    66   32  155 1    
    67   33  156 1    
    68   33  157 1    
    69   33  158 1    
    70   34   35 am   BACKBONE|DICT|INTERRES
    71   34  159 1    
    72   35   36 2    
    73   35   37 1    
    74   37   38 1    
    75   37   39 1    
    76   37  160 1    
    77   38  161 1    
    78   38  162 1    
    79   38  163 1    
    80   39   40 am   BACKBONE|DICT|INTERRES
    81   39  164 1    
    82   40   41 2    
    83   40   42 1    
    84   42   43 1    
    85   42   44 1    
    86   42  165 1    
    87   43  166 1    
    88   43  167 1    
    89   43  168 1    
    90   44   45 am   BACKBONE|DICT|INTERRES
    91   44  169 1    
    92   45   46 2    
    93   45   47 1    
    94   47   48 1    
    95   47   49 1    
    96   47  170 1    
    97   48  171 1    
    98   48  172 1    
    99   48  173 1    
   100   49   50 am   BACKBONE|DICT|INTERRES
   101   49  174 1    
   102   50   51 2    
   103   50   52 1    
   104   52   53 1    
   105   52   54 1    
   106   52  175 1    
   107   53  176 1    
   108   53  177 1    
   109   53  178 1    
   110   54   55 am   BACKBONE|DICT|INTERRES
   111   54  179 1    
   112   55   56 2    
   113   55   57 1    
   114   57   58 1    
   115   57   59 1    
   116   57  180 1    
   117   58  181 1    
   118   58  182 1    
   119   58  183 1    
   120   59   60 am   BACKBONE|DICT|INTERRES
   121   59  184 1    
   122   60   61 2    
   123   60   62 1    
   124   62   63 1    
   125   62   64 1    
   126   62  185 1    
   127   63  186 1    
   128   63  187 1    
   129   63  188 1    
   130   64   65 am   BACKBONE|DICT|INTERRES
   131   64  189 1    
   132   65   66 2    
   133   67   68 2    
   134   67   69 am   BACKBONE|DICT|INTERRES
   135   69   70 1    
   136   69  190 1    
   137   70   71 1    
   138   70   72 1    
   139   70  191 1    
   140   71  192 1    
   141   71  193 1    
   142   71  194 1    
   143   72   73 2    
   144   72   74 am   BACKBONE|DICT|INTERRES
   145   74   75 1    
   146   74  195 1    
   147   75   76 1    
   148   75   77 1    
   149   75  196 1    
   150   76  197 1    
   151   76  198 1    
   152   76  199 1    
   153   77   78 2    
   154   77   79 am   BACKBONE|DICT|INTERRES
   155   79   80 1    
   156   79  200 1    
   157   80   81 1    
   158   80   82 1    
   159   80  201 1    
   160   81  202 1    
   161   81  203 1    
   162   81  204 1    
   163   82   83 2    
   164   82   84 am   BACKBONE|DICT|INTERRES
   165   84   85 1    
   166   84  205 1    
   167   85   86 1    
   168   85   87 1    
   169   85  206 1    
   170   86  207 1    
   171   86  208 1    
   172   86  209 1    
   173   87   88 2    
   174   87   89 am   BACKBONE|DICT|INTERRES
   175   89   90 1    
   176   89  210 1    
   177   90   91 1    
   178   90   92 1    
   179   90  211 1    
   180   91  212 1    
   181   91  213 1    
   182   91  214 1    
   183   92   93 2    
   184   92   94 am   BACKBONE|DICT|INTERRES
   185   94   95 1    
   186   94  215 1    
   187   95   96 1    
   188   95   97 1    
   189   95  216 1    
   190   96  217 1    
   191   96  218 1    
   192   96  219 1    
   193   97   98 2    
   194   97   99 am   BACKBONE|DICT|INTERRES
   195   99  100 1    
   196   99  220 1    
   197  100  101 1    
   198  100  102 1    
   199  100  221 1    
   200  101  222 1    
   201  101  223 1    
   202  101  224 1    
   203  102  103 2    
   204  102  104 am   BACKBONE|DICT|INTERRES
   205  104  105 1    
   206  104  225 1    
   207  105  106 1    
   208  105  107 1    
   209  105  226 1    
   210  106  227 1    
   211  106  228 1    
   212  106  229 1    
   213  107  108 2    
   214  107  109 am   BACKBONE|DICT|INTERRES
   215  109  110 1    
   216  109  230 1    
   217  110  111 1    
   218  110  112 1    
   219  110  231 1    
   220  111  232 1    
   221  111  233 1    
   222  111  234 1    
   223  112  113 2    
   224  112  114 am   BACKBONE|DICT|INTERRES
   225  114  115 1    
   226  114  235 1    
   227  115  116 1    
   228  115  117 1    
   229  115  236 1    
   230  116  237 1    
   231  116  238 1    
   232  116  239 1    
   233  117  118 2    
   234  117  119 am   BACKBONE|DICT|INTERRES
   235  119  120 1    
   236  119  240 1    
   237  120  121 1    
   238  120  124 1    
   239  120  241 1    
   240  121  122 am   BACKBONE|DICT|INTERRES
   241  121  123 2    
   242  122  242 1    
   243  122  243 1    
   244  124  125 1    
   245  124  244 1    
   246  124  245 1    
   247  125  126 1    
   248  126  246 1    
   249  126  247 1    
@<TRIPOS>SUBSTRUCTURE
     1 UNK         1 GROUP             0       ****    0 ROOT    
