@<TRIPOS>MOLECULE
3R540
247   249    1
SMALL
USER_CHARGES


@<TRIPOS>ATOM
      1 CA          2.1091  -14.7417  -47.6364 C.3       0 UNK        -0.1800 
      2 C           0.6440  -14.4533  -47.9304 C.2       0 UNK         0.5000 
      3 O           0.3282  -13.4161  -48.5099 O.2       0 UNK        -0.5000 
      4 N          -0.2497  -15.3576  -47.5099 N.am      1 UNK        -0.5000 
      5 CA         -1.7119  -15.3369  -47.6910 C.3       1 UNK         0.1400 
      6 C6         -2.1830  -15.2921  -49.1714 C.3       23 UNK        -0.0398 
      7 S7         -1.5637  -16.7096  -50.1397 S.3       23 UNK        -0.2404 
      8 C8         -0.5281  -15.9046  -51.3960 C.3       23 UNK        -0.0205 
      9 C9          0.6662  -16.7783  -51.7333 C.ar      23 UNK        -0.0193 
     10 C10         0.6844  -17.5718  -52.8840 C.ar      23 UNK        -0.1150 
     11 C11         1.8040  -18.3581  -53.1863 C.ar      23 UNK        -0.0193 
     12 C12         2.8932  -18.3626  -52.3069 C.ar      23 UNK        -0.1150 
     13 C13         2.8743  -17.5875  -51.1444 C.ar      23 UNK        -0.0193 
     14 C14         1.7644  -16.7888  -50.8740 C.ar      23 UNK        -0.1150 
     15 C15         4.0525  -17.5990  -50.1837 C.3       23 UNK        -0.0205 
     16 S16         4.0881  -19.0992  -49.1539 S.3       23 UNK        -0.2404 
     17 C17         2.6350  -18.8941  -48.0642 C.3       23 UNK        -0.0398 
     18 CA          1.8464  -20.2243  -47.9049 C.3       11 UNK         0.1400 
     19 N           1.6453  -20.5803  -46.4981 N.am      11 UNK        -0.5000 
     20 C           1.3575  -21.8139  -46.0592 C.2       10 UNK         0.5000 
     21 O           1.2913  -22.8019  -46.7897 O.2       10 UNK        -0.5000 
     22 CA          1.0619  -21.9726  -44.5555 C.3       10 UNK         0.1400 
     23 CB          2.3235  -22.4294  -43.8084 C.3       10 UNK        -0.1800 
     24 N           0.5348  -20.7572  -43.9285 N.am      10 UNK        -0.5000 
     25 C          -0.6274  -20.1719  -44.2499 C.2       9 UNK         0.5000 
     26 O          -1.3910  -20.6137  -45.1078 O.2       9 UNK        -0.5000 
     27 CA         -0.9566  -18.8406  -43.5487 C.3       9 UNK         0.1400 
     28 CB         -1.5090  -19.0831  -42.1364 C.3       9 UNK        -0.1800 
     29 N           0.2035  -17.9518  -43.4735 N.am      9 UNK        -0.5000 
     30 C           0.8089  -17.3950  -44.5324 C.2       8 UNK         0.5000 
     31 O           0.4221  -17.5154  -45.6962 O.2       8 UNK        -0.5000 
     32 CA          2.0859  -16.5917  -44.2417 C.3       8 UNK         0.1400 
     33 CB          1.7426  -15.1611  -43.7956 C.3       8 UNK        -0.1800 
     34 N           2.9197  -17.2492  -43.2352 N.am      8 UNK        -0.5000 
     35 C           3.6228  -18.3693  -43.4619 C.2       7 UNK         0.5000 
     36 O           3.6634  -18.9391  -44.5520 O.2       7 UNK        -0.5000 
     37 CA          4.3818  -18.9722  -42.2646 C.3       7 UNK         0.1400 
     38 CB          5.7662  -18.3228  -42.1225 C.3       7 UNK        -0.1800 
     39 N           3.6553  -18.8403  -41.0009 N.am      7 UNK        -0.5000 
     40 C           2.4898  -19.4431  -40.7260 C.2       6 UNK         0.5000 
     41 O           1.9127  -20.2003  -41.5032 O.2       6 UNK        -0.5000 
     42 CA          1.8269  -19.0934  -39.3811 C.3       6 UNK         0.1400 
     43 CB          2.3276  -20.0308  -38.2726 C.3       6 UNK        -0.1800 
     44 N           2.0378  -17.7009  -38.9752 N.am      6 UNK        -0.5000 
     45 C           1.6415  -16.6356  -39.6821 C.2       5 UNK         0.5000 
     46 O           1.0643  -16.7101  -40.7737 O.2       5 UNK        -0.5000 
     47 CA          1.9919  -15.2622  -39.0953 C.3       5 UNK         0.1400 
     48 CB          3.4654  -14.9101  -39.3598 C.3       5 UNK        -0.1800 
     49 N           1.1381  -14.2804  -39.7423 N.am      5 UNK        -0.5000 
     50 C           0.6008  -13.1919  -39.1850 C.2       4 UNK         0.5000 
     51 O           0.8575  -12.8058  -38.0440 O.2       4 UNK        -0.5000 
     52 CA         -0.4047  -12.4071  -40.0524 C.3       4 UNK         0.1400 
     53 CB          0.2500  -11.1400  -40.6243 C.3       4 UNK        -0.1800 
     54 N          -0.9406  -13.1991  -41.1639 N.am      4 UNK        -0.5000 
     55 C          -1.8268  -14.1993  -41.0463 C.2       3 UNK         0.5000 
     56 O          -2.3227  -14.5425  -39.9724 O.2       3 UNK        -0.5000 
     57 CA         -2.1877  -14.9547  -42.3450 C.3       3 UNK         0.1400 
     58 CB         -3.5920  -15.5903  -42.3031 C.3       3 UNK        -0.1800 
     59 N          -2.0130  -14.1557  -43.5653 N.am      3 UNK        -0.5000 
     60 C          -2.6433  -13.0159  -43.8966 C.2       2 UNK         0.5000 
     61 O          -3.4840  -12.4582  -43.1913 O.2       2 UNK        -0.5000 
     62 CA         -2.2460  -12.3820  -45.2442 C.3       2 UNK         0.1400 
     63 CB         -1.1904  -11.2868  -45.0252 C.3       2 UNK        -0.1800 
     64 N          -1.7192  -13.3607  -46.1977 N.am      2 UNK        -0.5000 
     65 C          -2.4511  -14.2888  -46.8286 C.2       1 UNK         0.5000 
     66 O          -3.6744  -14.3694  -46.7113 O.2       1 UNK        -0.5000 
     67 C           0.5224  -20.2352  -48.7048 C.2       11 UNK         0.5000 
     68 O           0.5537  -20.5145  -49.9025 O.2       11 UNK        -0.5000 
     69 N          -0.6143  -19.9834  -48.0331 N.am      12 UNK        -0.5000 
     70 CA         -1.9512  -20.1889  -48.5976 C.3       12 UNK         0.1400 
     71 CB         -2.9827  -19.3055  -47.8802 C.3       12 UNK        -0.1800 
     72 C          -2.3842  -21.6600  -48.5144 C.2       12 UNK         0.5000 
     73 O          -3.0211  -22.1531  -49.4456 O.2       12 UNK        -0.5000 
     74 N          -2.0118  -22.3228  -47.4108 N.am      13 UNK        -0.5000 
     75 CA         -2.2862  -23.7180  -47.0608 C.3       13 UNK         0.1400 
     76 CB         -1.7299  -24.6786  -48.1353 C.3       13 UNK        -0.1800 
     77 C          -3.7736  -23.9819  -46.7455 C.2       13 UNK         0.5000 
     78 O          -4.5916  -23.0569  -46.7252 O.2       13 UNK        -0.5000 
     79 N          -4.0913  -25.2533  -46.4637 N.am      14 UNK        -0.5000 
     80 CA         -5.4333  -25.7419  -46.1431 C.3       14 UNK         0.1400 
     81 CB         -5.3666  -27.2485  -45.8512 C.3       14 UNK        -0.1800 
     82 C          -6.4323  -25.4519  -47.2764 C.2       14 UNK         0.5000 
     83 O          -6.1299  -25.7312  -48.4383 O.2       14 UNK        -0.5000 
     84 N          -7.5768  -24.8535  -46.9171 N.am      15 UNK        -0.5000 
     85 CA         -8.6573  -24.4050  -47.8076 C.3       15 UNK         0.1400 
     86 CB         -9.3685  -25.6198  -48.4405 C.3       15 UNK        -0.1800 
     87 C          -8.2169  -23.3668  -48.8675 C.2       15 UNK         0.5000 
     88 O          -8.9036  -23.2048  -49.8774 O.2       15 UNK        -0.5000 
     89 N          -7.0791  -22.6942  -48.6255 N.am      16 UNK        -0.5000 
     90 CA         -6.3862  -21.7658  -49.5242 C.3       16 UNK         0.1400 
     91 CB         -7.2290  -20.4948  -49.7584 C.3       16 UNK        -0.1800 
     92 C          -5.9150  -22.4303  -50.8389 C.2       16 UNK         0.5000 
     93 O          -5.8254  -21.7585  -51.8677 O.2       16 UNK        -0.5000 
     94 N          -5.6234  -23.7396  -50.7938 N.am      17 UNK        -0.5000 
     95 CA         -5.2670  -24.5536  -51.9565 C.3       17 UNK         0.1400 
     96 CB         -5.1652  -26.0273  -51.5381 C.3       17 UNK        -0.1800 
     97 C          -3.9796  -24.1089  -52.6723 C.2       17 UNK         0.5000 
     98 O          -3.9450  -24.1177  -53.9027 O.2       17 UNK        -0.5000 
     99 N          -2.9545  -23.7063  -51.9089 N.am      18 UNK        -0.5000 
    100 CA        -1.6867  -23.2265  -52.4611 C.3       18 UNK         0.1400 
    101 CB        -0.5587  -23.3871  -51.4326 C.3       18 UNK        -0.1800 
    102 C         -1.7905  -21.7805  -52.9757 C.2       18 UNK         0.5000 
    103 O         -1.0970  -21.4403  -53.9329 O.2       18 UNK        -0.5000 
    104 N         -2.6908  -20.9765  -52.3873 N.am      19 UNK        -0.5000 
    105 CA        -3.0452  -19.6457  -52.8866 C.3       19 UNK         0.1400 
    106 CB        -3.9117  -18.8959  -51.8628 C.3       19 UNK        -0.1800 
    107 C         -3.7777  -19.7327  -54.2366 C.2       19 UNK         0.5000 
    108 O         -3.4307  -19.0047  -55.1658 O.2       19 UNK        -0.5000 
    109 N         -4.7512  -20.6505  -54.3269 N.am      20 UNK        -0.5000 
    110 CA        -5.5290  -20.9352  -55.5335 C.3       20 UNK         0.1400 
    111 CB        -6.6773  -21.8921  -55.1790 C.3       20 UNK        -0.1800 
    112 C         -4.6779  -21.5078  -56.6829 C.2       20 UNK         0.5000 
    113 O         -4.9269  -21.1798  -57.8433 O.2       20 UNK        -0.5000 
    114 N         -3.6818  -22.3360  -56.3411 N.am      21 UNK        -0.5000 
    115 CA        -2.7245  -22.9205  -57.2818 C.3       21 UNK         0.1400 
    116 CB        -2.0604  -24.1386  -56.6213 C.3       21 UNK        -0.1800 
    117 C         -1.6494  -21.9299  -57.7747 C.2       21 UNK         0.5000 
    118 O         -0.9821  -22.2241  -58.7680 O.2       21 UNK        -0.5000 
    119 N         -1.4724  -20.8023  -57.0731 N.am      22 UNK        -0.5000 
    120 CA        -0.4830  -19.7618  -57.3876 C.3       22 UNK         0.1400 
    121 C         -0.7603  -19.0194  -58.7271 C.2       22 UNK         0.5000 
    122 N          0.2748  -18.5223  -59.3904 N.am      22 UNK        -0.7600 
    123 O         -1.9016  -18.8553  -59.1531 O.2       22 UNK        -0.5000 
    124 C124       -0.3131  -18.7650  -56.2079 C.3       23 UNK        -0.0398 
    125 S125        1.4349  -18.2961  -55.9616 S.3       23 UNK        -0.2404 
    126 C126        1.8503  -19.2209  -54.4435 C.3       23 UNK        -0.0205 
    127 H127        2.4452  -14.1540  -46.7824 H         1 UNK         0.0600 
    128 H128        2.7261  -14.4767  -48.4950 H         1 UNK         0.0600 
    129 H129        2.2734  -15.7963  -47.4177 H         1 UNK         0.0600 
    130 H130        0.0823  -16.1766  -47.0063 H         1 UNK         0.3000 
    131 H131       -2.0389  -16.2888  -47.2757 H         1 UNK         0.0600 
    132 H132       -1.8992  -14.3509  -49.6430 H         1 UNK         0.0800 
    133 H133       -3.2724  -15.3314  -49.2234 H         1 UNK         0.0800 
    134 H134       -1.1275  -15.7017  -52.2846 H         1 UNK         0.0800 
    135 H135       -0.1693  -14.9397  -51.0347 H         1 UNK         0.0800 
    136 H136       -0.1678  -17.5678  -53.5475 H         1 UNK         0.1150 
    137 H137        3.7570  -18.9769  -52.5191 H         1 UNK         0.1150 
    138 H138        1.7444  -16.1814  -49.9835 H         1 UNK         0.1150 
    139 H139        4.9804  -17.5433  -50.7548 H         1 UNK         0.0800 
    140 H140        4.0397  -16.7184  -49.5394 H         1 UNK         0.0800 
    141 H141        1.9966  -18.0857  -48.4214 H         1 UNK         0.0800 
    142 H142        3.0152  -18.5475  -47.1031 H         1 UNK         0.0800 
    143 H143        2.4471  -21.0323  -48.3290 H         1 UNK         0.0600 
    144 H144        1.7159  -19.8314  -45.8228 H         1 UNK         0.3000 
    145 H145        0.3048  -22.7527  -44.4534 H         1 UNK         0.0600 
    146 H146        2.1059  -22.6458  -42.7625 H         1 UNK         0.0600 
    147 H147        2.7327  -23.3395  -44.2488 H         1 UNK         0.0600 
    148 H148        3.1043  -21.6690  -43.8391 H         1 UNK         0.0600 
    149 H149        1.0848  -20.3723  -43.1639 H         1 UNK         0.3000 
    150 H150       -1.7285  -18.3370  -44.1347 H         1 UNK         0.0600 
    151 H151       -2.4084  -19.6990  -42.1712 H         1 UNK         0.0600 
    152 H152       -1.7749  -18.1461  -41.6475 H         1 UNK         0.0600 
    153 H153       -0.7855  -19.5951  -41.5019 H         1 UNK         0.0600 
    154 H154        0.5874  -17.7777  -42.5513 H         1 UNK         0.3000 
    155 H155        2.6602  -16.5282  -45.1677 H         1 UNK         0.0600 
    156 H156        2.6461  -14.5770  -43.6198 H         1 UNK         0.0600 
    157 H157        1.1534  -15.1481  -42.8796 H         1 UNK         0.0600 
    158 H158        1.1659  -14.6416  -44.5613 H         1 UNK         0.0600 
    159 H159        2.8869  -16.8746  -42.2982 H         1 UNK         0.3000 
    160 H160        4.5224  -20.0367  -42.4633 H         1 UNK         0.0600 
    161 H161        5.6917  -17.2588  -41.8940 H         1 UNK         0.0600 
    162 H162        6.3399  -18.4213  -43.0451 H         1 UNK         0.0600 
    163 H163        6.3448  -18.7972  -41.3297 H         1 UNK         0.0600 
    164 H164        4.0579  -18.2325  -40.3033 H         1 UNK         0.3000 
    165 H165        0.7518  -19.2452  -39.4965 H         1 UNK         0.0600 
    166 H166        1.7990  -19.8522  -37.3360 H         1 UNK         0.0600 
    167 H167        2.1644  -21.0754  -38.5417 H         1 UNK         0.0600 
    168 H168        3.3947  -19.9024  -38.0867 H         1 UNK         0.0600 
    169 H169        2.5122  -17.5569  -38.0952 H         1 UNK         0.3000 
    170 H170        1.7968  -15.2808  -38.0210 H         1 UNK         0.0600 
    171 H171        4.1346  -15.6263  -38.8819 H         1 UNK         0.0600 
    172 H172        3.6931  -14.9056  -40.4267 H         1 UNK         0.0600 
    173 H173        3.7103  -13.9246  -38.9632 H         1 UNK         0.0600 
    174 H174        0.8135  -14.5647  -40.6563 H         1 UNK         0.3000 
    175 H175       -1.2341  -12.1069  -39.4087 H         1 UNK         0.0600 
    176 H176        1.0866  -11.3804  -41.2817 H         1 UNK         0.0600 
    177 H177       -0.4668  -10.5484  -41.1945 H         1 UNK         0.0600 
    178 H178        0.6326  -10.5033  -39.8256 H         1 UNK         0.0600 
    179 H179       -0.5978  -12.9713  -42.0847 H         1 UNK         0.3000 
    180 H180       -1.4661  -15.7694  -42.4157 H         1 UNK         0.0600 
    181 H181       -3.8018  -16.1400  -43.2207 H         1 UNK         0.0600 
    182 H182       -4.3723  -14.8396  -42.1752 H         1 UNK         0.0600 
    183 H183       -3.6795  -16.2969  -41.4771 H         1 UNK         0.0600 
    184 H184       -1.3505  -14.5186  -44.2338 H         1 UNK         0.3000 
    185 H185       -3.1385  -11.9217  -45.6735 H         1 UNK         0.0600 
    186 H186       -1.5540  -10.5256  -44.3334 H         1 UNK         0.0600 
    187 H187       -0.2663  -11.6923  -44.6111 H         1 UNK         0.0600 
    188 H188       -0.9459  -10.7833  -45.9607 H         1 UNK         0.0600 
    189 H189       -0.7315  -13.3183  -46.4045 H         1 UNK         0.3000 
    190 H190       -0.5656  -19.7813  -47.0434 H         1 UNK         0.3000 
    191 H191       -1.9285  -19.9073  -49.6506 H         1 UNK         0.0600 
    192 H192       -3.9754  -19.4408  -48.3112 H         1 UNK         0.0600 
    193 H193       -2.7351  -18.2534  -47.9771 H         1 UNK         0.0600 
    194 H194       -3.0552  -19.5367  -46.8178 H         1 UNK         0.0600 
    195 H195       -1.5905  -21.7731  -46.6690 H         1 UNK         0.3000 
    196 H196       -1.7364  -23.8976  -46.1360 H         1 UNK         0.0600 
    197 H197       -2.3350  -24.6718  -49.0421 H         1 UNK         0.0600 
    198 H198       -0.7096  -24.4102  -48.4103 H         1 UNK         0.0600 
    199 H199       -1.7005  -25.7062  -47.7732 H         1 UNK         0.0600 
    200 H200       -3.3685  -25.9552  -46.5186 H         1 UNK         0.3000 
    201 H201       -5.7629  -25.2296  -45.2369 H         1 UNK         0.0600 
    202 H202       -5.0102  -27.8101  -46.7159 H         1 UNK         0.0600 
    203 H203       -6.3510  -27.6390  -45.5897 H         1 UNK         0.0600 
    204 H204       -4.7009  -27.4606  -45.0143 H         1 UNK         0.0600 
    205 H205       -7.7162  -24.6437  -45.9381 H         1 UNK         0.3000 
    206 H206       -9.3816  -23.8935  -47.1723 H         1 UNK         0.0600 
    207 H207       -9.6766  -26.3372  -47.6799 H         1 UNK         0.0600 
    208 H208      -10.2674  -25.3139  -48.9769 H         1 UNK         0.0600 
    209 H209       -8.7256  -26.1397  -49.1515 H         1 UNK         0.0600 
    210 H210       -6.5703  -22.9160  -47.7775 H         1 UNK         0.3000 
    211 H211       -5.4848  -21.4599  -48.9947 H         1 UNK         0.0600 
    212 H212       -6.6465  -19.7255  -50.2641 H         1 UNK         0.0600 
    213 H213       -7.5713  -20.0691  -48.8153 H         1 UNK         0.0600 
    214 H214       -8.1054  -20.6962  -50.3747 H         1 UNK         0.0600 
    215 H215       -5.7306  -24.2342  -49.9152 H         1 UNK         0.3000 
    216 H216       -6.0835  -24.4648  -52.6760 H         1 UNK         0.0600 
    217 H217       -4.4089  -26.1739  -50.7658 H         1 UNK         0.0600 
    218 H218       -4.8987  -26.6594  -52.3861 H         1 UNK         0.0600 
    219 H219       -6.1161  -26.3918  -51.1488 H         1 UNK         0.0600 
    220 H220       -3.0853  -23.6055  -50.9082 H         1 UNK         0.3000 
    221 H221       -1.4260  -23.8546  -53.3152 H         1 UNK         0.0600 
    222 H222        0.3973  -23.0747  -51.8544 H         1 UNK         0.0600 
    223 H223       -0.4539  -24.4260  -51.1204 H         1 UNK         0.0600 
    224 H224       -0.7274  -22.7856  -50.5428 H         1 UNK         0.0600 
    225 H225       -3.2277  -21.3429  -51.6122 H         1 UNK         0.3000 
    226 H226       -2.1213  -19.0813  -53.0286 H         1 UNK         0.0600 
    227 H227       -4.8947  -19.3485  -51.7504 H         1 UNK         0.0600 
    228 H228       -3.4481  -18.8652  -50.8808 H         1 UNK         0.0600 
    229 H229       -4.0669  -17.8628  -52.1761 H         1 UNK         0.0600 
    230 H230       -5.0069  -21.1700  -53.4906 H         1 UNK         0.3000 
    231 H231       -5.9626  -19.9947  -55.8792 H         1 UNK         0.0600 
    232 H232       -6.3045  -22.8447  -54.8012 H         1 UNK         0.0600 
    233 H233       -7.2952  -22.1029  -56.0526 H         1 UNK         0.0600 
    234 H234       -7.3269  -21.4625  -54.4159 H         1 UNK         0.0600 
    235 H235       -3.5943  -22.6176  -55.3714 H         1 UNK         0.3000 
    236 H236       -3.2729  -23.2694  -58.1593 H         1 UNK         0.0600 
    237 H237       -2.8016  -24.8809  -56.3246 H         1 UNK         0.0600 
    238 H238       -1.3684  -24.6289  -57.3071 H         1 UNK         0.0600 
    239 H239       -1.4955  -23.8526  -55.7339 H         1 UNK         0.0600 
    240 H240       -2.0763  -20.6239  -56.2827 H         1 UNK         0.3000 
    241 H241        0.4566  -20.3034  -57.5168 H         1 UNK         0.0600 
    242 H242        0.1143  -18.0262  -60.2534 H         1 UNK         0.3800 
    243 H243        1.2164  -18.6180  -59.0414 H         1 UNK         0.3800 
    244 H244       -0.6849  -19.1988  -55.2803 H         1 UNK         0.0800 
    245 H245       -0.9096  -17.8619  -56.3509 H         1 UNK         0.0800 
    246 H246        2.8518  -19.6325  -54.5766 H         1 UNK         0.0800 
    247 H247        1.1919  -20.0808  -54.3181 H         1 UNK         0.0800 
@<TRIPOS>BOND
     1    1    2 1    
     2    1  127 1    
     3    1  128 1    
     4    1  129 1    
     5    2    3 2    
     6    2    4 am   BACKBONE|DICT|INTERRES
     7    4    5 1    
     8    4  130 1    
     9    5    6 1    
    10    5   65 1    
    11    5  131 1    
    12    6    7 1    
    13    6  132 1    
    14    6  133 1    
    15    7    8 1    
    16    8    9 1    
    17    8  134 1    
    18    8  135 1    
    19    9   10 ar   
    20    9   14 ar   
    21   10   11 ar   
    22   10  136 1    
    23   11   12 ar   
    24   11  126 1    
    25   12   13 ar   
    26   12  137 1    
    27   13   14 ar   
    28   13   15 1    
    29   14  138 1    
    30   15   16 1    
    31   15  139 1    
    32   15  140 1    
    33   16   17 1    
    34   17   18 1    
    35   17  141 1    
    36   17  142 1    
    37   18   19 1    
    38   18   67 1    
    39   18  143 1    
    40   19   20 am   BACKBONE|DICT|INTERRES
    41   19  144 1    
    42   20   21 2    
    43   20   22 1    
    44   22   23 1    
    45   22   24 1    
    46   22  145 1    
    47   23  146 1    
    48   23  147 1    
    49   23  148 1    
    50   24   25 am   BACKBONE|DICT|INTERRES
    51   24  149 1    
    52   25   26 2    
    53   25   27 1    
    54   27   28 1    
    55   27   29 1    
    56   27  150 1    
    57   28  151 1    
    58   28  152 1    
    59   28  153 1    
    60   29   30 am   BACKBONE|DICT|INTERRES
    61   29  154 1    
    62   30   31 2    
    63   30   32 1    
    64   32   33 1    
    65   32   34 1    
    66   32  155 1    
    67   33  156 1    
    68   33  157 1    
    69   33  158 1    
    70   34   35 am   BACKBONE|DICT|INTERRES
    71   34  159 1    
    72   35   36 2    
    73   35   37 1    
    74   37   38 1    
    75   37   39 1    
    76   37  160 1    
    77   38  161 1    
    78   38  162 1    
    79   38  163 1    
    80   39   40 am   BACKBONE|DICT|INTERRES
    81   39  164 1    
    82   40   41 2    
    83   40   42 1    
    84   42   43 1    
    85   42   44 1    
    86   42  165 1    
    87   43  166 1    
    88   43  167 1    
    89   43  168 1    
    90   44   45 am   BACKBONE|DICT|INTERRES
    91   44  169 1    
    92   45   46 2    
    93   45   47 1    
    94   47   48 1    
    95   47   49 1    
    96   47  170 1    
    97   48  171 1    
    98   48  172 1    
    99   48  173 1    
   100   49   50 am   BACKBONE|DICT|INTERRES
   101   49  174 1    
   102   50   51 2    
   103   50   52 1    
   104   52   53 1    
   105   52   54 1    
   106   52  175 1    
   107   53  176 1    
   108   53  177 1    
   109   53  178 1    
   110   54   55 am   BACKBONE|DICT|INTERRES
   111   54  179 1    
   112   55   56 2    
   113   55   57 1    
   114   57   58 1    
   115   57   59 1    
   116   57  180 1    
   117   58  181 1    
   118   58  182 1    
   119   58  183 1    
   120   59   60 am   BACKBONE|DICT|INTERRES
   121   59  184 1    
   122   60   61 2    
   123   60   62 1    
   124   62   63 1    
   125   62   64 1    
   126   62  185 1    
   127   63  186 1    
   128   63  187 1    
   129   63  188 1    
   130   64   65 am   BACKBONE|DICT|INTERRES
   131   64  189 1    
   132   65   66 2    
   133   67   68 2    
   134   67   69 am   BACKBONE|DICT|INTERRES
   135   69   70 1    
   136   69  190 1    
   137   70   71 1    
   138   70   72 1    
   139   70  191 1    
   140   71  192 1    
   141   71  193 1    
   142   71  194 1    
   143   72   73 2    
   144   72   74 am   BACKBONE|DICT|INTERRES
   145   74   75 1    
   146   74  195 1    
   147   75   76 1    
   148   75   77 1    
   149   75  196 1    
   150   76  197 1    
   151   76  198 1    
   152   76  199 1    
   153   77   78 2    
   154   77   79 am   BACKBONE|DICT|INTERRES
   155   79   80 1    
   156   79  200 1    
   157   80   81 1    
   158   80   82 1    
   159   80  201 1    
   160   81  202 1    
   161   81  203 1    
   162   81  204 1    
   163   82   83 2    
   164   82   84 am   BACKBONE|DICT|INTERRES
   165   84   85 1    
   166   84  205 1    
   167   85   86 1    
   168   85   87 1    
   169   85  206 1    
   170   86  207 1    
   171   86  208 1    
   172   86  209 1    
   173   87   88 2    
   174   87   89 am   BACKBONE|DICT|INTERRES
   175   89   90 1    
   176   89  210 1    
   177   90   91 1    
   178   90   92 1    
   179   90  211 1    
   180   91  212 1    
   181   91  213 1    
   182   91  214 1    
   183   92   93 2    
   184   92   94 am   BACKBONE|DICT|INTERRES
   185   94   95 1    
   186   94  215 1    
   187   95   96 1    
   188   95   97 1    
   189   95  216 1    
   190   96  217 1    
   191   96  218 1    
   192   96  219 1    
   193   97   98 2    
   194   97   99 am   BACKBONE|DICT|INTERRES
   195   99  100 1    
   196   99  220 1    
   197  100  101 1    
   198  100  102 1    
   199  100  221 1    
   200  101  222 1    
   201  101  223 1    
   202  101  224 1    
   203  102  103 2    
   204  102  104 am   BACKBONE|DICT|INTERRES
   205  104  105 1    
   206  104  225 1    
   207  105  106 1    
   208  105  107 1    
   209  105  226 1    
   210  106  227 1    
   211  106  228 1    
   212  106  229 1    
   213  107  108 2    
   214  107  109 am   BACKBONE|DICT|INTERRES
   215  109  110 1    
   216  109  230 1    
   217  110  111 1    
   218  110  112 1    
   219  110  231 1    
   220  111  232 1    
   221  111  233 1    
   222  111  234 1    
   223  112  113 2    
   224  112  114 am   BACKBONE|DICT|INTERRES
   225  114  115 1    
   226  114  235 1    
   227  115  116 1    
   228  115  117 1    
   229  115  236 1    
   230  116  237 1    
   231  116  238 1    
   232  116  239 1    
   233  117  118 2    
   234  117  119 am   BACKBONE|DICT|INTERRES
   235  119  120 1    
   236  119  240 1    
   237  120  121 1    
   238  120  124 1    
   239  120  241 1    
   240  121  122 am   BACKBONE|DICT|INTERRES
   241  121  123 2    
   242  122  242 1    
   243  122  243 1    
   244  124  125 1    
   245  124  244 1    
   246  124  245 1    
   247  125  126 1    
   248  126  246 1    
   249  126  247 1    
@<TRIPOS>SUBSTRUCTURE
     1 UNK         1 GROUP             0       ****    0 ROOT    
