@<TRIPOS>MOLECULE
3R540
247   249    1
SMALL
USER_CHARGES


@<TRIPOS>ATOM
      1 CA         -3.7638  -15.1401  -52.8883 C.3       0 UNK        -0.1800 
      2 C          -2.8526  -14.2303  -52.0759 C.2       0 UNK         0.5000 
      3 O          -2.4409  -13.1808  -52.5713 O.2       0 UNK        -0.5000 
      4 N          -2.5439  -14.6291  -50.8394 N.am      1 UNK        -0.5000 
      5 CA         -1.6993  -13.9080  -49.8830 C.3       1 UNK         0.1400 
      6 C6         -0.3156  -14.5938  -49.7040 C.3       23 UNK        -0.0398 
      7 S7          0.6781  -14.5161  -51.2352 S.3       23 UNK        -0.2404 
      8 C8          2.3338  -14.9984  -50.6565 C.3       23 UNK        -0.0205 
      9 C9          2.5338  -16.5052  -50.7077 C.ar      23 UNK        -0.0193 
     10 C10         2.8493  -17.1285  -51.9190 C.ar      23 UNK        -0.1150 
     11 C11         3.0407  -18.5162  -51.9854 C.ar      23 UNK        -0.0193 
     12 C12         2.9518  -19.2647  -50.8088 C.ar      23 UNK        -0.1150 
     13 C13         2.6611  -18.6509  -49.5896 C.ar      23 UNK        -0.0193 
     14 C14         2.4349  -17.2725  -49.5460 C.ar      23 UNK        -0.1150 
     15 C15         2.6299  -19.4674  -48.3121 C.3       23 UNK        -0.0205 
     16 S16         1.1255  -20.4862  -48.1876 S.3       23 UNK        -0.2404 
     17 C17         1.7451  -22.1500  -48.6174 C.3       23 UNK        -0.0398 
     18 CA          1.3203  -23.2601  -47.6167 C.3       11 UNK         0.1400 
     19 N           1.7971  -22.9985  -46.2528 N.am      11 UNK        -0.5000 
     20 C           2.2746  -23.9325  -45.4187 C.2       10 UNK         0.5000 
     21 O           2.5165  -25.0928  -45.7593 O.2       10 UNK        -0.5000 
     22 CA          2.4998  -23.4927  -43.9574 C.3       10 UNK         0.1400 
     23 CB          3.2244  -24.5490  -43.0967 C.3       10 UNK        -0.1800 
     24 N           3.1519  -22.1872  -43.8509 N.am      10 UNK        -0.5000 
     25 C           4.3924  -21.8434  -44.2222 C.2       9 UNK         0.5000 
     26 O           5.2098  -22.6220  -44.7142 O.2       9 UNK        -0.5000 
     27 CA          4.7894  -20.3682  -44.0077 C.3       9 UNK         0.1400 
     28 CB          4.6235  -19.5843  -45.3137 C.3       9 UNK        -0.1800 
     29 N           4.0027  -19.7024  -42.9669 N.am      9 UNK        -0.5000 
     30 C           4.1403  -19.9153  -41.6514 C.2       8 UNK         0.5000 
     31 O           5.0016  -20.6471  -41.1621 O.2       8 UNK        -0.5000 
     32 CA          3.1234  -19.2142  -40.7309 C.3       8 UNK         0.1400 
     33 CB          3.5339  -17.7569  -40.4705 C.3       8 UNK        -0.1800 
     34 N           1.7594  -19.2542  -41.2637 N.am      8 UNK        -0.5000 
     35 C           1.0348  -20.3736  -41.4080 C.2       7 UNK         0.5000 
     36 O           1.4240  -21.4900  -41.0658 O.2       7 UNK        -0.5000 
     37 CA         -0.3446  -20.2340  -42.0743 C.3       7 UNK         0.1400 
     38 CB         -1.4079  -19.8212  -41.0463 C.3       7 UNK        -0.1800 
     39 N          -0.3430  -19.2855  -43.1869 N.am      7 UNK        -0.5000 
     40 C           0.3050  -19.4706  -44.3455 C.2       6 UNK         0.5000 
     41 O           0.9475  -20.4850  -44.6175 O.2       6 UNK        -0.5000 
     42 CA          0.2456  -18.3174  -45.3603 C.3       6 UNK         0.1400 
     43 CB         -1.0713  -18.3341  -46.1521 C.3       6 UNK        -0.1800 
     44 N           0.4411  -17.0107  -44.7400 N.am      6 UNK        -0.5000 
     45 C           1.5454  -16.6384  -44.0773 C.2       5 UNK         0.5000 
     46 O           2.5433  -17.3478  -43.9476 O.2       5 UNK        -0.5000 
     47 CA          1.4998  -15.2610  -43.3978 C.3       5 UNK         0.1400 
     48 CB          1.7943  -14.1418  -44.4081 C.3       5 UNK        -0.1800 
     49 N           0.2078  -15.0226  -42.7534 N.am      5 UNK        -0.5000 
     50 C          -0.2279  -15.6840  -41.6712 C.2       4 UNK         0.5000 
     51 O           0.4335  -16.5351  -41.0763 O.2       4 UNK        -0.5000 
     52 CA         -1.6612  -15.3709  -41.2052 C.3       4 UNK         0.1400 
     53 CB         -1.6941  -14.0794  -40.3745 C.3       4 UNK        -0.1800 
     54 N          -2.5999  -15.2562  -42.3229 N.am      4 UNK        -0.5000 
     55 C          -2.9595  -16.2778  -43.1127 C.2       3 UNK         0.5000 
     56 O          -2.5594  -17.4311  -42.9630 O.2       3 UNK        -0.5000 
     57 CA         -3.8869  -15.9494  -44.2966 C.3       3 UNK         0.1400 
     58 CB         -5.3601  -16.0245  -43.8706 C.3       3 UNK        -0.1800 
     59 N          -3.6216  -14.6472  -44.9150 N.am      3 UNK        -0.5000 
     60 C          -2.4669  -14.3086  -45.5030 C.2       2 UNK         0.5000 
     61 O          -1.4583  -15.0169  -45.4944 O.2       2 UNK        -0.5000 
     62 CA         -2.4220  -12.9464  -46.2182 C.3       2 UNK         0.1400 
     63 CB         -1.5711  -11.9453  -45.4220 C.3       2 UNK        -0.1800 
     64 N          -1.8764  -13.0808  -47.5709 N.am      2 UNK        -0.5000 
     65 C          -2.4675  -13.7807  -48.5500 C.2       1 UNK         0.5000 
     66 O          -3.5858  -14.2872  -48.4240 O.2       1 UNK        -0.5000 
     67 C          -0.1985  -23.5703  -47.5981 C.2       11 UNK         0.5000 
     68 O          -0.7224  -24.0231  -46.5758 O.2       11 UNK        -0.5000 
     69 N          -0.8976  -23.3288  -48.7174 N.am      12 UNK        -0.5000 
     70 CA         -2.3361  -23.5499  -48.9133 C.3       12 UNK         0.1400 
     71 CB         -2.6184  -23.5913  -50.4285 C.3       12 UNK        -0.1800 
     72 C          -3.2131  -22.5082  -48.1790 C.2       12 UNK         0.5000 
     73 O          -4.0756  -21.8799  -48.7963 O.2       12 UNK        -0.5000 
     74 N          -2.9553  -22.3224  -46.8798 N.am      13 UNK        -0.5000 
     75 CA         -3.5471  -21.3099  -46.0087 C.3       13 UNK         0.1400 
     76 CB         -2.7867  -21.2985  -44.6741 C.3       13 UNK        -0.1800 
     77 C          -5.0519  -21.5243  -45.7956 C.2       13 UNK         0.5000 
     78 O          -5.8560  -20.7157  -46.2566 O.2       13 UNK        -0.5000 
     79 N          -5.4065  -22.6325  -45.1331 N.am      14 UNK        -0.5000 
     80 CA         -6.7934  -23.0129  -44.8550 C.3       14 UNK         0.1400 
     81 CB         -6.8037  -24.1244  -43.7943 C.3       14 UNK        -0.1800 
     82 C          -7.5531  -23.4619  -46.1168 C.2       14 UNK         0.5000 
     83 O          -8.7813  -23.3794  -46.1494 O.2       14 UNK        -0.5000 
     84 N          -6.8062  -23.9333  -47.1238 N.am      15 UNK        -0.5000 
     85 CA         -7.3300  -24.3915  -48.4038 C.3       15 UNK         0.1400 
     86 CB         -6.2572  -25.2215  -49.1254 C.3       15 UNK        -0.1800 
     87 C          -7.8221  -23.2373  -49.2925 C.2       15 UNK         0.5000 
     88 O          -8.9287  -23.3304  -49.8263 O.2       15 UNK        -0.5000 
     89 N          -6.9981  -22.1911  -49.4631 N.am      16 UNK        -0.5000 
     90 CA         -7.2450  -21.1510  -50.4651 C.3       16 UNK         0.1400 
     91 CB         -6.8210  -21.6890  -51.8484 C.3       16 UNK        -0.1800 
     92 C          -6.5620  -19.8036  -50.1644 C.2       16 UNK         0.5000 
     93 O          -6.5191  -18.9605  -51.0588 O.2       16 UNK        -0.5000 
     94 N          -6.0013  -19.6080  -48.9610 N.am      17 UNK        -0.5000 
     95 CA         -5.2009  -18.4382  -48.5606 C.3       17 UNK         0.1400 
     96 CB         -6.1012  -17.2009  -48.3684 C.3       17 UNK        -0.1800 
     97 C          -4.0060  -18.1761  -49.5064 C.2       17 UNK         0.5000 
     98 O          -3.7370  -17.0330  -49.8713 O.2       17 UNK        -0.5000 
     99 N          -3.3421  -19.2636  -49.9229 N.am      18 UNK        -0.5000 
    100 CA        -2.2331  -19.3225  -50.8831 C.3       18 UNK         0.1400 
    101 CB        -1.0526  -18.4273  -50.4580 C.3       18 UNK        -0.1800 
    102 C         -2.6311  -19.0623  -52.3526 C.2       18 UNK         0.5000 
    103 O         -1.7475  -19.0806  -53.2136 O.2       18 UNK        -0.5000 
    104 N         -3.9274  -18.8897  -52.6627 N.am      19 UNK        -0.5000 
    105 CA        -4.4166  -18.6942  -54.0364 C.3       19 UNK         0.1400 
    106 CB        -5.8755  -18.2173  -54.0264 C.3       19 UNK        -0.1800 
    107 C         -4.2546  -19.9428  -54.9290 C.2       19 UNK         0.5000 
    108 O         -4.1796  -19.8091  -56.1500 O.2       19 UNK        -0.5000 
    109 N         -4.1738  -21.1245  -54.3033 N.am      20 UNK        -0.5000 
    110 CA        -3.8726  -22.3969  -54.9599 C.3       20 UNK         0.1400 
    111 CB        -4.5436  -23.5300  -54.1669 C.3       20 UNK        -0.1800 
    112 C         -2.3573  -22.6594  -55.0856 C.2       20 UNK         0.5000 
    113 O         -1.9624  -23.4929  -55.9016 O.2       20 UNK        -0.5000 
    114 N         -1.5408  -21.9757  -54.2704 N.am      21 UNK        -0.5000 
    115 CA        -0.0877  -22.1390  -54.2223 C.3       21 UNK         0.1400 
    116 CB         0.4009  -21.9486  -52.7741 C.3       21 UNK        -0.1800 
    117 C          0.6075  -21.1619  -55.1843 C.2       21 UNK         0.5000 
    118 O          1.3739  -21.5945  -56.0455 O.2       21 UNK        -0.5000 
    119 N          0.3131  -19.8689  -55.0182 N.am      22 UNK        -0.5000 
    120 CA         0.8021  -18.7580  -55.8494 C.3       22 UNK         0.1400 
    121 C         -0.3679  -17.9945  -56.5226 C.2       22 UNK         0.5000 
    122 N         -1.5186  -17.8603  -55.8778 N.am      22 UNK        -0.7600 
    123 O         -0.2299  -17.5179  -57.6457 O.2       22 UNK        -0.5000 
    124 C124        1.6590  -17.7685  -55.0191 C.3       23 UNK        -0.0398 
    125 S125        3.3940  -18.2996  -54.8251 S.3       23 UNK        -0.2404 
    126 C126        3.3581  -19.2693  -53.2787 C.3       23 UNK        -0.0205 
    127 H127       -3.2182  -15.5534  -53.7363 H         1 UNK         0.0600 
    128 H128       -4.6173  -14.5793  -53.2688 H         1 UNK         0.0600 
    129 H129       -4.1439  -15.9688  -52.2916 H         1 UNK         0.0600 
    130 H130       -2.9884  -15.4647  -50.4573 H         1 UNK         0.3000 
    131 H131       -1.5361  -12.8858  -50.2303 H         1 UNK         0.0600 
    132 H132        0.2585  -14.1068  -48.9148 H         1 UNK         0.0800 
    133 H133       -0.4298  -15.6343  -49.3982 H         1 UNK         0.0800 
    134 H134        2.5100  -14.6147  -49.6506 H         1 UNK         0.0800 
    135 H135        3.0773  -14.5187  -51.2947 H         1 UNK         0.0800 
    136 H136        2.9363  -16.5167  -52.8042 H         1 UNK         0.1150 
    137 H137        3.1167  -20.3326  -50.8385 H         1 UNK         0.1150 
    138 H138        2.2030  -16.7929  -48.6054 H         1 UNK         0.1150 
    139 H139        3.5311  -20.0764  -48.2408 H         1 UNK         0.0800 
    140 H140        2.6728  -18.7879  -47.4649 H         1 UNK         0.0800 
    141 H141        2.8339  -22.1336  -48.6620 H         1 UNK         0.0800 
    142 H142        1.4327  -22.3879  -49.6349 H         1 UNK         0.0800 
    143 H143        1.7864  -24.1785  -47.9788 H         1 UNK         0.0600 
    144 H144        1.5856  -22.0803  -45.8758 H         1 UNK         0.3000 
    145 H145        1.5041  -23.3591  -43.5318 H         1 UNK         0.0600 
    146 H146        3.3427  -24.2036  -42.0695 H         1 UNK         0.0600 
    147 H147        2.6563  -25.4793  -43.0622 H         1 UNK         0.0600 
    148 H148        4.2139  -24.7859  -43.4882 H         1 UNK         0.0600 
    149 H149        2.5457  -21.4383  -43.5402 H         1 UNK         0.3000 
    150 H150        5.8426  -20.3438  -43.7207 H         1 UNK         0.0600 
    151 H151        5.1766  -20.0484  -46.1312 H         1 UNK         0.0600 
    152 H152        4.9824  -18.5601  -45.2113 H         1 UNK         0.0600 
    153 H153        3.5732  -19.5451  -45.5972 H         1 UNK         0.0600 
    154 H154        3.3103  -19.0286  -43.2825 H         1 UNK         0.3000 
    155 H155        3.1244  -19.7407  -39.7742 H         1 UNK         0.0600 
    156 H156        4.5400  -17.7032  -40.0529 H         1 UNK         0.0600 
    157 H157        2.8603  -17.2796  -39.7586 H         1 UNK         0.0600 
    158 H158        3.5260  -17.1651  -41.3859 H         1 UNK         0.0600 
    159 H159        1.3455  -18.3655  -41.5238 H         1 UNK         0.3000 
    160 H160       -0.6198  -21.2141  -42.4694 H         1 UNK         0.0600 
    161 H161       -1.2165  -18.8242  -40.6478 H         1 UNK         0.0600 
    162 H162       -1.4299  -20.5147  -40.2048 H         1 UNK         0.0600 
    163 H163       -2.4033  -19.8180  -41.4906 H         1 UNK         0.0600 
    164 H164       -0.9090  -18.4500  -43.0694 H         1 UNK         0.3000 
    165 H165        1.0629  -18.4565  -46.0615 H         1 UNK         0.0600 
    166 H166       -1.9355  -18.2159  -45.5003 H         1 UNK         0.0600 
    167 H167       -1.0973  -17.5362  -46.8948 H         1 UNK         0.0600 
    168 H168       -1.1914  -19.2768  -46.6861 H         1 UNK         0.0600 
    169 H169       -0.3140  -16.3372  -44.8458 H         1 UNK         0.3000 
    170 H170        2.2743  -15.2382  -42.6283 H         1 UNK         0.0600 
    171 H171        2.7842  -14.2690  -44.8481 H         1 UNK         0.0600 
    172 H172        1.0741  -14.1331  -45.2264 H         1 UNK         0.0600 
    173 H173        1.7741  -13.1621  -43.9307 H         1 UNK         0.0600 
    174 H174       -0.4204  -14.3843  -43.2179 H         1 UNK         0.3000 
    175 H175       -1.9906  -16.1946  -40.5680 H         1 UNK         0.0600 
    176 H176       -1.0117  -14.1445  -39.5259 H         1 UNK         0.0600 
    177 H177       -1.4018  -13.2103  -40.9651 H         1 UNK         0.0600 
    178 H178       -2.6911  -13.8938  -39.9746 H         1 UNK         0.0600 
    179 H179       -2.9744  -14.3397  -42.5184 H         1 UNK         0.3000 
    180 H180       -3.7225  -16.7112  -45.0610 H         1 UNK         0.0600 
    181 H181       -5.5885  -16.9938  -43.4250 H         1 UNK         0.0600 
    182 H182       -5.6071  -15.2580  -43.1350 H         1 UNK         0.0600 
    183 H183       -6.0246  -15.8981  -44.7256 H         1 UNK         0.0600 
    184 H184       -4.4019  -14.0083  -44.9659 H         1 UNK         0.3000 
    185 H185       -3.4365  -12.5502  -46.2976 H         1 UNK         0.0600 
    186 H186       -1.9567  -11.8227  -44.4090 H         1 UNK         0.0600 
    187 H187       -0.5333  -12.2697  -45.3411 H         1 UNK         0.0600 
    188 H188       -1.5780  -10.9616  -45.8919 H         1 UNK         0.0600 
    189 H189       -0.9627  -12.6813  -47.7249 H         1 UNK         0.3000 
    190 H190       -0.4120  -22.9217  -49.5017 H         1 UNK         0.3000 
    191 H191       -2.5945  -24.5270  -48.5003 H         1 UNK         0.0600 
    192 H192       -2.3648  -22.6499  -50.9144 H         1 UNK         0.0600 
    193 H193       -3.6704  -23.7875  -50.6342 H         1 UNK         0.0600 
    194 H194       -2.0456  -24.3813  -50.9144 H         1 UNK         0.0600 
    195 H195       -2.2181  -22.8962  -46.4780 H         1 UNK         0.3000 
    196 H196       -3.4076  -20.3400  -46.4884 H         1 UNK         0.0600 
    197 H197       -3.0659  -20.4345  -44.0694 H         1 UNK         0.0600 
    198 H198       -1.7153  -21.2503  -44.8504 H         1 UNK         0.0600 
    199 H199       -2.9665  -22.1939  -44.0789 H         1 UNK         0.0600 
    200 H200       -4.6867  -23.2557  -44.7974 H         1 UNK         0.3000 
    201 H201       -7.3148  -22.1443  -44.4468 H         1 UNK         0.0600 
    202 H202       -7.8247  -24.4145  -43.5426 H         1 UNK         0.0600 
    203 H203       -6.2848  -25.0185  -44.1422 H         1 UNK         0.0600 
    204 H204       -6.3248  -23.7944  -42.8723 H         1 UNK         0.0600 
    205 H205       -5.8063  -23.9621  -46.9989 H         1 UNK         0.3000 
    206 H206       -8.1821  -25.0466  -48.2088 H         1 UNK         0.0600 
    207 H207       -5.9909  -26.1073  -48.5486 H         1 UNK         0.0600 
    208 H208       -6.6141  -25.5626  -50.0981 H         1 UNK         0.0600 
    209 H209       -5.3484  -24.6457  -49.2922 H         1 UNK         0.0600 
    210 H210       -6.0849  -22.1839  -49.0213 H         1 UNK         0.3000 
    211 H211       -8.3139  -20.9303  -50.4930 H         1 UNK         0.0600 
    212 H212       -7.0462  -20.9787  -52.6427 H         1 UNK         0.0600 
    213 H213       -7.3442  -22.6113  -52.1000 H         1 UNK         0.0600 
    214 H214       -5.7514  -21.8959  -51.8764 H         1 UNK         0.0600 
    215 H215       -6.0836  -20.3253  -48.2491 H         1 UNK         0.3000 
    216 H216       -4.7649  -18.6728  -47.5900 H         1 UNK         0.0600 
    217 H217       -5.5321  -16.3644  -47.9602 H         1 UNK         0.0600 
    218 H218       -6.9135  -17.4101  -47.6725 H         1 UNK         0.0600 
    219 H219       -6.5401  -16.8688  -49.3096 H         1 UNK         0.0600 
    220 H220       -3.6658  -20.1626  -49.5746 H         1 UNK         0.3000 
    221 H221       -1.8778  -20.3518  -50.8462 H         1 UNK         0.0600 
    222 H222       -1.2495  -17.3776  -50.6720 H         1 UNK         0.0600 
    223 H223       -0.8368  -18.5218  -49.3943 H         1 UNK         0.0600 
    224 H224       -0.1444  -18.6962  -50.9989 H         1 UNK         0.0600 
    225 H225       -4.6251  -18.8660  -51.9264 H         1 UNK         0.3000 
    226 H226       -3.8268  -17.8929  -54.4812 H         1 UNK         0.0600 
    227 H227       -6.1922  -17.9223  -55.0274 H         1 UNK         0.0600 
    228 H228       -6.5563  -18.9978  -53.6912 H         1 UNK         0.0600 
    229 H229       -6.0077  -17.3523  -53.3764 H         1 UNK         0.0600 
    230 H230       -4.2748  -21.1398  -53.3004 H         1 UNK         0.3000 
    231 H231       -4.2927  -22.3947  -55.9680 H         1 UNK         0.0600 
    232 H232       -5.6241  -23.3929  -54.1218 H         1 UNK         0.0600 
    233 H233       -4.1677  -23.5860  -53.1449 H         1 UNK         0.0600 
    234 H234       -4.3609  -24.4975  -54.6363 H         1 UNK         0.0600 
    235 H235       -1.9326  -21.2425  -53.6991 H         1 UNK         0.3000 
    236 H236        0.1765  -23.1546  -54.5254 H         1 UNK         0.0600 
    237 H237       -0.0770  -22.6622  -52.1036 H         1 UNK         0.0600 
    238 H238        1.4765  -22.1132  -52.7032 H         1 UNK         0.0600 
    239 H239        0.1976  -20.9461  -52.3965 H         1 UNK         0.0600 
    240 H240       -0.3538  -19.6132  -54.2963 H         1 UNK         0.3000 
    241 H241        1.4146  -19.1451  -56.6660 H         1 UNK         0.0600 
    242 H242       -1.6359  -18.2300  -54.9421 H         1 UNK         0.3800 
    243 H243       -2.2765  -17.3791  -56.3338 H         1 UNK         0.3800 
    244 H244        1.7078  -16.7910  -55.5034 H         1 UNK         0.0800 
    245 H245        1.1960  -17.5900  -54.0479 H         1 UNK         0.0800 
    246 H246        4.3351  -19.7405  -53.1640 H         1 UNK         0.0800 
    247 H247        2.6441  -20.0820  -53.3974 H         1 UNK         0.0800 
@<TRIPOS>BOND
     1    1    2 1    
     2    1  127 1    
     3    1  128 1    
     4    1  129 1    
     5    2    3 2    
     6    2    4 am   BACKBONE|DICT|INTERRES
     7    4    5 1    
     8    4  130 1    
     9    5    6 1    
    10    5   65 1    
    11    5  131 1    
    12    6    7 1    
    13    6  132 1    
    14    6  133 1    
    15    7    8 1    
    16    8    9 1    
    17    8  134 1    
    18    8  135 1    
    19    9   10 ar   
    20    9   14 ar   
    21   10   11 ar   
    22   10  136 1    
    23   11   12 ar   
    24   11  126 1    
    25   12   13 ar   
    26   12  137 1    
    27   13   14 ar   
    28   13   15 1    
    29   14  138 1    
    30   15   16 1    
    31   15  139 1    
    32   15  140 1    
    33   16   17 1    
    34   17   18 1    
    35   17  141 1    
    36   17  142 1    
    37   18   19 1    
    38   18   67 1    
    39   18  143 1    
    40   19   20 am   BACKBONE|DICT|INTERRES
    41   19  144 1    
    42   20   21 2    
    43   20   22 1    
    44   22   23 1    
    45   22   24 1    
    46   22  145 1    
    47   23  146 1    
    48   23  147 1    
    49   23  148 1    
    50   24   25 am   BACKBONE|DICT|INTERRES
    51   24  149 1    
    52   25   26 2    
    53   25   27 1    
    54   27   28 1    
    55   27   29 1    
    56   27  150 1    
    57   28  151 1    
    58   28  152 1    
    59   28  153 1    
    60   29   30 am   BACKBONE|DICT|INTERRES
    61   29  154 1    
    62   30   31 2    
    63   30   32 1    
    64   32   33 1    
    65   32   34 1    
    66   32  155 1    
    67   33  156 1    
    68   33  157 1    
    69   33  158 1    
    70   34   35 am   BACKBONE|DICT|INTERRES
    71   34  159 1    
    72   35   36 2    
    73   35   37 1    
    74   37   38 1    
    75   37   39 1    
    76   37  160 1    
    77   38  161 1    
    78   38  162 1    
    79   38  163 1    
    80   39   40 am   BACKBONE|DICT|INTERRES
    81   39  164 1    
    82   40   41 2    
    83   40   42 1    
    84   42   43 1    
    85   42   44 1    
    86   42  165 1    
    87   43  166 1    
    88   43  167 1    
    89   43  168 1    
    90   44   45 am   BACKBONE|DICT|INTERRES
    91   44  169 1    
    92   45   46 2    
    93   45   47 1    
    94   47   48 1    
    95   47   49 1    
    96   47  170 1    
    97   48  171 1    
    98   48  172 1    
    99   48  173 1    
   100   49   50 am   BACKBONE|DICT|INTERRES
   101   49  174 1    
   102   50   51 2    
   103   50   52 1    
   104   52   53 1    
   105   52   54 1    
   106   52  175 1    
   107   53  176 1    
   108   53  177 1    
   109   53  178 1    
   110   54   55 am   BACKBONE|DICT|INTERRES
   111   54  179 1    
   112   55   56 2    
   113   55   57 1    
   114   57   58 1    
   115   57   59 1    
   116   57  180 1    
   117   58  181 1    
   118   58  182 1    
   119   58  183 1    
   120   59   60 am   BACKBONE|DICT|INTERRES
   121   59  184 1    
   122   60   61 2    
   123   60   62 1    
   124   62   63 1    
   125   62   64 1    
   126   62  185 1    
   127   63  186 1    
   128   63  187 1    
   129   63  188 1    
   130   64   65 am   BACKBONE|DICT|INTERRES
   131   64  189 1    
   132   65   66 2    
   133   67   68 2    
   134   67   69 am   BACKBONE|DICT|INTERRES
   135   69   70 1    
   136   69  190 1    
   137   70   71 1    
   138   70   72 1    
   139   70  191 1    
   140   71  192 1    
   141   71  193 1    
   142   71  194 1    
   143   72   73 2    
   144   72   74 am   BACKBONE|DICT|INTERRES
   145   74   75 1    
   146   74  195 1    
   147   75   76 1    
   148   75   77 1    
   149   75  196 1    
   150   76  197 1    
   151   76  198 1    
   152   76  199 1    
   153   77   78 2    
   154   77   79 am   BACKBONE|DICT|INTERRES
   155   79   80 1    
   156   79  200 1    
   157   80   81 1    
   158   80   82 1    
   159   80  201 1    
   160   81  202 1    
   161   81  203 1    
   162   81  204 1    
   163   82   83 2    
   164   82   84 am   BACKBONE|DICT|INTERRES
   165   84   85 1    
   166   84  205 1    
   167   85   86 1    
   168   85   87 1    
   169   85  206 1    
   170   86  207 1    
   171   86  208 1    
   172   86  209 1    
   173   87   88 2    
   174   87   89 am   BACKBONE|DICT|INTERRES
   175   89   90 1    
   176   89  210 1    
   177   90   91 1    
   178   90   92 1    
   179   90  211 1    
   180   91  212 1    
   181   91  213 1    
   182   91  214 1    
   183   92   93 2    
   184   92   94 am   BACKBONE|DICT|INTERRES
   185   94   95 1    
   186   94  215 1    
   187   95   96 1    
   188   95   97 1    
   189   95  216 1    
   190   96  217 1    
   191   96  218 1    
   192   96  219 1    
   193   97   98 2    
   194   97   99 am   BACKBONE|DICT|INTERRES
   195   99  100 1    
   196   99  220 1    
   197  100  101 1    
   198  100  102 1    
   199  100  221 1    
   200  101  222 1    
   201  101  223 1    
   202  101  224 1    
   203  102  103 2    
   204  102  104 am   BACKBONE|DICT|INTERRES
   205  104  105 1    
   206  104  225 1    
   207  105  106 1    
   208  105  107 1    
   209  105  226 1    
   210  106  227 1    
   211  106  228 1    
   212  106  229 1    
   213  107  108 2    
   214  107  109 am   BACKBONE|DICT|INTERRES
   215  109  110 1    
   216  109  230 1    
   217  110  111 1    
   218  110  112 1    
   219  110  231 1    
   220  111  232 1    
   221  111  233 1    
   222  111  234 1    
   223  112  113 2    
   224  112  114 am   BACKBONE|DICT|INTERRES
   225  114  115 1    
   226  114  235 1    
   227  115  116 1    
   228  115  117 1    
   229  115  236 1    
   230  116  237 1    
   231  116  238 1    
   232  116  239 1    
   233  117  118 2    
   234  117  119 am   BACKBONE|DICT|INTERRES
   235  119  120 1    
   236  119  240 1    
   237  120  121 1    
   238  120  124 1    
   239  120  241 1    
   240  121  122 am   BACKBONE|DICT|INTERRES
   241  121  123 2    
   242  122  242 1    
   243  122  243 1    
   244  124  125 1    
   245  124  244 1    
   246  124  245 1    
   247  125  126 1    
   248  126  246 1    
   249  126  247 1    
@<TRIPOS>SUBSTRUCTURE
     1 UNK         1 GROUP             0       ****    0 ROOT    
