@<TRIPOS>MOLECULE
3R540
247   249    1
SMALL
USER_CHARGES


@<TRIPOS>ATOM
      1 CA          8.5263  -11.5992  -49.2764 C.3       0 UNK        -0.1800 
      2 C           7.0279  -11.8669  -49.2633 C.2       0 UNK         0.5000 
      3 O           6.3618  -11.6534  -50.2761 O.2       0 UNK        -0.5000 
      4 N           6.5012  -12.3225  -48.1174 N.am      1 UNK        -0.5000 
      5 CA          5.0916  -12.6745  -47.8766 C.3       1 UNK         0.1400 
      6 C6          4.5872  -13.8603  -48.7471 C.3       23 UNK        -0.0398 
      7 S7          5.4925  -15.4114  -48.4118 S.3       23 UNK        -0.2404 
      8 C8          4.2015  -16.4372  -47.6355 C.3       23 UNK        -0.0205 
      9 C9          3.3554  -17.1734  -48.6655 C.ar      23 UNK        -0.0193 
     10 C10         2.2597  -16.5454  -49.2637 C.ar      23 UNK        -0.1150 
     11 C11         1.4916  -17.2135  -50.2196 C.ar      23 UNK        -0.0193 
     12 C12         1.8156  -18.5283  -50.5663 C.ar      23 UNK        -0.1150 
     13 C13         2.8818  -19.1871  -49.9451 C.ar      23 UNK        -0.0193 
     14 C14         3.6545  -18.4968  -49.0049 C.ar      23 UNK        -0.1150 
     15 C15         3.2106  -20.6410  -50.2801 C.3       23 UNK        -0.0205 
     16 S16         1.7675  -21.7631  -50.2173 S.3       23 UNK        -0.2404 
     17 C17         1.0594  -21.3913  -48.5761 C.3       23 UNK        -0.0398 
     18 CA          0.5203  -22.6143  -47.7932 C.3       11 UNK         0.1400 
     19 N           0.1416  -22.2217  -46.4349 N.am      11 UNK        -0.5000 
     20 C          -0.2808  -23.0378  -45.4607 C.2       10 UNK         0.5000 
     21 O          -0.3225  -24.2635  -45.5609 O.2       10 UNK        -0.5000 
     22 CA         -0.8082  -22.3570  -44.1835 C.3       10 UNK         0.1400 
     23 CB          0.3485  -21.9558  -43.2568 C.3       10 UNK        -0.1800 
     24 N          -1.6401  -21.1858  -44.4798 N.am      10 UNK        -0.5000 
     25 C          -2.8112  -21.2429  -45.1315 C.2       9 UNK         0.5000 
     26 O          -3.3302  -22.2973  -45.4937 O.2       9 UNK        -0.5000 
     27 CA         -3.4991  -19.9101  -45.4747 C.3       9 UNK         0.1400 
     28 CB         -4.2914  -19.3731  -44.2745 C.3       9 UNK        -0.1800 
     29 N          -2.5506  -18.8972  -45.9320 N.am      9 UNK        -0.5000 
     30 C          -1.9213  -18.9201  -47.1143 C.2       8 UNK         0.5000 
     31 O          -2.1417  -19.7531  -47.9958 O.2       8 UNK        -0.5000 
     32 CA         -0.8492  -17.8398  -47.3465 C.3       8 UNK         0.1400 
     33 CB         -1.4948  -16.5478  -47.8653 C.3       8 UNK        -0.1800 
     34 N          -0.0675  -17.5441  -46.1453 N.am      8 UNK        -0.5000 
     35 C           0.7155  -18.4267  -45.5096 C.2       7 UNK         0.5000 
     36 O           0.9027  -19.5767  -45.8994 O.2       7 UNK        -0.5000 
     37 CA          1.3440  -17.9738  -44.1820 C.3       7 UNK         0.1400 
     38 CB          2.6488  -17.2061  -44.4229 C.3       7 UNK        -0.1800 
     39 N           0.4216  -17.1543  -43.3979 N.am      7 UNK        -0.5000 
     40 C          -0.6683  -17.6333  -42.7824 C.2       6 UNK         0.5000 
     41 O          -0.9845  -18.8230  -42.7824 O.2       6 UNK        -0.5000 
     42 CA         -1.5789  -16.6013  -42.0924 C.3       6 UNK         0.1400 
     43 CB         -1.0421  -16.2491  -40.6972 C.3       6 UNK        -0.1800 
     44 N          -1.7315  -15.3762  -42.8799 N.am      6 UNK        -0.5000 
     45 C          -2.3606  -15.3156  -44.0620 C.2       5 UNK         0.5000 
     46 O          -2.9111  -16.2814  -44.5895 O.2       5 UNK        -0.5000 
     47 CA         -2.3334  -13.9626  -44.7986 C.3       5 UNK         0.1400 
     48 CB         -3.5138  -13.0846  -44.3588 C.3       5 UNK        -0.1800 
     49 N          -1.0844  -13.2149  -44.6260 N.am      5 UNK        -0.5000 
     50 C           0.1334  -13.6438  -44.9816 C.2       4 UNK         0.5000 
     51 O           0.3450  -14.7572  -45.4648 O.2       4 UNK        -0.5000 
     52 CA          1.2946  -12.6542  -44.7628 C.3       4 UNK         0.1400 
     53 CB          2.6699  -13.2766  -45.0550 C.3       4 UNK        -0.1800 
     54 N           1.1363  -11.4534  -45.5838 N.am      4 UNK        -0.5000 
     55 C           0.3688  -10.4002  -45.2691 C.2       3 UNK         0.5000 
     56 O          -0.3421  -10.3682  -44.2620 O.2       3 UNK        -0.5000 
     57 CA          0.3816   -9.1980  -46.2413 C.3       3 UNK         0.1400 
     58 CB          0.0886   -7.8584  -45.5334 C.3       3 UNK        -0.1800 
     59 N           1.6016   -9.1029  -47.0541 N.am      3 UNK        -0.5000 
     60 C           2.8598   -8.9274  -46.6234 C.2       2 UNK         0.5000 
     61 O           3.1793   -8.7841  -45.4417 O.2       2 UNK        -0.5000 
     62 CA          3.9530   -8.9718  -47.7090 C.3       2 UNK         0.1400 
     63 CB          4.9637   -7.8251  -47.5410 C.3       2 UNK        -0.1800 
     64 N           4.6741  -10.2456  -47.7057 N.am      2 UNK        -0.5000 
     65 C           4.1373  -11.4544  -47.9300 C.2       1 UNK         0.5000 
     66 O           2.9357  -11.6263  -48.1467 O.2       1 UNK        -0.5000 
     67 C          -0.6503  -23.3181  -48.5150 C.2       11 UNK         0.5000 
     68 O          -0.4541  -24.3921  -49.0840 O.2       11 UNK        -0.5000 
     69 N          -1.8582  -22.7403  -48.4239 N.am      12 UNK        -0.5000 
     70 CA         -3.0825  -23.3076  -48.9894 C.3       12 UNK         0.1400 
     71 CB         -4.2290  -22.3017  -48.8757 C.3       12 UNK        -0.1800 
     72 C          -3.4974  -24.6353  -48.3404 C.2       12 UNK         0.5000 
     73 O          -3.9498  -25.5319  -49.0513 O.2       12 UNK        -0.5000 
     74 N          -3.3353  -24.7419  -47.0159 N.am      13 UNK        -0.5000 
     75 CA         -3.5905  -25.9571  -46.2450 C.3       13 UNK         0.1400 
     76 CB         -3.5538  -25.6364  -44.7434 C.3       13 UNK        -0.1800 
     77 C          -2.6035  -27.0840  -46.5955 C.2       13 UNK         0.5000 
     78 O          -3.0301  -28.2249  -46.7727 O.2       13 UNK        -0.5000 
     79 N          -1.3155  -26.7381  -46.7353 N.am      14 UNK        -0.5000 
     80 CA         -0.2464  -27.6474  -47.1542 C.3       14 UNK         0.1400 
     81 CB          1.1135  -26.9545  -46.9792 C.3       14 UNK        -0.1800 
     82 C          -0.4225  -28.1499  -48.5997 C.2       14 UNK         0.5000 
     83 O          -0.1924  -29.3301  -48.8661 O.2       14 UNK        -0.5000 
     84 N          -0.8572  -27.2551  -49.4972 N.am      15 UNK        -0.5000 
     85 CA         -1.1832  -27.5596  -50.8922 C.3       15 UNK         0.1400 
     86 CB         -1.2334  -26.2423  -51.6833 C.3       15 UNK        -0.1800 
     87 C          -2.5107  -28.3267  -51.0639 C.2       15 UNK         0.5000 
     88 O          -2.7409  -28.8889  -52.1351 O.2       15 UNK        -0.5000 
     89 N          -3.3652  -28.3037  -50.0290 N.am      16 UNK        -0.5000 
     90 CA         -4.7510  -28.7874  -49.9951 C.3       16 UNK         0.1400 
     91 CB         -4.8117  -30.3194  -50.1649 C.3       16 UNK        -0.1800 
     92 C          -5.6653  -28.0250  -50.9810 C.2       16 UNK         0.5000 
     93 O          -6.5974  -28.6018  -51.5442 O.2       16 UNK        -0.5000 
     94 N          -5.3656  -26.7350  -51.1743 N.am      17 UNK        -0.5000 
     95 CA         -6.0574  -25.8277  -52.0865 C.3       17 UNK         0.1400 
     96 CB         -5.0376  -24.8139  -52.6303 C.3       17 UNK        -0.1800 
     97 C          -7.2247  -25.0922  -51.4056 C.2       17 UNK         0.5000 
     98 O          -8.1914  -24.7489  -52.0875 O.2       17 UNK        -0.5000 
     99 N          -7.1044  -24.8689  -50.0863 N.am      18 UNK        -0.5000 
    100 CA        -7.9889  -24.0772  -49.2185 C.3       18 UNK         0.1400 
    101 CB        -9.4194  -24.6566  -49.2047 C.3       18 UNK        -0.1800 
    102 C         -7.9777  -22.5641  -49.5411 C.2       18 UNK         0.5000 
    103 O         -7.3676  -22.1340  -50.5226 O.2       18 UNK        -0.5000 
    104 N         -8.6246  -21.7756  -48.6699 N.am      19 UNK        -0.5000 
    105 CA        -8.6235  -20.3074  -48.6469 C.3       19 UNK         0.1400 
    106 CB        -9.3210  -19.7225  -49.8974 C.3       19 UNK        -0.1800 
    107 C         -7.2020  -19.7629  -48.3841 C.2       19 UNK         0.5000 
    108 O         -6.6143  -20.1247  -47.3639 O.2       19 UNK        -0.5000 
    109 N         -6.6771  -18.9235  -49.2833 N.am      20 UNK        -0.5000 
    110 CA        -5.3085  -18.4178  -49.2696 C.3       20 UNK         0.1400 
    111 CB        -5.3221  -16.9113  -48.9680 C.3       20 UNK        -0.1800 
    112 C         -4.6926  -18.7024  -50.6453 C.2       20 UNK         0.5000 
    113 O         -5.3401  -18.4456  -51.6639 O.2       20 UNK        -0.5000 
    114 N         -3.4598  -19.2256  -50.6544 N.am      21 UNK        -0.5000 
    115 CA        -2.7933  -19.7862  -51.8364 C.3       21 UNK         0.1400 
    116 CB        -1.4984  -20.4762  -51.3857 C.3       21 UNK        -0.1800 
    117 C         -2.5004  -18.7794  -52.9646 C.2       21 UNK         0.5000 
    118 O         -2.3683  -19.1855  -54.1198 O.2       21 UNK        -0.5000 
    119 N         -2.4099  -17.4958  -52.6070 N.am      22 UNK        -0.5000 
    120 CA        -2.1726  -16.3717  -53.5239 C.3       22 UNK         0.1400 
    121 C         -3.4874  -15.6608  -53.9643 C.2       22 UNK         0.5000 
    122 N         -4.6688  -16.1169  -53.5593 N.am      22 UNK        -0.7600 
    123 O         -3.4391  -14.6805  -54.7022 O.2       22 UNK        -0.5000 
    124 C124       -1.1446  -15.3687  -52.9346 C.3       23 UNK        -0.0398 
    125 S125        0.4811  -16.1313  -52.5818 S.3       23 UNK        -0.2404 
    126 C126        0.2717  -16.5372  -50.8223 C.3       23 UNK        -0.0205 
    127 H127        8.7184  -10.5511  -49.5058 H         1 UNK         0.0600 
    128 H128        8.9882  -11.8273  -48.3155 H         1 UNK         0.0600 
    129 H129        9.0093  -12.2104  -50.0388 H         1 UNK         0.0600 
    130 H130        7.1169  -12.4754  -47.3305 H         1 UNK         0.3000 
    131 H131        5.0551  -13.0045  -46.8379 H         1 UNK         0.0600 
    132 H132        4.6700  -13.6302  -49.8097 H         1 UNK         0.0800 
    133 H133        3.5281  -14.0342  -48.5680 H         1 UNK         0.0800 
    134 H134        4.6848  -17.1560  -46.9725 H         1 UNK         0.0800 
    135 H135        3.5681  -15.8187  -47.0002 H         1 UNK         0.0800 
    136 H136        1.9927  -15.5388  -48.9797 H         1 UNK         0.1150 
    137 H137        1.2235  -19.0475  -51.3058 H         1 UNK         0.1150 
    138 H138        4.4906  -18.9913  -48.5306 H         1 UNK         0.1150 
    139 H139        3.6424  -20.6804  -51.2808 H         1 UNK         0.0800 
    140 H140        3.9727  -21.0270  -49.6014 H         1 UNK         0.0800 
    141 H141        0.2801  -20.6403  -48.7045 H         1 UNK         0.0800 
    142 H142        1.8371  -20.9123  -47.9801 H         1 UNK         0.0800 
    143 H143        1.3305  -23.3402  -47.7004 H         1 UNK         0.0600 
    144 H144        0.2087  -21.2271  -46.2278 H         1 UNK         0.3000 
    145 H145       -1.4300  -23.0812  -43.6533 H         1 UNK         0.0600 
    146 H146       -0.0219  -21.5103  -42.3334 H         1 UNK         0.0600 
    147 H147        0.9461  -22.8258  -42.9823 H         1 UNK         0.0600 
    148 H148        1.0161  -21.2371  -43.7312 H         1 UNK         0.0600 
    149 H149       -1.2998  -20.2870  -44.1548 H         1 UNK         0.3000 
    150 H150       -4.2039  -20.1032  -46.2847 H         1 UNK         0.0600 
    151 H151       -5.0209  -20.1069  -43.9297 H         1 UNK         0.0600 
    152 H152       -4.8402  -18.4695  -44.5408 H         1 UNK         0.0600 
    153 H153       -3.6404  -19.1334  -43.4335 H         1 UNK         0.0600 
    154 H154       -2.3728  -18.1227  -45.3014 H         1 UNK         0.3000 
    155 H155       -0.1592  -18.2131  -48.1047 H         1 UNK         0.0600 
    156 H156       -2.2615  -16.1783  -47.1856 H         1 UNK         0.0600 
    157 H157       -1.9709  -16.7128  -48.8309 H         1 UNK         0.0600 
    158 H158       -0.7545  -15.7578  -47.9917 H         1 UNK         0.0600 
    159 H159       -0.1119  -16.5929  -45.7903 H         1 UNK         0.3000 
    160 H160        1.5842  -18.8669  -43.6017 H         1 UNK         0.0600 
    161 H161        3.3712  -17.8283  -44.9521 H         1 UNK         0.0600 
    162 H162        3.1087  -16.8989  -43.4837 H         1 UNK         0.0600 
    163 H163        2.4788  -16.3145  -45.0232 H         1 UNK         0.0600 
    164 H164        0.5782  -16.1575  -43.4074 H         1 UNK         0.3000 
    165 H165       -2.5653  -17.0551  -41.9740 H         1 UNK         0.0600 
    166 H166       -1.7214  -15.5776  -40.1717 H         1 UNK         0.0600 
    167 H167       -0.9335  -17.1448  -40.0841 H         1 UNK         0.0600 
    168 H168       -0.0654  -15.7663  -40.7490 H         1 UNK         0.0600 
    169 H169       -1.3077  -14.5362  -42.5145 H         1 UNK         0.3000 
    170 H170       -2.4443  -14.1684  -45.8646 H         1 UNK         0.0600 
    171 H171       -4.4621  -13.6056  -44.4987 H         1 UNK         0.0600 
    172 H172       -3.4411  -12.8103  -43.3057 H         1 UNK         0.0600 
    173 H173       -3.5602  -12.1651  -44.9426 H         1 UNK         0.0600 
    174 H174       -1.1597  -12.2693  -44.2665 H         1 UNK         0.3000 
    175 H175        1.2851  -12.3673  -43.7092 H         1 UNK         0.0600 
    176 H176        2.7304  -13.6572  -46.0747 H         1 UNK         0.0600 
    177 H177        3.4683  -12.5475  -44.9162 H         1 UNK         0.0600 
    178 H178        2.8727  -14.1053  -44.3769 H         1 UNK         0.0600 
    179 H179        1.6560  -11.4293  -46.4542 H         1 UNK         0.3000 
    180 H180       -0.4329   -9.3795  -46.9438 H         1 UNK         0.0600 
    181 H181        0.8223   -7.6410  -44.7567 H         1 UNK         0.0600 
    182 H182       -0.8933   -7.8720  -45.0590 H         1 UNK         0.0600 
    183 H183        0.0926   -7.0292  -46.2408 H         1 UNK         0.0600 
    184 H184        1.4672   -9.2675  -48.0426 H         1 UNK         0.3000 
    185 H185        3.4806   -8.8577  -48.6869 H         1 UNK         0.0600 
    186 H186        4.4587   -6.8583  -47.5370 H         1 UNK         0.0600 
    187 H187        5.5199   -7.9089  -46.6065 H         1 UNK         0.0600 
    188 H188        5.6839   -7.8114  -48.3594 H         1 UNK         0.0600 
    189 H189        5.6633  -10.1988  -47.5112 H         1 UNK         0.3000 
    190 H190       -1.9452  -21.8457  -47.9559 H         1 UNK         0.3000 
    191 H191       -2.8998  -23.4970  -50.0489 H         1 UNK         0.0600 
    192 H192       -4.5144  -22.1103  -47.8417 H         1 UNK         0.0600 
    193 H193       -5.1071  -22.6755  -49.3962 H         1 UNK         0.0600 
    194 H194       -3.9674  -21.3529  -49.3288 H         1 UNK         0.0600 
    195 H195       -3.0402  -23.9211  -46.4943 H         1 UNK         0.3000 
    196 H196       -4.5957  -26.3053  -46.4917 H         1 UNK         0.0600 
    197 H197       -2.5757  -25.2709  -44.4311 H         1 UNK         0.0600 
    198 H198       -3.7781  -26.5233  -44.1496 H         1 UNK         0.0600 
    199 H199       -4.2914  -24.8761  -44.4856 H         1 UNK         0.0600 
    200 H200       -1.0412  -25.7821  -46.5244 H         1 UNK         0.3000 
    201 H201       -0.2711  -28.5176  -46.4952 H         1 UNK         0.0600 
    202 H202        1.2777  -26.6672  -45.9405 H         1 UNK         0.0600 
    203 H203        1.1888  -26.0542  -47.5897 H         1 UNK         0.0600 
    204 H204        1.9304  -27.6173  -47.2672 H         1 UNK         0.0600 
    205 H205       -0.9429  -26.2825  -49.2144 H         1 UNK         0.3000 
    206 H206       -0.3866  -28.1799  -51.3078 H         1 UNK         0.0600 
    207 H207       -0.2826  -25.7117  -51.6275 H         1 UNK         0.0600 
    208 H208       -1.4427  -26.4239  -52.7382 H         1 UNK         0.0600 
    209 H209       -2.0101  -25.5768  -51.3044 H         1 UNK         0.0600 
    210 H210       -3.0735  -27.7922  -49.2067 H         1 UNK         0.3000 
    211 H211       -5.1242  -28.5531  -48.9971 H         1 UNK         0.0600 
    212 H212       -4.5234  -30.6298  -51.1694 H         1 UNK         0.0600 
    213 H213       -5.8210  -30.6916  -49.9862 H         1 UNK         0.0600 
    214 H214       -4.1519  -30.8196  -49.4559 H         1 UNK         0.0600 
    215 H215       -4.6260  -26.3347  -50.6033 H         1 UNK         0.3000 
    216 H216       -6.4592  -26.3942  -52.9294 H         1 UNK         0.0600 
    217 H217       -5.5063  -24.1315  -53.3405 H         1 UNK         0.0600 
    218 H218       -4.2213  -25.3159  -53.1504 H         1 UNK         0.0600 
    219 H219       -4.6053  -24.2094  -51.8320 H         1 UNK         0.0600 
    220 H220       -6.2556  -25.1986  -49.6476 H         1 UNK         0.3000 
    221 H221       -7.5773  -24.1820  -48.2134 H         1 UNK         0.0600 
    222 H222       -9.9419  -24.4769  -50.1445 H         1 UNK         0.0600 
    223 H223       -9.4075  -25.7322  -49.0281 H         1 UNK         0.0600 
    224 H224      -10.0193  -24.2086  -48.4122 H         1 UNK         0.0600 
    225 H225       -9.0701  -22.2115  -47.8749 H         1 UNK         0.3000 
    226 H226       -9.2189  -20.0163  -47.7803 H         1 UNK         0.0600 
    227 H227      -10.3275  -20.1271  -50.0043 H         1 UNK         0.0600 
    228 H228       -9.4200  -18.6391  -49.8195 H         1 UNK         0.0600 
    229 H229       -8.7805  -19.9401  -50.8189 H         1 UNK         0.0600 
    230 H230       -7.1920  -18.7339  -50.1329 H         1 UNK         0.3000 
    231 H231       -4.7169  -18.9257  -48.5058 H         1 UNK         0.0600 
    232 H232       -4.3156  -16.4952  -48.9891 H         1 UNK         0.0600 
    233 H233       -5.7339  -16.7149  -47.9778 H         1 UNK         0.0600 
    234 H234       -5.9199  -16.3599  -49.6949 H         1 UNK         0.0600 
    235 H235       -2.9977  -19.3996  -49.7668 H         1 UNK         0.3000 
    236 H236       -3.4531  -20.5477  -52.2576 H         1 UNK         0.0600 
    237 H237       -0.9043  -20.8135  -52.2361 H         1 UNK         0.0600 
    238 H238       -0.8779  -19.8070  -50.7911 H         1 UNK         0.0600 
    239 H239       -1.7137  -21.3537  -50.7802 H         1 UNK         0.0600 
    240 H240       -2.5794  -17.2583  -51.6425 H         1 UNK         0.3000 
    241 H241       -1.7390  -16.7580  -54.4480 H         1 UNK         0.0600 
    242 H242       -5.5064  -15.6458  -53.8622 H         1 UNK         0.3800 
    243 H243       -4.7462  -16.9408  -52.9739 H         1 UNK         0.3800 
    244 H244       -0.9669  -14.5545  -53.6392 H         1 UNK         0.0800 
    245 H245       -1.5377  -14.9006  -52.0308 H         1 UNK         0.0800 
    246 H246       -0.5799  -17.2036  -50.6992 H         1 UNK         0.0800 
    247 H247        0.0349  -15.6215  -50.2790 H         1 UNK         0.0800 
@<TRIPOS>BOND
     1    1    2 1    
     2    1  127 1    
     3    1  128 1    
     4    1  129 1    
     5    2    3 2    
     6    2    4 am   BACKBONE|DICT|INTERRES
     7    4    5 1    
     8    4  130 1    
     9    5    6 1    
    10    5   65 1    
    11    5  131 1    
    12    6    7 1    
    13    6  132 1    
    14    6  133 1    
    15    7    8 1    
    16    8    9 1    
    17    8  134 1    
    18    8  135 1    
    19    9   10 ar   
    20    9   14 ar   
    21   10   11 ar   
    22   10  136 1    
    23   11   12 ar   
    24   11  126 1    
    25   12   13 ar   
    26   12  137 1    
    27   13   14 ar   
    28   13   15 1    
    29   14  138 1    
    30   15   16 1    
    31   15  139 1    
    32   15  140 1    
    33   16   17 1    
    34   17   18 1    
    35   17  141 1    
    36   17  142 1    
    37   18   19 1    
    38   18   67 1    
    39   18  143 1    
    40   19   20 am   BACKBONE|DICT|INTERRES
    41   19  144 1    
    42   20   21 2    
    43   20   22 1    
    44   22   23 1    
    45   22   24 1    
    46   22  145 1    
    47   23  146 1    
    48   23  147 1    
    49   23  148 1    
    50   24   25 am   BACKBONE|DICT|INTERRES
    51   24  149 1    
    52   25   26 2    
    53   25   27 1    
    54   27   28 1    
    55   27   29 1    
    56   27  150 1    
    57   28  151 1    
    58   28  152 1    
    59   28  153 1    
    60   29   30 am   BACKBONE|DICT|INTERRES
    61   29  154 1    
    62   30   31 2    
    63   30   32 1    
    64   32   33 1    
    65   32   34 1    
    66   32  155 1    
    67   33  156 1    
    68   33  157 1    
    69   33  158 1    
    70   34   35 am   BACKBONE|DICT|INTERRES
    71   34  159 1    
    72   35   36 2    
    73   35   37 1    
    74   37   38 1    
    75   37   39 1    
    76   37  160 1    
    77   38  161 1    
    78   38  162 1    
    79   38  163 1    
    80   39   40 am   BACKBONE|DICT|INTERRES
    81   39  164 1    
    82   40   41 2    
    83   40   42 1    
    84   42   43 1    
    85   42   44 1    
    86   42  165 1    
    87   43  166 1    
    88   43  167 1    
    89   43  168 1    
    90   44   45 am   BACKBONE|DICT|INTERRES
    91   44  169 1    
    92   45   46 2    
    93   45   47 1    
    94   47   48 1    
    95   47   49 1    
    96   47  170 1    
    97   48  171 1    
    98   48  172 1    
    99   48  173 1    
   100   49   50 am   BACKBONE|DICT|INTERRES
   101   49  174 1    
   102   50   51 2    
   103   50   52 1    
   104   52   53 1    
   105   52   54 1    
   106   52  175 1    
   107   53  176 1    
   108   53  177 1    
   109   53  178 1    
   110   54   55 am   BACKBONE|DICT|INTERRES
   111   54  179 1    
   112   55   56 2    
   113   55   57 1    
   114   57   58 1    
   115   57   59 1    
   116   57  180 1    
   117   58  181 1    
   118   58  182 1    
   119   58  183 1    
   120   59   60 am   BACKBONE|DICT|INTERRES
   121   59  184 1    
   122   60   61 2    
   123   60   62 1    
   124   62   63 1    
   125   62   64 1    
   126   62  185 1    
   127   63  186 1    
   128   63  187 1    
   129   63  188 1    
   130   64   65 am   BACKBONE|DICT|INTERRES
   131   64  189 1    
   132   65   66 2    
   133   67   68 2    
   134   67   69 am   BACKBONE|DICT|INTERRES
   135   69   70 1    
   136   69  190 1    
   137   70   71 1    
   138   70   72 1    
   139   70  191 1    
   140   71  192 1    
   141   71  193 1    
   142   71  194 1    
   143   72   73 2    
   144   72   74 am   BACKBONE|DICT|INTERRES
   145   74   75 1    
   146   74  195 1    
   147   75   76 1    
   148   75   77 1    
   149   75  196 1    
   150   76  197 1    
   151   76  198 1    
   152   76  199 1    
   153   77   78 2    
   154   77   79 am   BACKBONE|DICT|INTERRES
   155   79   80 1    
   156   79  200 1    
   157   80   81 1    
   158   80   82 1    
   159   80  201 1    
   160   81  202 1    
   161   81  203 1    
   162   81  204 1    
   163   82   83 2    
   164   82   84 am   BACKBONE|DICT|INTERRES
   165   84   85 1    
   166   84  205 1    
   167   85   86 1    
   168   85   87 1    
   169   85  206 1    
   170   86  207 1    
   171   86  208 1    
   172   86  209 1    
   173   87   88 2    
   174   87   89 am   BACKBONE|DICT|INTERRES
   175   89   90 1    
   176   89  210 1    
   177   90   91 1    
   178   90   92 1    
   179   90  211 1    
   180   91  212 1    
   181   91  213 1    
   182   91  214 1    
   183   92   93 2    
   184   92   94 am   BACKBONE|DICT|INTERRES
   185   94   95 1    
   186   94  215 1    
   187   95   96 1    
   188   95   97 1    
   189   95  216 1    
   190   96  217 1    
   191   96  218 1    
   192   96  219 1    
   193   97   98 2    
   194   97   99 am   BACKBONE|DICT|INTERRES
   195   99  100 1    
   196   99  220 1    
   197  100  101 1    
   198  100  102 1    
   199  100  221 1    
   200  101  222 1    
   201  101  223 1    
   202  101  224 1    
   203  102  103 2    
   204  102  104 am   BACKBONE|DICT|INTERRES
   205  104  105 1    
   206  104  225 1    
   207  105  106 1    
   208  105  107 1    
   209  105  226 1    
   210  106  227 1    
   211  106  228 1    
   212  106  229 1    
   213  107  108 2    
   214  107  109 am   BACKBONE|DICT|INTERRES
   215  109  110 1    
   216  109  230 1    
   217  110  111 1    
   218  110  112 1    
   219  110  231 1    
   220  111  232 1    
   221  111  233 1    
   222  111  234 1    
   223  112  113 2    
   224  112  114 am   BACKBONE|DICT|INTERRES
   225  114  115 1    
   226  114  235 1    
   227  115  116 1    
   228  115  117 1    
   229  115  236 1    
   230  116  237 1    
   231  116  238 1    
   232  116  239 1    
   233  117  118 2    
   234  117  119 am   BACKBONE|DICT|INTERRES
   235  119  120 1    
   236  119  240 1    
   237  120  121 1    
   238  120  124 1    
   239  120  241 1    
   240  121  122 am   BACKBONE|DICT|INTERRES
   241  121  123 2    
   242  122  242 1    
   243  122  243 1    
   244  124  125 1    
   245  124  244 1    
   246  124  245 1    
   247  125  126 1    
   248  126  246 1    
   249  126  247 1    
@<TRIPOS>SUBSTRUCTURE
     1 UNK         1 GROUP             0       ****    0 ROOT    
