@<TRIPOS>MOLECULE
3R540
247   249    1
SMALL
USER_CHARGES


@<TRIPOS>ATOM
      1 CA         -3.3686  -14.1928  -48.2776 C.3       0 UNK        -0.1800 
      2 C          -2.4015  -13.8147  -49.3889 C.2       0 UNK         0.5000 
      3 O          -2.6395  -14.1447  -50.5498 O.2       0 UNK        -0.5000 
      4 N          -1.3120  -13.1298  -49.0290 N.am      1 UNK        -0.5000 
      5 CA         -0.2386  -12.6981  -49.9301 C.3       1 UNK         0.1400 
      6 C6          0.9896  -13.6508  -49.9139 C.3       23 UNK        -0.0398 
      7 S7          1.7903  -13.9088  -48.2850 S.3       23 UNK        -0.2404 
      8 C8          0.8096  -15.2308  -47.4912 C.3       23 UNK        -0.0205 
      9 C9          0.8705  -16.5692  -48.2114 C.ar      23 UNK        -0.0193 
     10 C10        -0.0323  -16.8513  -49.2365 C.ar      23 UNK        -0.1150 
     11 C11         0.0396  -18.0511  -49.9423 C.ar      23 UNK        -0.0193 
     12 C12         0.9836  -19.0123  -49.5678 C.ar      23 UNK        -0.1150 
     13 C13         1.8554  -18.7743  -48.4956 C.ar      23 UNK        -0.0193 
     14 C14         1.8034  -17.5401  -47.8375 C.ar      23 UNK        -0.1150 
     15 C15         2.8948  -19.8037  -48.0523 C.3       23 UNK        -0.0205 
     16 S16         2.3794  -21.5486  -48.2106 S.3       23 UNK        -0.2404 
     17 C17         0.9689  -21.6471  -47.0587 C.3       23 UNK        -0.0398 
     18 CA          0.4727  -23.1058  -46.9113 C.3       11 UNK         0.1400 
     19 N           1.4601  -23.9593  -46.2465 N.am      11 UNK        -0.5000 
     20 C           1.4393  -25.2977  -46.2448 C.2       10 UNK         0.5000 
     21 O           0.5732  -25.9712  -46.8025 O.2       10 UNK        -0.5000 
     22 CA          2.5593  -25.9953  -45.4526 C.3       10 UNK         0.1400 
     23 CB          3.8659  -26.0153  -46.2602 C.3       10 UNK        -0.1800 
     24 N           2.7998  -25.3696  -44.1505 N.am      10 UNK        -0.5000 
     25 C           1.9198  -25.3857  -43.1406 C.2       9 UNK         0.5000 
     26 O           0.8181  -25.9310  -43.2020 O.2       9 UNK        -0.5000 
     27 CA          2.3178  -24.6339  -41.8570 C.3       9 UNK         0.1400 
     28 CB          3.2795  -25.4829  -41.0116 C.3       9 UNK        -0.1800 
     29 N           2.8953  -23.2987  -42.0569 N.am      9 UNK        -0.5000 
     30 C           2.3564  -22.3178  -42.7932 C.2       8 UNK         0.5000 
     31 O           1.4214  -22.4747  -43.5773 O.2       8 UNK        -0.5000 
     32 CA          2.9465  -20.9078  -42.6267 C.3       8 UNK         0.1400 
     33 CB          3.8398  -20.5539  -43.8251 C.3       8 UNK        -0.1800 
     34 N           1.8730  -19.9171  -42.5171 N.am      8 UNK        -0.5000 
     35 C           0.9801  -19.8616  -41.5167 C.2       7 UNK         0.5000 
     36 O           1.0433  -20.5662  -40.5080 O.2       7 UNK        -0.5000 
     37 CA         -0.1744  -18.8514  -41.6508 C.3       7 UNK         0.1400 
     38 CB          0.0624  -17.6392  -40.7362 C.3       7 UNK        -0.1800 
     39 N          -0.3576  -18.3684  -43.0187 N.am      7 UNK        -0.5000 
     40 C          -1.0934  -18.9565  -43.9680 C.2       6 UNK         0.5000 
     41 O          -1.7076  -20.0089  -43.7982 O.2       6 UNK        -0.5000 
     42 CA         -1.1778  -18.2082  -45.3192 C.3       6 UNK         0.1400 
     43 CB         -1.9721  -18.9879  -46.3844 C.3       6 UNK        -0.1800 
     44 N          -1.7553  -16.8642  -45.1821 N.am      6 UNK        -0.5000 
     45 C          -1.1448  -15.8101  -44.6250 C.2       5 UNK         0.5000 
     46 O           0.0068  -15.8536  -44.1813 O.2       5 UNK        -0.5000 
     47 CA         -1.9580  -14.5069  -44.5170 C.3       5 UNK         0.1400 
     48 CB         -3.0104  -14.6205  -43.4028 C.3       5 UNK        -0.1800 
     49 N          -1.0573  -13.4013  -44.1980 N.am      5 UNK        -0.5000 
     50 C          -0.4675  -12.6094  -45.0981 C.2       4 UNK         0.5000 
     51 O          -0.7960  -12.5434  -46.2874 O.2       4 UNK        -0.5000 
     52 CA          0.7179  -11.7850  -44.5749 C.3       4 UNK         0.1400 
     53 CB          1.9072  -12.6998  -44.2184 C.3       4 UNK        -0.1800 
     54 N           1.1245  -10.8283  -45.5950 N.am      4 UNK        -0.5000 
     55 C           1.8635   -9.7309  -45.3975 C.2       3 UNK         0.5000 
     56 O           2.2912   -9.3834  -44.2959 O.2       3 UNK        -0.5000 
     57 CA          2.1843   -8.8739  -46.6374 C.3       3 UNK         0.1400 
     58 CB          3.5899   -9.2005  -47.1646 C.3       3 UNK        -0.1800 
     59 N           1.2212   -9.0636  -47.7214 N.am      3 UNK        -0.5000 
     60 C          -0.0278   -8.5873  -47.7383 C.2       2 UNK         0.5000 
     61 O          -0.4941   -7.8670  -46.8550 O.2       2 UNK        -0.5000 
     62 CA         -0.9175   -9.0047  -48.9241 C.3       2 UNK         0.1400 
     63 CB         -0.6112   -8.1631  -50.1777 C.3       2 UNK        -0.1800 
     64 N          -0.8969  -10.4451  -49.2203 N.am      2 UNK        -0.5000 
     65 C           0.0985  -11.2105  -49.6975 C.2       1 UNK         0.5000 
     66 O           1.2263  -10.7835  -49.9501 O.2       1 UNK        -0.5000 
     67 C          -0.8991  -23.1769  -46.2118 C.2       11 UNK         0.5000 
     68 O          -1.9237  -23.2064  -46.8943 O.2       11 UNK        -0.5000 
     69 N          -0.8931  -23.2533  -44.8753 N.am      12 UNK        -0.5000 
     70 CA         -2.0713  -23.4424  -44.0338 C.3       12 UNK         0.1400 
     71 CB         -1.6827  -23.2670  -42.5569 C.3       12 UNK        -0.1800 
     72 C          -2.7333  -24.8114  -44.2652 C.2       12 UNK         0.5000 
     73 O          -3.9510  -24.8710  -44.4352 O.2       12 UNK        -0.5000 
     74 N          -1.9204  -25.8784  -44.3055 N.am      13 UNK        -0.5000 
     75 CA         -2.3598  -27.2512  -44.5684 C.3       13 UNK         0.1400 
     76 CB         -1.1974  -28.2226  -44.3143 C.3       13 UNK        -0.1800 
     77 C          -2.9227  -27.4417  -45.9884 C.2       13 UNK         0.5000 
     78 O          -3.9147  -28.1514  -46.1587 O.2       13 UNK        -0.5000 
     79 N          -2.2972  -26.7867  -46.9756 N.am      14 UNK        -0.5000 
     80 CA         -2.7389  -26.7715  -48.3710 C.3       14 UNK         0.1400 
     81 CB         -1.5790  -26.2775  -49.2504 C.3       14 UNK        -0.1800 
     82 C          -3.9885  -25.9018  -48.6149 C.2       14 UNK         0.5000 
     83 O          -4.6267  -26.0600  -49.6561 O.2       14 UNK        -0.5000 
     84 N          -4.2870  -24.9840  -47.6804 N.am      15 UNK        -0.5000 
     85 CA         -5.2708  -23.8991  -47.7789 C.3       15 UNK         0.1400 
     86 CB         -6.7103  -24.4500  -47.8250 C.3       15 UNK        -0.1800 
     87 C          -4.9390  -22.9598  -48.9563 C.2       15 UNK         0.5000 
     88 O          -5.8112  -22.6120  -49.7547 O.2       15 UNK        -0.5000 
     89 N          -3.6522  -22.6015  -49.0593 N.am      16 UNK        -0.5000 
     90 CA         -3.0337  -21.9668  -50.2215 C.3       16 UNK         0.1400 
     91 CB         -1.5247  -21.8440  -49.9772 C.3       16 UNK        -0.1800 
     92 C          -3.6344  -20.6051  -50.6043 C.2       16 UNK         0.5000 
     93 O          -3.6645  -20.2838  -51.7909 O.2       16 UNK        -0.5000 
     94 N          -4.1149  -19.8423  -49.6130 N.am      17 UNK        -0.5000 
     95 CA         -4.7896  -18.5578  -49.8181 C.3       17 UNK         0.1400 
     96 CB         -4.8100  -17.7718  -48.4987 C.3       17 UNK        -0.1800 
     97 C          -6.2134  -18.7064  -50.3855 C.2       17 UNK         0.5000 
     98 O          -6.6583  -17.8304  -51.1270 O.2       17 UNK        -0.5000 
     99 N          -6.8964  -19.8088  -50.0466 N.am      18 UNK        -0.5000 
    100 CA        -8.2234  -20.1428  -50.5667 C.3       18 UNK         0.1400 
    101 CB        -8.9401  -21.0860  -49.5878 C.3       18 UNK        -0.1800 
    102 C         -8.1264  -20.7726  -51.9660 C.2       18 UNK         0.5000 
    103 O         -8.9376  -20.4571  -52.8370 O.2       18 UNK        -0.5000 
    104 N         -7.1155  -21.6306  -52.1599 N.am      19 UNK        -0.5000 
    105 CA        -6.7927  -22.2729  -53.4342 C.3       19 UNK         0.1400 
    106 CB        -5.8311  -23.4403  -53.1610 C.3       19 UNK        -0.1800 
    107 C         -6.1757  -21.3095  -54.4687 C.2       19 UNK         0.5000 
    108 O         -6.2226  -21.6036  -55.6634 O.2       19 UNK        -0.5000 
    109 N         -5.5863  -20.2037  -53.9869 N.am      20 UNK        -0.5000 
    110 CA        -4.7790  -19.2210  -54.7204 C.3       20 UNK         0.1400 
    111 CB        -5.6277  -18.4640  -55.7622 C.3       20 UNK        -0.1800 
    112 C         -3.4985  -19.8482  -55.3136 C.2       20 UNK         0.5000 
    113 O         -3.0562  -19.4659  -56.3988 O.2       20 UNK        -0.5000 
    114 N         -2.9214  -20.8090  -54.5780 N.am      21 UNK        -0.5000 
    115 CA        -1.7813  -21.6320  -54.9903 C.3       21 UNK         0.1400 
    116 CB        -1.6125  -22.7849  -53.9895 C.3       21 UNK        -0.1800 
    117 C         -0.4685  -20.8405  -55.1410 C.2       21 UNK         0.5000 
    118 O          0.4026  -21.2481  -55.9101 O.2       21 UNK        -0.5000 
    119 N         -0.3654  -19.7169  -54.4234 N.am      22 UNK        -0.5000 
    120 CA         0.7110  -18.7240  -54.5465 C.3       22 UNK         0.1400 
    121 C          0.5534  -17.7480  -55.7530 C.2       22 UNK         0.5000 
    122 N         -0.5247  -17.7973  -56.5289 N.am      22 UNK        -0.7600 
    123 O          1.4415  -16.9382  -56.0052 O.2       22 UNK        -0.5000 
    124 C124        0.9505  -17.9780  -53.2070 C.3       23 UNK        -0.0398 
    125 S125       -0.5524  -17.1958  -52.5187 S.3       23 UNK        -0.2404 
    126 C126       -0.9104  -18.2867  -51.1057 C.3       23 UNK        -0.0205 
    127 H127       -3.0773  -15.1457  -47.8367 H         1 UNK         0.0600 
    128 H128       -4.3819  -14.2898  -48.6679 H         1 UNK         0.0600 
    129 H129       -3.3812  -13.4346  -47.4945 H         1 UNK         0.0600 
    130 H130       -1.1617  -12.9006  -48.0463 H         1 UNK         0.3000 
    131 H131       -0.6188  -12.7114  -50.9535 H         1 UNK         0.0600 
    132 H132        0.7127  -14.6096  -50.3442 H         1 UNK         0.0800 
    133 H133        1.7558  -13.2726  -50.5922 H         1 UNK         0.0800 
    134 H134       -0.2276  -14.9189  -47.3860 H         1 UNK         0.0800 
    135 H135        1.1884  -15.3511  -46.4764 H         1 UNK         0.0800 
    136 H136       -0.7741  -16.1200  -49.5189 H         1 UNK         0.1150 
    137 H137        1.0381  -19.9444  -50.1114 H         1 UNK         0.1150 
    138 H138        2.4916  -17.3312  -47.0304 H         1 UNK         0.1150 
    139 H139        3.1839  -19.6250  -47.0160 H         1 UNK         0.0800 
    140 H140        3.7946  -19.6563  -48.6506 H         1 UNK         0.0800 
    141 H141        0.1820  -21.0046  -47.4504 H         1 UNK         0.0800 
    142 H142        1.2538  -21.2318  -46.0908 H         1 UNK         0.0800 
    143 H143        0.3241  -23.5088  -47.9151 H         1 UNK         0.0600 
    144 H144        2.1695  -23.4858  -45.7069 H         1 UNK         0.3000 
    145 H145        2.2500  -27.0287  -45.2811 H         1 UNK         0.0600 
    146 H146        3.7163  -26.4898  -47.2310 H         1 UNK         0.0600 
    147 H147        4.6416  -26.5782  -45.7407 H         1 UNK         0.0600 
    148 H148        4.2453  -25.0089  -46.4418 H         1 UNK         0.0600 
    149 H149        3.6763  -24.8855  -44.0231 H         1 UNK         0.3000 
    150 H150        1.4029  -24.4931  -41.2780 H         1 UNK         0.0600 
    151 H151        3.4551  -25.0280  -40.0366 H         1 UNK         0.0600 
    152 H152        2.8701  -26.4784  -40.8337 H         1 UNK         0.0600 
    153 H153        4.2451  -25.6078  -41.5030 H         1 UNK         0.0600 
    154 H154        3.6799  -23.0714  -41.4634 H         1 UNK         0.3000 
    155 H155        3.5450  -20.8696  -41.7143 H         1 UNK         0.0600 
    156 H156        3.2841  -20.5793  -44.7626 H         1 UNK         0.0600 
    157 H157        4.6676  -21.2582  -43.9161 H         1 UNK         0.0600 
    158 H158        4.2708  -19.5585  -43.7169 H         1 UNK         0.0600 
    159 H159        1.7269  -19.3161  -43.3131 H         1 UNK         0.3000 
    160 H160       -1.0881  -19.3524  -41.3239 H         1 UNK         0.0600 
    161 H161        0.9634  -17.0928  -41.0181 H         1 UNK         0.0600 
    162 H162        0.1761  -17.9483  -39.6964 H         1 UNK         0.0600 
    163 H163       -0.7770  -16.9447  -40.7781 H         1 UNK         0.0600 
    164 H164        0.0568  -17.4677  -43.2468 H         1 UNK         0.3000 
    165 H165       -0.1538  -18.1106  -45.6852 H         1 UNK         0.0600 
    166 H166       -1.6412  -20.0239  -46.4502 H         1 UNK         0.0600 
    167 H167       -3.0386  -19.0056  -46.1585 H         1 UNK         0.0600 
    168 H168       -1.8372  -18.5467  -47.3717 H         1 UNK         0.0600 
    169 H169       -2.7146  -16.7672  -45.4802 H         1 UNK         0.3000 
    170 H170       -2.4623  -14.3253  -45.4665 H         1 UNK         0.0600 
    171 H171       -2.5543  -14.8447  -42.4375 H         1 UNK         0.0600 
    172 H172       -3.7296  -15.4118  -43.6176 H         1 UNK         0.0600 
    173 H173       -3.5735  -13.6928  -43.2990 H         1 UNK         0.0600 
    174 H174       -0.6804  -13.4150  -43.2612 H         1 UNK         0.3000 
    175 H175        0.3884  -11.2423  -43.6866 H         1 UNK         0.0600 
    176 H176        2.7481  -12.1282  -43.8262 H         1 UNK         0.0600 
    177 H177        1.6351  -13.4303  -43.4559 H         1 UNK         0.0600 
    178 H178        2.2582  -13.2537  -45.0902 H         1 UNK         0.0600 
    179 H179        0.7669  -11.0301  -46.5196 H         1 UNK         0.3000 
    180 H180        2.1650   -7.8254  -46.3327 H         1 UNK         0.0600 
    181 H181        3.6620  -10.2366  -47.4989 H         1 UNK         0.0600 
    182 H182        4.3433   -9.0511  -46.3901 H         1 UNK         0.0600 
    183 H183        3.8553   -8.5579  -48.0042 H         1 UNK         0.0600 
    184 H184        1.5043   -9.6561  -48.4984 H         1 UNK         0.3000 
    185 H185       -1.9454   -8.7838  -48.6319 H         1 UNK         0.0600 
    186 H186       -0.7346   -7.0996  -49.9698 H         1 UNK         0.0600 
    187 H187        0.4104   -8.3073  -50.5299 H         1 UNK         0.0600 
    188 H188       -1.2865   -8.4145  -50.9954 H         1 UNK         0.0600 
    189 H189       -1.7667  -10.9228  -49.0288 H         1 UNK         0.3000 
    190 H190       -0.0038  -23.1476  -44.3892 H         1 UNK         0.3000 
    191 H191       -2.7948  -22.6663  -44.2923 H         1 UNK         0.0600 
    192 H192       -1.2485  -22.2835  -42.3768 H         1 UNK         0.0600 
    193 H193       -2.5555  -23.3611  -41.9100 H         1 UNK         0.0600 
    194 H194       -0.9542  -24.0127  -42.2387 H         1 UNK         0.0600 
    195 H195       -0.9308  -25.7512  -44.1140 H         1 UNK         0.3000 
    196 H196       -3.1587  -27.4864  -43.8622 H         1 UNK         0.0600 
    197 H197       -0.3434  -28.0046  -44.9567 H         1 UNK         0.0600 
    198 H198       -1.4988  -29.2535  -44.5046 H         1 UNK         0.0600 
    199 H199       -0.8595  -28.1694  -43.2793 H         1 UNK         0.0600 
    200 H200       -1.4424  -26.2814  -46.7647 H         1 UNK         0.3000 
    201 H201       -2.9841  -27.7929  -48.6692 H         1 UNK         0.0600 
    202 H202       -1.8594  -26.2682  -50.3044 H         1 UNK         0.0600 
    203 H203       -0.7067  -26.9239  -49.1524 H         1 UNK         0.0600 
    204 H204       -1.2771  -25.2646  -48.9817 H         1 UNK         0.0600 
    205 H205       -3.6815  -24.9384  -46.8714 H         1 UNK         0.3000 
    206 H206       -5.1688  -23.3066  -46.8686 H         1 UNK         0.0600 
    207 H207       -6.9095  -24.9960  -48.7475 H         1 UNK         0.0600 
    208 H208       -6.9006  -25.1225  -46.9886 H         1 UNK         0.0600 
    209 H209       -7.4376  -23.6400  -47.7629 H         1 UNK         0.0600 
    210 H210       -3.0175  -22.9011  -48.3210 H         1 UNK         0.3000 
    211 H211       -3.1841  -22.6390  -51.0680 H         1 UNK         0.0600 
    212 H212       -1.0051  -21.4985  -50.8692 H         1 UNK         0.0600 
    213 H213       -1.0886  -22.8064  -49.7123 H         1 UNK         0.0600 
    214 H214       -1.3103  -21.1391  -49.1747 H         1 UNK         0.0600 
    215 H215       -4.0518  -20.1870  -48.6666 H         1 UNK         0.3000 
    216 H216       -4.2199  -17.9753  -50.5445 H         1 UNK         0.0600 
    217 H217       -5.2898  -18.3358  -47.6982 H         1 UNK         0.0600 
    218 H218       -3.8001  -17.5193  -48.1799 H         1 UNK         0.0600 
    219 H219       -5.3530  -16.8324  -48.6107 H         1 UNK         0.0600 
    220 H220       -6.4379  -20.5202  -49.4929 H         1 UNK         0.3000 
    221 H221       -8.8164  -19.2290  -50.6467 H         1 UNK         0.0600 
    222 H222       -8.4170  -22.0364  -49.4809 H         1 UNK         0.0600 
    223 H223       -9.0253  -20.6369  -48.5983 H         1 UNK         0.0600 
    224 H224       -9.9508  -21.3074  -49.9327 H         1 UNK         0.0600 
    225 H225       -6.5416  -21.8878  -51.3609 H         1 UNK         0.3000 
    226 H226       -7.7132  -22.6760  -53.8613 H         1 UNK         0.0600 
    227 H227       -6.2670  -24.1578  -52.4653 H         1 UNK         0.0600 
    228 H228       -5.5957  -23.9785  -54.0800 H         1 UNK         0.0600 
    229 H229       -4.8904  -23.0923  -52.7342 H         1 UNK         0.0600 
    230 H230       -5.5611  -20.1020  -52.9810 H         1 UNK         0.3000 
    231 H231       -4.4430  -18.4938  -53.9796 H         1 UNK         0.0600 
    232 H232       -5.9390  -19.1112  -56.5824 H         1 UNK         0.0600 
    233 H233       -5.0644  -17.6372  -56.1963 H         1 UNK         0.0600 
    234 H234       -6.5241  -18.0422  -55.3077 H         1 UNK         0.0600 
    235 H235       -3.3045  -20.9799  -53.6549 H         1 UNK         0.3000 
    236 H236       -2.0174  -22.0597  -55.9668 H         1 UNK         0.0600 
    237 H237       -1.3834  -22.4173  -52.9903 H         1 UNK         0.0600 
    238 H238       -2.5169  -23.3903  -53.9268 H         1 UNK         0.0600 
    239 H239       -0.7992  -23.4468  -54.2897 H         1 UNK         0.0600 
    240 H240       -1.1430  -19.4490  -53.8385 H         1 UNK         0.3000 
    241 H241        1.6321  -19.2708  -54.7569 H         1 UNK         0.0600 
    242 H242       -0.5965  -17.1605  -57.3064 H         1 UNK         0.3800 
    243 H243       -1.2717  -18.4617  -56.3630 H         1 UNK         0.3800 
    244 H244        1.7177  -17.2103  -53.3204 H         1 UNK         0.0800 
    245 H245        1.3572  -18.6786  -52.4775 H         1 UNK         0.0800 
    246 H246       -0.8817  -19.3228  -51.4379 H         1 UNK         0.0800 
    247 H247       -1.9277  -18.0944  -50.7692 H         1 UNK         0.0800 
@<TRIPOS>BOND
     1    1    2 1    
     2    1  127 1    
     3    1  128 1    
     4    1  129 1    
     5    2    3 2    
     6    2    4 am   BACKBONE|DICT|INTERRES
     7    4    5 1    
     8    4  130 1    
     9    5    6 1    
    10    5   65 1    
    11    5  131 1    
    12    6    7 1    
    13    6  132 1    
    14    6  133 1    
    15    7    8 1    
    16    8    9 1    
    17    8  134 1    
    18    8  135 1    
    19    9   10 ar   
    20    9   14 ar   
    21   10   11 ar   
    22   10  136 1    
    23   11   12 ar   
    24   11  126 1    
    25   12   13 ar   
    26   12  137 1    
    27   13   14 ar   
    28   13   15 1    
    29   14  138 1    
    30   15   16 1    
    31   15  139 1    
    32   15  140 1    
    33   16   17 1    
    34   17   18 1    
    35   17  141 1    
    36   17  142 1    
    37   18   19 1    
    38   18   67 1    
    39   18  143 1    
    40   19   20 am   BACKBONE|DICT|INTERRES
    41   19  144 1    
    42   20   21 2    
    43   20   22 1    
    44   22   23 1    
    45   22   24 1    
    46   22  145 1    
    47   23  146 1    
    48   23  147 1    
    49   23  148 1    
    50   24   25 am   BACKBONE|DICT|INTERRES
    51   24  149 1    
    52   25   26 2    
    53   25   27 1    
    54   27   28 1    
    55   27   29 1    
    56   27  150 1    
    57   28  151 1    
    58   28  152 1    
    59   28  153 1    
    60   29   30 am   BACKBONE|DICT|INTERRES
    61   29  154 1    
    62   30   31 2    
    63   30   32 1    
    64   32   33 1    
    65   32   34 1    
    66   32  155 1    
    67   33  156 1    
    68   33  157 1    
    69   33  158 1    
    70   34   35 am   BACKBONE|DICT|INTERRES
    71   34  159 1    
    72   35   36 2    
    73   35   37 1    
    74   37   38 1    
    75   37   39 1    
    76   37  160 1    
    77   38  161 1    
    78   38  162 1    
    79   38  163 1    
    80   39   40 am   BACKBONE|DICT|INTERRES
    81   39  164 1    
    82   40   41 2    
    83   40   42 1    
    84   42   43 1    
    85   42   44 1    
    86   42  165 1    
    87   43  166 1    
    88   43  167 1    
    89   43  168 1    
    90   44   45 am   BACKBONE|DICT|INTERRES
    91   44  169 1    
    92   45   46 2    
    93   45   47 1    
    94   47   48 1    
    95   47   49 1    
    96   47  170 1    
    97   48  171 1    
    98   48  172 1    
    99   48  173 1    
   100   49   50 am   BACKBONE|DICT|INTERRES
   101   49  174 1    
   102   50   51 2    
   103   50   52 1    
   104   52   53 1    
   105   52   54 1    
   106   52  175 1    
   107   53  176 1    
   108   53  177 1    
   109   53  178 1    
   110   54   55 am   BACKBONE|DICT|INTERRES
   111   54  179 1    
   112   55   56 2    
   113   55   57 1    
   114   57   58 1    
   115   57   59 1    
   116   57  180 1    
   117   58  181 1    
   118   58  182 1    
   119   58  183 1    
   120   59   60 am   BACKBONE|DICT|INTERRES
   121   59  184 1    
   122   60   61 2    
   123   60   62 1    
   124   62   63 1    
   125   62   64 1    
   126   62  185 1    
   127   63  186 1    
   128   63  187 1    
   129   63  188 1    
   130   64   65 am   BACKBONE|DICT|INTERRES
   131   64  189 1    
   132   65   66 2    
   133   67   68 2    
   134   67   69 am   BACKBONE|DICT|INTERRES
   135   69   70 1    
   136   69  190 1    
   137   70   71 1    
   138   70   72 1    
   139   70  191 1    
   140   71  192 1    
   141   71  193 1    
   142   71  194 1    
   143   72   73 2    
   144   72   74 am   BACKBONE|DICT|INTERRES
   145   74   75 1    
   146   74  195 1    
   147   75   76 1    
   148   75   77 1    
   149   75  196 1    
   150   76  197 1    
   151   76  198 1    
   152   76  199 1    
   153   77   78 2    
   154   77   79 am   BACKBONE|DICT|INTERRES
   155   79   80 1    
   156   79  200 1    
   157   80   81 1    
   158   80   82 1    
   159   80  201 1    
   160   81  202 1    
   161   81  203 1    
   162   81  204 1    
   163   82   83 2    
   164   82   84 am   BACKBONE|DICT|INTERRES
   165   84   85 1    
   166   84  205 1    
   167   85   86 1    
   168   85   87 1    
   169   85  206 1    
   170   86  207 1    
   171   86  208 1    
   172   86  209 1    
   173   87   88 2    
   174   87   89 am   BACKBONE|DICT|INTERRES
   175   89   90 1    
   176   89  210 1    
   177   90   91 1    
   178   90   92 1    
   179   90  211 1    
   180   91  212 1    
   181   91  213 1    
   182   91  214 1    
   183   92   93 2    
   184   92   94 am   BACKBONE|DICT|INTERRES
   185   94   95 1    
   186   94  215 1    
   187   95   96 1    
   188   95   97 1    
   189   95  216 1    
   190   96  217 1    
   191   96  218 1    
   192   96  219 1    
   193   97   98 2    
   194   97   99 am   BACKBONE|DICT|INTERRES
   195   99  100 1    
   196   99  220 1    
   197  100  101 1    
   198  100  102 1    
   199  100  221 1    
   200  101  222 1    
   201  101  223 1    
   202  101  224 1    
   203  102  103 2    
   204  102  104 am   BACKBONE|DICT|INTERRES
   205  104  105 1    
   206  104  225 1    
   207  105  106 1    
   208  105  107 1    
   209  105  226 1    
   210  106  227 1    
   211  106  228 1    
   212  106  229 1    
   213  107  108 2    
   214  107  109 am   BACKBONE|DICT|INTERRES
   215  109  110 1    
   216  109  230 1    
   217  110  111 1    
   218  110  112 1    
   219  110  231 1    
   220  111  232 1    
   221  111  233 1    
   222  111  234 1    
   223  112  113 2    
   224  112  114 am   BACKBONE|DICT|INTERRES
   225  114  115 1    
   226  114  235 1    
   227  115  116 1    
   228  115  117 1    
   229  115  236 1    
   230  116  237 1    
   231  116  238 1    
   232  116  239 1    
   233  117  118 2    
   234  117  119 am   BACKBONE|DICT|INTERRES
   235  119  120 1    
   236  119  240 1    
   237  120  121 1    
   238  120  124 1    
   239  120  241 1    
   240  121  122 am   BACKBONE|DICT|INTERRES
   241  121  123 2    
   242  122  242 1    
   243  122  243 1    
   244  124  125 1    
   245  124  244 1    
   246  124  245 1    
   247  125  126 1    
   248  126  246 1    
   249  126  247 1    
@<TRIPOS>SUBSTRUCTURE
     1 UNK         1 GROUP             0       ****    0 ROOT    
