@<TRIPOS>MOLECULE
3R540
247   249    1
SMALL
USER_CHARGES


@<TRIPOS>ATOM
      1 CA          0.0339  -12.1216  -47.5141 C.3       0 UNK        -0.1800 
      2 C          -0.0752  -13.4535  -48.2410 C.2       0 UNK         0.5000 
      3 O          -0.8059  -14.3349  -47.7936 O.2       0 UNK        -0.5000 
      4 N           0.6431  -13.5981  -49.3624 N.am      1 UNK        -0.5000 
      5 CA          0.7372  -14.8232  -50.1720 C.3       1 UNK         0.1400 
      6 C6          1.8984  -14.7346  -51.1961 C.3       23 UNK        -0.0398 
      7 S7          3.5256  -14.7615  -50.3610 S.3       23 UNK        -0.2404 
      8 C8          4.2297  -16.3697  -50.8803 C.3       23 UNK        -0.0205 
      9 C9          3.2385  -17.5234  -50.7802 C.ar      23 UNK        -0.0193 
     10 C10         2.9453  -18.2957  -51.9077 C.ar      23 UNK        -0.1150 
     11 C11         1.9558  -19.2851  -51.8595 C.ar      23 UNK        -0.0193 
     12 C12         1.2805  -19.5144  -50.6571 C.ar      23 UNK        -0.1150 
     13 C13         1.5803  -18.7643  -49.5173 C.ar      23 UNK        -0.0193 
     14 C14         2.5742  -17.7857  -49.5806 C.ar      23 UNK        -0.1150 
     15 C15         0.8009  -18.9718  -48.2309 C.3       23 UNK        -0.0205 
     16 S16         1.8512  -19.6817  -46.9305 S.3       23 UNK        -0.2404 
     17 C17         0.6265  -19.9051  -45.6018 C.3       23 UNK        -0.0398 
     18 CA          0.0321  -21.3299  -45.6245 C.3       11 UNK         0.1400 
     19 N           1.0649  -22.3642  -45.5085 N.am      11 UNK        -0.5000 
     20 C           0.8869  -23.6624  -45.7781 C.2       10 UNK         0.5000 
     21 O          -0.1911  -24.1419  -46.1181 O.2       10 UNK        -0.5000 
     22 CA          2.1129  -24.5765  -45.6104 C.3       10 UNK         0.1400 
     23 CB          3.0196  -24.4919  -46.8476 C.3       10 UNK        -0.1800 
     24 N           2.8863  -24.2395  -44.4150 N.am      10 UNK        -0.5000 
     25 C           2.4734  -24.4760  -43.1617 C.2       9 UNK         0.5000 
     26 O           1.4398  -25.0850  -42.8856 O.2       9 UNK        -0.5000 
     27 CA          3.3425  -23.8999  -42.0258 C.3       9 UNK         0.1400 
     28 CB          4.4235  -24.9085  -41.6093 C.3       9 UNK        -0.1800 
     29 N           3.9769  -22.6164  -42.3522 N.am      9 UNK        -0.5000 
     30 C           3.3113  -21.4966  -42.6638 C.2       8 UNK         0.5000 
     31 O           2.0831  -21.4436  -42.7654 O.2       8 UNK        -0.5000 
     32 CA          4.1599  -20.2443  -42.9575 C.3       8 UNK         0.1400 
     33 CB          4.7535  -20.3135  -44.3724 C.3       8 UNK        -0.1800 
     34 N           3.3558  -19.0271  -42.8370 N.am      8 UNK        -0.5000 
     35 C           2.9511  -18.5085  -41.6707 C.2       7 UNK         0.5000 
     36 O           3.3423  -18.9261  -40.5786 O.2       7 UNK        -0.5000 
     37 CA          1.9109  -17.3690  -41.7142 C.3       7 UNK         0.1400 
     38 CB          2.1633  -16.3024  -40.6280 C.3       7 UNK        -0.1800 
     39 N           1.7098  -16.7329  -43.0221 N.am      7 UNK        -0.5000 
     40 C           2.5792  -15.9785  -43.7146 C.2       6 UNK         0.5000 
     41 O           3.7687  -15.8583  -43.4210 O.2       6 UNK        -0.5000 
     42 CA          2.0201  -15.1940  -44.9247 C.3       6 UNK         0.1400 
     43 CB          2.3393  -15.9177  -46.2384 C.3       6 UNK        -0.1800 
     44 N           0.5754  -14.9552  -44.8519 N.am      6 UNK        -0.5000 
     45 C          -0.0283  -14.2119  -43.9138 C.2       5 UNK         0.5000 
     46 O           0.5835  -13.5307  -43.0901 O.2       5 UNK        -0.5000 
     47 CA         -1.5682  -14.2526  -43.8505 C.3       5 UNK         0.1400 
     48 CB         -2.1671  -12.9725  -44.4535 C.3       5 UNK        -0.1800 
     49 N          -2.2066  -15.4074  -44.4898 N.am      5 UNK        -0.5000 
     50 C          -2.0115  -16.7092  -44.2266 C.2       4 UNK         0.5000 
     51 O          -1.1539  -17.1302  -43.4502 O.2       4 UNK        -0.5000 
     52 CA         -2.9327  -17.7130  -44.9547 C.3       4 UNK         0.1400 
     53 CB         -3.8903  -18.3896  -43.9622 C.3       4 UNK        -0.1800 
     54 N          -3.7190  -17.0889  -46.0232 N.am      4 UNK        -0.5000 
     55 C          -3.2321  -16.7738  -47.2305 C.2       3 UNK         0.5000 
     56 O          -2.1118  -17.1139  -47.6137 O.2       3 UNK        -0.5000 
     57 CA         -4.1469  -15.9307  -48.1370 C.3       3 UNK         0.1400 
     58 CB         -4.8216  -14.7666  -47.3819 C.3       3 UNK        -0.1800 
     59 N          -3.3726  -15.3864  -49.2453 N.am      3 UNK        -0.5000 
     60 C          -3.8419  -15.1476  -50.4758 C.2       2 UNK         0.5000 
     61 O          -5.0086  -15.3700  -50.8019 O.2       2 UNK        -0.5000 
     62 CA         -2.8790  -14.5170  -51.5082 C.3       2 UNK         0.1400 
     63 CB         -3.4266  -13.1744  -52.0205 C.3       2 UNK        -0.1800 
     64 N          -1.5311  -14.2849  -50.9839 N.am      2 UNK        -0.5000 
     65 C          -0.5833  -15.2230  -50.8669 C.2       1 UNK         0.5000 
     66 O          -0.7261  -16.3751  -51.2683 O.2       1 UNK        -0.5000 
     67 C          -1.0698  -21.4926  -44.5624 C.2       11 UNK         0.5000 
     68 O          -2.2362  -21.2327  -44.8550 O.2       11 UNK        -0.5000 
     69 N          -0.6931  -21.9763  -43.3719 N.am      12 UNK        -0.5000 
     70 CA         -1.5994  -22.3252  -42.2783 C.3       12 UNK         0.1400 
     71 CB         -0.7674  -22.6937  -41.0412 C.3       12 UNK        -0.1800 
     72 C          -2.5907  -23.4559  -42.6269 C.2       12 UNK         0.5000 
     73 O          -3.6680  -23.5134  -42.0317 O.2       12 UNK        -0.5000 
     74 N          -2.2444  -24.3121  -43.6003 N.am      13 UNK        -0.5000 
     75 CA         -3.1082  -25.3609  -44.1416 C.3       13 UNK         0.1400 
     76 CB         -2.2410  -26.4821  -44.7411 C.3       13 UNK        -0.1800 
     77 C          -4.1128  -24.7736  -45.1540 C.2       13 UNK         0.5000 
     78 O          -4.0076  -25.0224  -46.3572 O.2       13 UNK        -0.5000 
     79 N          -5.0617  -23.9829  -44.6331 N.am      14 UNK        -0.5000 
     80 CA         -6.2016  -23.3768  -45.3291 C.3       14 UNK         0.1400 
     81 CB         -7.2255  -24.4663  -45.7114 C.3       14 UNK        -0.1800 
     82 C          -5.7859  -22.5055  -46.5313 C.2       14 UNK         0.5000 
     83 O          -6.2805  -22.7108  -47.6410 O.2       14 UNK        -0.5000 
     84 N          -4.8545  -21.5697  -46.2935 N.am      15 UNK        -0.5000 
     85 CA         -4.2662  -20.6608  -47.2851 C.3       15 UNK         0.1400 
     86 CB         -5.3260  -19.6836  -47.8395 C.3       15 UNK        -0.1800 
     87 C          -3.5056  -21.4200  -48.3890 C.2       15 UNK         0.5000 
     88 O          -3.6458  -21.0892  -49.5649 O.2       15 UNK        -0.5000 
     89 N          -2.7517  -22.4540  -47.9837 N.am      16 UNK        -0.5000 
     90 CA         -2.0287  -23.4044  -48.8377 C.3       16 UNK         0.1400 
     91 CB         -0.8289  -22.7204  -49.5264 C.3       16 UNK        -0.1800 
     92 C          -2.9693  -24.1269  -49.8231 C.2       16 UNK         0.5000 
     93 O          -2.7049  -24.1609  -51.0261 O.2       16 UNK        -0.5000 
     94 N          -4.0688  -24.6656  -49.2750 N.am      17 UNK        -0.5000 
     95 CA         -5.1936  -25.2888  -49.9775 C.3       17 UNK         0.1400 
     96 CB         -4.7641  -26.6196  -50.6297 C.3       17 UNK        -0.1800 
     97 C          -5.8790  -24.3151  -50.9612 C.2       17 UNK         0.5000 
     98 O          -6.0623  -24.6406  -52.1360 O.2       17 UNK        -0.5000 
     99 N          -6.2454  -23.1358  -50.4401 N.am      18 UNK        -0.5000 
    100 CA        -6.9354  -22.0334  -51.1129 C.3       18 UNK         0.1400 
    101 CB        -8.3821  -22.4369  -51.4668 C.3       18 UNK        -0.1800 
    102 C         -6.1558  -21.4559  -52.3129 C.2       18 UNK         0.5000 
    103 O         -6.7165  -21.2952  -53.4002 O.2       18 UNK        -0.5000 
    104 N         -4.8785  -21.1174  -52.0936 N.am      19 UNK        -0.5000 
    105 CA        -4.0227  -20.4075  -53.0447 C.3       19 UNK         0.1400 
    106 CB        -2.5465  -20.6643  -52.6906 C.3       19 UNK        -0.1800 
    107 C         -4.3787  -18.9063  -53.0592 C.2       19 UNK         0.5000 
    108 O         -3.6361  -18.0820  -52.5268 O.2       19 UNK        -0.5000 
    109 N         -5.5408  -18.5895  -53.6471 N.am      20 UNK        -0.5000 
    110 CA        -6.1608  -17.2599  -53.6895 C.3       20 UNK         0.1400 
    111 CB        -7.5608  -17.3930  -54.3085 C.3       20 UNK        -0.1800 
    112 C         -5.3435  -16.1801  -54.4290 C.2       20 UNK         0.5000 
    113 O         -5.5876  -14.9908  -54.2249 O.2       20 UNK        -0.5000 
    114 N         -4.3914  -16.6035  -55.2645 N.am      21 UNK        -0.5000 
    115 CA        -3.3753  -15.7653  -55.8808 C.3       21 UNK         0.1400 
    116 CB        -3.8212  -15.3433  -57.2903 C.3       21 UNK        -0.1800 
    117 C         -2.0833  -16.5885  -55.9142 C.2       21 UNK         0.5000 
    118 O         -2.0997  -17.7163  -56.4134 O.2       21 UNK        -0.5000 
    119 N         -1.0019  -16.0280  -55.3674 N.am      22 UNK        -0.5000 
    120 CA         0.3215  -16.6632  -55.2747 C.3       22 UNK         0.1400 
    121 C          1.4704  -15.6209  -55.1144 C.2       22 UNK         0.5000 
    122 N          1.2771  -14.3625  -55.4951 N.am      22 UNK        -0.7600 
    123 O          2.5573  -15.9410  -54.6435 O.2       22 UNK        -0.5000 
    124 C124        0.3509  -17.8030  -54.2150 C.3       23 UNK        -0.0398 
    125 S125        1.5174  -19.1401  -54.6477 S.3       23 UNK        -0.2404 
    126 C126        1.5850  -20.1021  -53.0955 C.3       23 UNK        -0.0205 
    127 H127        0.7203  -11.4399  -48.0166 H         1 UNK         0.0600 
    128 H128        0.3956  -12.2795  -46.4980 H         1 UNK         0.0600 
    129 H129       -0.9435  -11.6427  -47.4600 H         1 UNK         0.0600 
    130 H130        1.2302  -12.8351  -49.6681 H         1 UNK         0.3000 
    131 H131        0.9498  -15.6373  -49.4783 H         1 UNK         0.0600 
    132 H132        1.8544  -15.5499  -51.9195 H         1 UNK         0.0800 
    133 H133        1.8215  -13.8200  -51.7860 H         1 UNK         0.0800 
    134 H134        5.1005  -16.5931  -50.2629 H         1 UNK         0.0800 
    135 H135        4.5942  -16.2679  -51.9039 H         1 UNK         0.0800 
    136 H136        3.4582  -18.0967  -52.8382 H         1 UNK         0.1150 
    137 H137        0.5050  -20.2649  -50.6134 H         1 UNK         0.1150 
    138 H138        2.7990  -17.1941  -48.7055 H         1 UNK         0.1150 
    139 H139        0.4005  -18.0129  -47.8997 H         1 UNK         0.0800 
    140 H140       -0.0587  -19.6221  -48.4019 H         1 UNK         0.0800 
    141 H141       -0.1524  -19.1507  -45.7104 H         1 UNK         0.0800 
    142 H142        1.1116  -19.7042  -44.6459 H         1 UNK         0.0800 
    143 H143       -0.4536  -21.4647  -46.5919 H         1 UNK         0.0600 
    144 H144        1.9708  -22.0529  -45.1941 H         1 UNK         0.3000 
    145 H145        1.7557  -25.6045  -45.5171 H         1 UNK         0.0600 
    146 H146        3.4233  -23.4881  -46.9866 H         1 UNK         0.0600 
    147 H147        3.8584  -25.1838  -46.7694 H         1 UNK         0.0600 
    148 H148        2.4682  -24.7513  -47.7525 H         1 UNK         0.0600 
    149 H149        3.7555  -23.7454  -44.5515 H         1 UNK         0.3000 
    150 H150        2.6856  -23.7322  -41.1695 H         1 UNK         0.0600 
    151 H151        3.9795  -25.8677  -41.3391 H         1 UNK         0.0600 
    152 H152        4.9804  -24.5547  -40.7415 H         1 UNK         0.0600 
    153 H153        5.1356  -25.0917  -42.4148 H         1 UNK         0.0600 
    154 H154        4.9852  -22.5891  -42.3003 H         1 UNK         0.3000 
    155 H155        4.9785  -20.1987  -42.2362 H         1 UNK         0.0600 
    156 H156        5.4357  -21.1586  -44.4711 H         1 UNK         0.0600 
    157 H157        5.3202  -19.4123  -44.6078 H         1 UNK         0.0600 
    158 H158        3.9802  -20.4299  -45.1301 H         1 UNK         0.0600 
    159 H159        2.9854  -18.6345  -43.6885 H         1 UNK         0.3000 
    160 H160        0.9574  -17.8447  -41.4801 H         1 UNK         0.0600 
    161 H161        1.3990  -15.5255  -40.6544 H         1 UNK         0.0600 
    162 H162        3.1343  -15.8220  -40.7512 H         1 UNK         0.0600 
    163 H163        2.1410  -16.7421  -39.6302 H         1 UNK         0.0600 
    164 H164        0.7507  -16.7753  -43.3567 H         1 UNK         0.3000 
    165 H165        2.5203  -14.2236  -44.9410 H         1 UNK         0.0600 
    166 H166        1.7986  -16.8593  -46.3067 H         1 UNK         0.0600 
    167 H167        2.0676  -15.3106  -47.1016 H         1 UNK         0.0600 
    168 H168        3.4041  -16.1399  -46.3205 H         1 UNK         0.0600 
    169 H169       -0.0051  -15.4380  -45.5239 H         1 UNK         0.3000 
    170 H170       -1.8350  -14.2864  -42.7924 H         1 UNK         0.0600 
    171 H171       -2.0107  -12.9279  -45.5314 H         1 UNK         0.0600 
    172 H172       -3.2399  -12.9138  -44.2688 H         1 UNK         0.0600 
    173 H173       -1.7154  -12.0804  -44.0176 H         1 UNK         0.0600 
    174 H174       -2.9150  -15.1838  -45.1710 H         1 UNK         0.3000 
    175 H175       -2.2994  -18.4862  -45.3889 H         1 UNK         0.0600 
    176 H176       -4.5415  -17.6657  -43.4709 H         1 UNK         0.0600 
    177 H177       -4.5206  -19.1257  -44.4610 H         1 UNK         0.0600 
    178 H178       -3.3361  -18.9167  -43.1843 H         1 UNK         0.0600 
    179 H179       -4.6556  -16.8002  -45.7791 H         1 UNK         0.3000 
    180 H180       -4.9179  -16.5992  -48.5238 H         1 UNK         0.0600 
    181 H181       -4.0839  -14.1036  -46.9277 H         1 UNK         0.0600 
    182 H182       -5.4835  -15.1234  -46.5926 H         1 UNK         0.0600 
    183 H183       -5.4336  -14.1654  -48.0547 H         1 UNK         0.0600 
    184 H184       -2.3912  -15.2315  -49.0387 H         1 UNK         0.3000 
    185 H185       -2.8204  -15.2061  -52.3539 H         1 UNK         0.0600 
    186 H186       -2.7871  -12.7587  -52.7993 H         1 UNK         0.0600 
    187 H187       -4.4215  -13.2921  -52.4509 H         1 UNK         0.0600 
    188 H188       -3.5032  -12.4398  -51.2182 H         1 UNK         0.0600 
    189 H189       -1.3421  -13.3664  -50.6098 H         1 UNK         0.3000 
    190 H190        0.3009  -22.0904  -43.1940 H         1 UNK         0.3000 
    191 H191       -2.1886  -21.4365  -42.0428 H         1 UNK         0.0600 
    192 H192       -0.1506  -23.5746  -41.2207 H         1 UNK         0.0600 
    193 H193       -0.1065  -21.8761  -40.7520 H         1 UNK         0.0600 
    194 H194       -1.4105  -22.9109  -40.1874 H         1 UNK         0.0600 
    195 H195       -1.3626  -24.1740  -44.0762 H         1 UNK         0.3000 
    196 H196       -3.6838  -25.8018  -43.3249 H         1 UNK         0.0600 
    197 H197       -1.5283  -26.8646  -44.0102 H         1 UNK         0.0600 
    198 H198       -1.6797  -26.1470  -45.6122 H         1 UNK         0.0600 
    199 H199       -2.8616  -27.3199  -45.0607 H         1 UNK         0.0600 
    200 H200       -5.0005  -23.7927  -43.6384 H         1 UNK         0.3000 
    201 H201       -6.6829  -22.7061  -44.6159 H         1 UNK         0.0600 
    202 H202       -8.1229  -24.0249  -46.1466 H         1 UNK         0.0600 
    203 H203       -7.5376  -25.0379  -44.8374 H         1 UNK         0.0600 
    204 H204       -6.8184  -25.1667  -46.4417 H         1 UNK         0.0600 
    205 H205       -4.4363  -21.5246  -45.3724 H         1 UNK         0.3000 
    206 H206       -3.5181  -20.0613  -46.7684 H         1 UNK         0.0600 
    207 H207       -6.1260  -20.1997  -48.3684 H         1 UNK         0.0600 
    208 H208       -4.8784  -18.9834  -48.5445 H         1 UNK         0.0600 
    209 H209       -5.7779  -19.0989  -47.0386 H         1 UNK         0.0600 
    210 H210       -2.7489  -22.6716  -46.9966 H         1 UNK         0.3000 
    211 H211       -1.6388  -24.1832  -48.1838 H         1 UNK         0.0600 
    212 H212       -0.1552  -22.2702  -48.7983 H         1 UNK         0.0600 
    213 H213       -0.2458  -23.4416  -50.0998 H         1 UNK         0.0600 
    214 H214       -1.1516  -21.9405  -50.2156 H         1 UNK         0.0600 
    215 H215       -4.1657  -24.6092  -48.2641 H         1 UNK         0.3000 
    216 H216       -5.9355  -25.5235  -49.2125 H         1 UNK         0.0600 
    217 H217       -5.6232  -27.1384  -51.0563 H         1 UNK         0.0600 
    218 H218       -4.0437  -26.4663  -51.4336 H         1 UNK         0.0600 
    219 H219       -4.3122  -27.2886  -49.8973 H         1 UNK         0.0600 
    220 H220       -6.0698  -22.9837  -49.4481 H         1 UNK         0.3000 
    221 H221       -6.9963  -21.2276  -50.3810 H         1 UNK         0.0600 
    222 H222       -8.4116  -23.2243  -52.2205 H         1 UNK         0.0600 
    223 H223       -8.9171  -22.7942  -50.5868 H         1 UNK         0.0600 
    224 H224       -8.9394  -21.5863  -51.8608 H         1 UNK         0.0600 
    225 H225       -4.4859  -21.2391  -51.1605 H         1 UNK         0.3000 
    226 H226       -4.1948  -20.8071  -54.0463 H         1 UNK         0.0600 
    227 H227       -1.8875  -20.2163  -53.4341 H         1 UNK         0.0600 
    228 H228       -2.2805  -20.2426  -51.7206 H         1 UNK         0.0600 
    229 H229       -2.3272  -21.7318  -52.6609 H         1 UNK         0.0600 
    230 H230       -6.1018  -19.3564  -54.0009 H         1 UNK         0.3000 
    231 H231       -6.2759  -16.9224  -52.6580 H         1 UNK         0.0600 
    232 H232       -8.0763  -16.4317  -54.3228 H         1 UNK         0.0600 
    233 H233       -8.1813  -18.0841  -53.7375 H         1 UNK         0.0600 
    234 H234       -7.5117  -17.7550  -55.3362 H         1 UNK         0.0600 
    235 H235       -4.2403  -17.5982  -55.3654 H         1 UNK         0.3000 
    236 H236       -3.2118  -14.8707  -55.2753 H         1 UNK         0.0600 
    237 H237       -4.7386  -14.7557  -57.2527 H         1 UNK         0.0600 
    238 H238       -3.0595  -14.7293  -57.7723 H         1 UNK         0.0600 
    239 H239       -4.0033  -16.2071  -57.9310 H         1 UNK         0.0600 
    240 H240       -1.0706  -15.1126  -54.9469 H         1 UNK         0.3000 
    241 H241        0.5071  -17.1122  -56.2524 H         1 UNK         0.0600 
    242 H242        2.0333  -13.7042  -55.3890 H         1 UNK         0.3800 
    243 H243        0.4360  -14.0735  -55.9675 H         1 UNK         0.3800 
    244 H244        0.5911  -17.3976  -53.2333 H         1 UNK         0.0800 
    245 H245       -0.6314  -18.2628  -54.1066 H         1 UNK         0.0800 
    246 H246        2.3147  -20.9040  -53.2127 H         1 UNK         0.0800 
    247 H247        0.6169  -20.5850  -52.9539 H         1 UNK         0.0800 
@<TRIPOS>BOND
     1    1    2 1    
     2    1  127 1    
     3    1  128 1    
     4    1  129 1    
     5    2    3 2    
     6    2    4 am   BACKBONE|DICT|INTERRES
     7    4    5 1    
     8    4  130 1    
     9    5    6 1    
    10    5   65 1    
    11    5  131 1    
    12    6    7 1    
    13    6  132 1    
    14    6  133 1    
    15    7    8 1    
    16    8    9 1    
    17    8  134 1    
    18    8  135 1    
    19    9   10 ar   
    20    9   14 ar   
    21   10   11 ar   
    22   10  136 1    
    23   11   12 ar   
    24   11  126 1    
    25   12   13 ar   
    26   12  137 1    
    27   13   14 ar   
    28   13   15 1    
    29   14  138 1    
    30   15   16 1    
    31   15  139 1    
    32   15  140 1    
    33   16   17 1    
    34   17   18 1    
    35   17  141 1    
    36   17  142 1    
    37   18   19 1    
    38   18   67 1    
    39   18  143 1    
    40   19   20 am   BACKBONE|DICT|INTERRES
    41   19  144 1    
    42   20   21 2    
    43   20   22 1    
    44   22   23 1    
    45   22   24 1    
    46   22  145 1    
    47   23  146 1    
    48   23  147 1    
    49   23  148 1    
    50   24   25 am   BACKBONE|DICT|INTERRES
    51   24  149 1    
    52   25   26 2    
    53   25   27 1    
    54   27   28 1    
    55   27   29 1    
    56   27  150 1    
    57   28  151 1    
    58   28  152 1    
    59   28  153 1    
    60   29   30 am   BACKBONE|DICT|INTERRES
    61   29  154 1    
    62   30   31 2    
    63   30   32 1    
    64   32   33 1    
    65   32   34 1    
    66   32  155 1    
    67   33  156 1    
    68   33  157 1    
    69   33  158 1    
    70   34   35 am   BACKBONE|DICT|INTERRES
    71   34  159 1    
    72   35   36 2    
    73   35   37 1    
    74   37   38 1    
    75   37   39 1    
    76   37  160 1    
    77   38  161 1    
    78   38  162 1    
    79   38  163 1    
    80   39   40 am   BACKBONE|DICT|INTERRES
    81   39  164 1    
    82   40   41 2    
    83   40   42 1    
    84   42   43 1    
    85   42   44 1    
    86   42  165 1    
    87   43  166 1    
    88   43  167 1    
    89   43  168 1    
    90   44   45 am   BACKBONE|DICT|INTERRES
    91   44  169 1    
    92   45   46 2    
    93   45   47 1    
    94   47   48 1    
    95   47   49 1    
    96   47  170 1    
    97   48  171 1    
    98   48  172 1    
    99   48  173 1    
   100   49   50 am   BACKBONE|DICT|INTERRES
   101   49  174 1    
   102   50   51 2    
   103   50   52 1    
   104   52   53 1    
   105   52   54 1    
   106   52  175 1    
   107   53  176 1    
   108   53  177 1    
   109   53  178 1    
   110   54   55 am   BACKBONE|DICT|INTERRES
   111   54  179 1    
   112   55   56 2    
   113   55   57 1    
   114   57   58 1    
   115   57   59 1    
   116   57  180 1    
   117   58  181 1    
   118   58  182 1    
   119   58  183 1    
   120   59   60 am   BACKBONE|DICT|INTERRES
   121   59  184 1    
   122   60   61 2    
   123   60   62 1    
   124   62   63 1    
   125   62   64 1    
   126   62  185 1    
   127   63  186 1    
   128   63  187 1    
   129   63  188 1    
   130   64   65 am   BACKBONE|DICT|INTERRES
   131   64  189 1    
   132   65   66 2    
   133   67   68 2    
   134   67   69 am   BACKBONE|DICT|INTERRES
   135   69   70 1    
   136   69  190 1    
   137   70   71 1    
   138   70   72 1    
   139   70  191 1    
   140   71  192 1    
   141   71  193 1    
   142   71  194 1    
   143   72   73 2    
   144   72   74 am   BACKBONE|DICT|INTERRES
   145   74   75 1    
   146   74  195 1    
   147   75   76 1    
   148   75   77 1    
   149   75  196 1    
   150   76  197 1    
   151   76  198 1    
   152   76  199 1    
   153   77   78 2    
   154   77   79 am   BACKBONE|DICT|INTERRES
   155   79   80 1    
   156   79  200 1    
   157   80   81 1    
   158   80   82 1    
   159   80  201 1    
   160   81  202 1    
   161   81  203 1    
   162   81  204 1    
   163   82   83 2    
   164   82   84 am   BACKBONE|DICT|INTERRES
   165   84   85 1    
   166   84  205 1    
   167   85   86 1    
   168   85   87 1    
   169   85  206 1    
   170   86  207 1    
   171   86  208 1    
   172   86  209 1    
   173   87   88 2    
   174   87   89 am   BACKBONE|DICT|INTERRES
   175   89   90 1    
   176   89  210 1    
   177   90   91 1    
   178   90   92 1    
   179   90  211 1    
   180   91  212 1    
   181   91  213 1    
   182   91  214 1    
   183   92   93 2    
   184   92   94 am   BACKBONE|DICT|INTERRES
   185   94   95 1    
   186   94  215 1    
   187   95   96 1    
   188   95   97 1    
   189   95  216 1    
   190   96  217 1    
   191   96  218 1    
   192   96  219 1    
   193   97   98 2    
   194   97   99 am   BACKBONE|DICT|INTERRES
   195   99  100 1    
   196   99  220 1    
   197  100  101 1    
   198  100  102 1    
   199  100  221 1    
   200  101  222 1    
   201  101  223 1    
   202  101  224 1    
   203  102  103 2    
   204  102  104 am   BACKBONE|DICT|INTERRES
   205  104  105 1    
   206  104  225 1    
   207  105  106 1    
   208  105  107 1    
   209  105  226 1    
   210  106  227 1    
   211  106  228 1    
   212  106  229 1    
   213  107  108 2    
   214  107  109 am   BACKBONE|DICT|INTERRES
   215  109  110 1    
   216  109  230 1    
   217  110  111 1    
   218  110  112 1    
   219  110  231 1    
   220  111  232 1    
   221  111  233 1    
   222  111  234 1    
   223  112  113 2    
   224  112  114 am   BACKBONE|DICT|INTERRES
   225  114  115 1    
   226  114  235 1    
   227  115  116 1    
   228  115  117 1    
   229  115  236 1    
   230  116  237 1    
   231  116  238 1    
   232  116  239 1    
   233  117  118 2    
   234  117  119 am   BACKBONE|DICT|INTERRES
   235  119  120 1    
   236  119  240 1    
   237  120  121 1    
   238  120  124 1    
   239  120  241 1    
   240  121  122 am   BACKBONE|DICT|INTERRES
   241  121  123 2    
   242  122  242 1    
   243  122  243 1    
   244  124  125 1    
   245  124  244 1    
   246  124  245 1    
   247  125  126 1    
   248  126  246 1    
   249  126  247 1    
@<TRIPOS>SUBSTRUCTURE
     1 UNK         1 GROUP             0       ****    0 ROOT    
