@<TRIPOS>MOLECULE
3R540
247   249    1
SMALL
USER_CHARGES


@<TRIPOS>ATOM
      1 CA         -5.2409  -15.1641  -50.3521 C.3       0 UNK        -0.1800 
      2 C          -3.8564  -15.2765  -49.7306 C.2       0 UNK         0.5000 
      3 O          -3.3148  -16.3749  -49.6517 O.2       0 UNK        -0.5000 
      4 N          -3.3150  -14.1412  -49.2672 N.am      1 UNK        -0.5000 
      5 CA         -1.9921  -13.9217  -48.6553 C.3       1 UNK         0.1400 
      6 C6         -0.7925  -14.1003  -49.6340 C.3       23 UNK        -0.0398 
      7 S7         -0.1358  -15.7937  -49.8584 S.3       23 UNK        -0.2404 
      8 C8          1.6427  -15.4522  -50.0385 C.3       23 UNK        -0.0205 
      9 C9          2.4024  -16.7113  -50.4244 C.ar      23 UNK        -0.0193 
     10 C10         2.5583  -17.0531  -51.7696 C.ar      23 UNK        -0.1150 
     11 C11         3.2083  -18.2366  -52.1296 C.ar      23 UNK        -0.0193 
     12 C12         3.7336  -19.0647  -51.1319 C.ar      23 UNK        -0.1150 
     13 C13         3.5910  -18.7314  -49.7814 C.ar      23 UNK        -0.0193 
     14 C14         2.9339  -17.5454  -49.4381 C.ar      23 UNK        -0.1150 
     15 C15         4.1428  -19.6482  -48.6933 C.3       23 UNK        -0.0205 
     16 S16         3.3894  -21.3133  -48.6930 S.3       23 UNK        -0.2404 
     17 C17         1.6074  -20.9334  -48.7164 C.3       23 UNK        -0.0398 
     18 CA          0.7307  -22.0711  -48.1329 C.3       11 UNK         0.1400 
     19 N           0.8069  -22.1537  -46.6670 N.am      11 UNK        -0.5000 
     20 C           0.1643  -23.0626  -45.9167 C.2       10 UNK         0.5000 
     21 O          -0.5158  -23.9776  -46.3841 O.2       10 UNK        -0.5000 
     22 CA          0.2407  -22.8912  -44.3869 C.3       10 UNK         0.1400 
     23 CB          1.5847  -23.3833  -43.8305 C.3       10 UNK        -0.1800 
     24 N          -0.0080  -21.5124  -43.9651 N.am      10 UNK        -0.5000 
     25 C          -1.1867  -20.8863  -44.0998 C.2       9 UNK         0.5000 
     26 O          -2.2017  -21.4310  -44.5313 O.2       9 UNK        -0.5000 
     27 CA         -1.2334  -19.3880  -43.7469 C.3       9 UNK         0.1400 
     28 CB         -1.4453  -19.1855  -42.2397 C.3       9 UNK        -0.1800 
     29 N          -0.0347  -18.6745  -44.1873 N.am      9 UNK        -0.5000 
     30 C           0.3544  -18.5710  -45.4655 C.2       8 UNK         0.5000 
     31 O          -0.3059  -18.9872  -46.4142 O.2       8 UNK        -0.5000 
     32 CA          1.7426  -17.9724  -45.7296 C.3       8 UNK         0.1400 
     33 CB          1.6914  -16.4441  -45.8385 C.3       8 UNK        -0.1800 
     34 N           2.7189  -18.3802  -44.7221 N.am      8 UNK        -0.5000 
     35 C           3.2052  -19.6254  -44.6202 C.2       7 UNK         0.5000 
     36 O           2.9024  -20.5364  -45.3884 O.2       7 UNK        -0.5000 
     37 CA          4.1495  -19.9089  -43.4383 C.3       7 UNK         0.1400 
     38 CB          5.5899  -19.5103  -43.7917 C.3       7 UNK        -0.1800 
     39 N           3.7356  -19.2099  -42.2214 N.am      7 UNK        -0.5000 
     40 C           2.6091  -19.4744  -41.5435 C.2       6 UNK         0.5000 
     41 O           1.8488  -20.4008  -41.8241 O.2       6 UNK        -0.5000 
     42 CA          2.2459  -18.5015  -40.4027 C.3       6 UNK         0.1400 
     43 CB          2.8693  -18.9647  -39.0779 C.3       6 UNK        -0.1800 
     44 N           2.6581  -17.1199  -40.6802 N.am      6 UNK        -0.5000 
     45 C           2.1787  -16.3813  -41.6898 C.2       5 UNK         0.5000 
     46 O           1.2953  -16.7709  -42.4556 O.2       5 UNK        -0.5000 
     47 CA          2.8570  -15.0284  -41.9398 C.3       5 UNK         0.1400 
     48 CB          4.2497  -15.2560  -42.5677 C.3       5 UNK        -0.1800 
     49 N           2.0171  -14.2346  -42.8350 N.am      5 UNK        -0.5000 
     50 C           2.2146  -12.9533  -43.1675 C.2       4 UNK         0.5000 
     51 O           3.1252  -12.2610  -42.7101 O.2       4 UNK        -0.5000 
     52 CA          1.2372  -12.3276  -44.1812 C.3       4 UNK         0.1400 
     53 CB          1.7505  -12.5229  -45.6161 C.3       4 UNK        -0.1800 
     54 N          -0.1379  -12.8247  -44.0813 N.am      4 UNK        -0.5000 
     55 C          -0.9543  -12.5665  -43.0472 C.2       3 UNK         0.5000 
     56 O          -0.5939  -11.9571  -42.0390 O.2       3 UNK        -0.5000 
     57 CA         -2.4277  -13.0134  -43.1503 C.3       3 UNK         0.1400 
     58 CB         -3.3475  -11.7927  -43.3155 C.3       3 UNK        -0.1800 
     59 N          -2.6953  -13.9423  -44.2471 N.am      3 UNK        -0.5000 
     60 C          -2.3860  -15.2441  -44.2367 C.2       2 UNK         0.5000 
     61 O          -1.8417  -15.8047  -43.2880 O.2       2 UNK        -0.5000 
     62 CA         -2.7496  -16.0562  -45.4955 C.3       2 UNK         0.1400 
     63 CB         -4.1151  -16.7327  -45.2965 C.3       2 UNK        -0.1800 
     64 N          -2.7834  -15.2901  -46.7465 N.am      2 UNK        -0.5000 
     65 C          -1.7796  -14.5674  -47.2648 C.2       1 UNK         0.5000 
     66 O          -0.7321  -14.3433  -46.6587 O.2       1 UNK        -0.5000 
     67 C          -0.7225  -21.9200  -48.6305 C.2       11 UNK         0.5000 
     68 O          -1.1090  -22.5992  -49.5811 O.2       11 UNK        -0.5000 
     69 N          -1.4897  -21.0432  -47.9746 N.am      12 UNK        -0.5000 
     70 CA         -2.8757  -20.7485  -48.3022 C.3       12 UNK         0.1400 
     71 CB         -3.2675  -19.4096  -47.6575 C.3       12 UNK        -0.1800 
     72 C          -3.8357  -21.8775  -47.8966 C.2       12 UNK         0.5000 
     73 O          -4.4567  -22.4889  -48.7674 O.2       12 UNK        -0.5000 
     74 N          -3.9889  -22.0948  -46.5855 N.am      13 UNK        -0.5000 
     75 CA         -5.0826  -22.8752  -46.0145 C.3       13 UNK         0.1400 
     76 CB         -5.4818  -22.2723  -44.6585 C.3       13 UNK        -0.1800 
     77 C          -4.7476  -24.3636  -45.8628 C.2       13 UNK         0.5000 
     78 O          -5.6004  -25.1961  -46.1710 O.2       13 UNK        -0.5000 
     79 N          -3.5343  -24.6855  -45.3896 N.am      14 UNK        -0.5000 
     80 CA         -3.1310  -26.0692  -45.1100 C.3       14 UNK         0.1400 
     81 CB         -1.9205  -26.1067  -44.1641 C.3       14 UNK        -0.1800 
     82 C          -2.8672  -26.8677  -46.3977 C.2       14 UNK         0.5000 
     83 O          -3.2991  -28.0167  -46.4981 O.2       14 UNK        -0.5000 
     84 N          -2.2082  -26.2305  -47.3751 N.am      15 UNK        -0.5000 
     85 CA         -2.0215  -26.7725  -48.7242 C.3       15 UNK         0.1400 
     86 CB         -0.7762  -26.1378  -49.3575 C.3       15 UNK        -0.1800 
     87 C          -3.2639  -26.5893  -49.6244 C.2       15 UNK         0.5000 
     88 O          -3.3318  -27.2205  -50.6796 O.2       15 UNK        -0.5000 
     89 N          -4.2220  -25.7569  -49.1846 N.am      16 UNK        -0.5000 
     90 CA         -5.5234  -25.4709  -49.8000 C.3       16 UNK         0.1400 
     91 CB         -6.4318  -26.7165  -49.7414 C.3       16 UNK        -0.1800 
     92 C          -5.3986  -24.8738  -51.2175 C.2       16 UNK         0.5000 
     93 O          -6.0195  -25.3684  -52.1609 O.2       16 UNK        -0.5000 
     94 N          -4.5805  -23.8224  -51.3341 N.am      17 UNK        -0.5000 
     95 CA         -4.2476  -23.1417  -52.5872 C.3       17 UNK         0.1400 
     96 CB         -2.7666  -23.4065  -52.9025 C.3       17 UNK        -0.1800 
     97 C          -4.5593  -21.6324  -52.5474 C.2       17 UNK         0.5000 
     98 O          -4.2430  -20.9348  -53.5130 O.2       17 UNK        -0.5000 
     99 N          -5.1876  -21.1558  -51.4585 N.am      18 UNK        -0.5000 
    100 CA        -5.4611  -19.7473  -51.1347 C.3       18 UNK         0.1400 
    101 CB        -6.3894  -19.6881  -49.9107 C.3       18 UNK        -0.1800 
    102 C         -6.0707  -18.9049  -52.2716 C.2       18 UNK         0.5000 
    103 O         -5.7243  -17.7325  -52.4104 O.2       18 UNK        -0.5000 
    104 N         -6.9361  -19.5227  -53.0874 N.am      19 UNK        -0.5000 
    105 CA        -7.5895  -18.9135  -54.2493 C.3       19 UNK         0.1400 
    106 CB        -8.5900  -19.9198  -54.8380 C.3       19 UNK        -0.1800 
    107 C         -6.6180  -18.4186  -55.3425 C.2       19 UNK         0.5000 
    108 O         -6.9767  -17.5158  -56.0996 O.2       19 UNK        -0.5000 
    109 N         -5.4103  -18.9964  -55.3998 N.am      20 UNK        -0.5000 
    110 CA        -4.3391  -18.6004  -56.3144 C.3       20 UNK         0.1400 
    111 CB        -3.5139  -19.8500  -56.6673 C.3       20 UNK        -0.1800 
    112 C         -3.4265  -17.5004  -55.7324 C.2       20 UNK         0.5000 
    113 O         -2.5095  -17.0667  -56.4310 O.2       20 UNK        -0.5000 
    114 N         -3.6572  -17.0937  -54.4716 N.am      21 UNK        -0.5000 
    115 CA        -2.8043  -16.2166  -53.6564 C.3       21 UNK         0.1400 
    116 CB        -2.7906  -14.7753  -54.2049 C.3       21 UNK        -0.1800 
    117 C         -1.3955  -16.8142  -53.4511 C.2       21 UNK         0.5000 
    118 O         -0.3867  -16.1146  -53.5530 O.2       21 UNK        -0.5000 
    119 N         -1.3780  -18.1229  -53.1932 N.am      22 UNK        -0.5000 
    120 CA        -0.2196  -18.9740  -52.9267 C.3       22 UNK         0.1400 
    121 C         -0.7038  -20.2286  -52.1462 C.2       22 UNK         0.5000 
    122 N          0.0728  -21.2967  -52.0630 N.am      22 UNK        -0.7600 
    123 O         -1.7887  -20.2325  -51.5737 O.2       22 UNK        -0.5000 
    124 C124        0.6030  -19.2425  -54.2225 C.3       23 UNK        -0.0398 
    125 S125        2.2362  -20.0371  -53.9953 S.3       23 UNK        -0.2404 
    126 C126        3.3263  -18.6343  -53.5927 C.3       23 UNK        -0.0205 
    127 H127       -5.1690  -15.2001  -51.4388 H         1 UNK         0.0600 
    128 H128       -5.7359  -14.2336  -50.0734 H         1 UNK         0.0600 
    129 H129       -5.8701  -15.9923  -50.0254 H         1 UNK         0.0600 
    130 H130       -3.8636  -13.2970  -49.3571 H         1 UNK         0.3000 
    131 H131       -2.0140  -12.8548  -48.4277 H         1 UNK         0.0600 
    132 H132        0.0275  -13.4705  -49.2852 H         1 UNK         0.0800 
    133 H133       -1.0554  -13.7087  -50.6174 H         1 UNK         0.0800 
    134 H134        2.0315  -15.0458  -49.1033 H         1 UNK         0.0800 
    135 H135        1.7897  -14.6838  -50.7992 H         1 UNK         0.0800 
    136 H136        2.1382  -16.4150  -52.5348 H         1 UNK         0.1150 
    137 H137        4.2333  -19.9833  -51.4061 H         1 UNK         0.1150 
    138 H138        2.8266  -17.2642  -48.4031 H         1 UNK         0.1150 
    139 H139        5.2192  -19.7532  -48.8344 H         1 UNK         0.0800 
    140 H140        4.0119  -19.2040  -47.7066 H         1 UNK         0.0800 
    141 H141        1.3535  -20.7345  -49.7580 H         1 UNK         0.0800 
    142 H142        1.4231  -20.0006  -48.1855 H         1 UNK         0.0800 
    143 H143        1.0961  -23.0220  -48.5264 H         1 UNK         0.0600 
    144 H144        1.3971  -21.4670  -46.2059 H         1 UNK         0.3000 
    145 H145       -0.5431  -23.5085  -43.9454 H         1 UNK         0.0600 
    146 H146        1.6157  -23.2982  -42.7441 H         1 UNK         0.0600 
    147 H147        2.4255  -22.8200  -44.2330 H         1 UNK         0.0600 
    148 H148        1.7457  -24.4327  -44.0802 H         1 UNK         0.0600 
    149 H149        0.7680  -21.0085  -43.5518 H         1 UNK         0.3000 
    150 H150       -2.0862  -18.9509  -44.2686 H         1 UNK         0.0600 
    151 H151       -2.3929  -19.6212  -41.9210 H         1 UNK         0.0600 
    152 H152       -1.4697  -18.1273  -41.9804 H         1 UNK         0.0600 
    153 H153       -0.6578  -19.6542  -41.6515 H         1 UNK         0.0600 
    154 H154        0.5251  -18.2227  -43.4701 H         1 UNK         0.3000 
    155 H155        2.0802  -18.3652  -46.6859 H         1 UNK         0.0600 
    156 H156        1.1359  -16.1514  -46.7294 H         1 UNK         0.0600 
    157 H157        2.6889  -16.0136  -45.9242 H         1 UNK         0.0600 
    158 H158        1.1947  -15.9884  -44.9827 H         1 UNK         0.0600 
    159 H159        2.9577  -17.7006  -44.0171 H         1 UNK         0.3000 
    160 H160        4.1276  -20.9831  -43.2420 H         1 UNK         0.0600 
    161 H161        5.6798  -18.4391  -43.9766 H         1 UNK         0.0600 
    162 H162        5.9276  -20.0282  -44.6905 H         1 UNK         0.0600 
    163 H163        6.2794  -19.7719  -42.9888 H         1 UNK         0.0600 
    164 H164        4.3146  -18.4430  -41.9142 H         1 UNK         0.3000 
    165 H165        1.1596  -18.5129  -40.2921 H         1 UNK         0.0600 
    166 H166        2.5552  -18.3282  -38.2505 H         1 UNK         0.0600 
    167 H167        2.5616  -19.9833  -38.8375 H         1 UNK         0.0600 
    168 H168        3.9592  -18.9516  -39.1179 H         1 UNK         0.0600 
    169 H169        3.3847  -16.7387  -40.0911 H         1 UNK         0.3000 
    170 H170        2.9550  -14.5056  -40.9865 H         1 UNK         0.0600 
    171 H171        4.1755  -15.7267  -43.5487 H         1 UNK         0.0600 
    172 H172        4.7948  -14.3206  -42.6907 H         1 UNK         0.0600 
    173 H173        4.8705  -15.8972  -41.9410 H         1 UNK         0.0600 
    174 H174        1.2189  -14.7347  -43.2080 H         1 UNK         0.3000 
    175 H175        1.2128  -11.2536  -43.9840 H         1 UNK         0.0600 
    176 H176        1.7949  -13.5771  -45.8881 H         1 UNK         0.0600 
    177 H177        1.1077  -12.0191  -46.3381 H         1 UNK         0.0600 
    178 H178        2.7544  -12.1125  -45.7319 H         1 UNK         0.0600 
    179 H179       -0.4907  -13.3468  -44.8770 H         1 UNK         0.3000 
    180 H180       -2.6830  -13.5050  -42.2091 H         1 UNK         0.0600 
    181 H181       -4.3972  -12.0870  -43.3214 H         1 UNK         0.0600 
    182 H182       -3.1425  -11.2575  -44.2435 H         1 UNK         0.0600 
    183 H183       -3.2156  -11.0873  -42.4940 H         1 UNK         0.0600 
    184 H184       -3.1348  -13.5611  -45.0716 H         1 UNK         0.3000 
    185 H185       -1.9927  -16.8311  -45.6180 H         1 UNK         0.0600 
    186 H186       -4.9043  -15.9984  -45.1299 H         1 UNK         0.0600 
    187 H187       -4.3981  -17.3281  -46.1629 H         1 UNK         0.0600 
    188 H188       -4.0998  -17.3992  -44.4332 H         1 UNK         0.0600 
    189 H189       -3.5986  -15.4202  -47.3272 H         1 UNK         0.3000 
    190 H190       -1.0691  -20.4747  -47.2438 H         1 UNK         0.3000 
    191 H191       -2.9592  -20.6293  -49.3818 H         1 UNK         0.0600 
    192 H192       -4.3066  -19.1559  -47.8638 H         1 UNK         0.0600 
    193 H193       -2.6550  -18.5959  -48.0478 H         1 UNK         0.0600 
    194 H194       -3.1394  -19.4280  -46.5750 H         1 UNK         0.0600 
    195 H195       -3.3691  -21.6355  -45.9214 H         1 UNK         0.3000 
    196 H196       -5.9526  -22.7988  -46.6711 H         1 UNK         0.0600 
    197 H197       -5.7650  -21.2246  -44.7614 H         1 UNK         0.0600 
    198 H198       -4.6697  -22.3295  -43.9330 H         1 UNK         0.0600 
    199 H199       -6.3368  -22.8000  -44.2341 H         1 UNK         0.0600 
    200 H200       -2.8657  -23.9516  -45.1992 H         1 UNK         0.3000 
    201 H201       -3.9583  -26.5551  -44.5875 H         1 UNK         0.0600 
    202 H202       -2.0824  -25.4835  -43.2846 H         1 UNK         0.0600 
    203 H203       -1.0046  -25.7783  -44.6517 H         1 UNK         0.0600 
    204 H204       -1.7440  -27.1237  -43.8121 H         1 UNK         0.0600 
    205 H205       -1.8179  -25.3119  -47.1843 H         1 UNK         0.3000 
    206 H206       -1.8373  -27.8462  -48.6469 H         1 UNK         0.0600 
    207 H207       -0.9069  -25.0690  -49.5036 H         1 UNK         0.0600 
    208 H208        0.1057  -26.2861  -48.7341 H         1 UNK         0.0600 
    209 H209       -0.5658  -26.5773  -50.3332 H         1 UNK         0.0600 
    210 H210       -4.0492  -25.2829  -48.3103 H         1 UNK         0.3000 
    211 H211       -5.9916  -24.7021  -49.1838 H         1 UNK         0.0600 
    212 H212       -6.0465  -27.5308  -50.3556 H         1 UNK         0.0600 
    213 H213       -7.4362  -26.4843  -50.0973 H         1 UNK         0.0600 
    214 H214       -6.5273  -27.0834  -48.7192 H         1 UNK         0.0600 
    215 H215       -4.1474  -23.4559  -50.4910 H         1 UNK         0.3000 
    216 H216       -4.8414  -23.5441  -53.4099 H         1 UNK         0.0600 
    217 H217       -2.4511  -22.8934  -53.8118 H         1 UNK         0.0600 
    218 H218       -2.5809  -24.4708  -53.0473 H         1 UNK         0.0600 
    219 H219       -2.1254  -23.0656  -52.0907 H         1 UNK         0.0600 
    220 H220       -5.3816  -21.8164  -50.7178 H         1 UNK         0.3000 
    221 H221       -4.5055  -19.2915  -50.8676 H         1 UNK         0.0600 
    222 H222       -7.3749  -20.0978  -50.1355 H         1 UNK         0.0600 
    223 H223       -5.9883  -20.2482  -49.0688 H         1 UNK         0.0600 
    224 H224       -6.5293  -18.6587  -49.5777 H         1 UNK         0.0600 
    225 H225       -7.1422  -20.4948  -52.9108 H         1 UNK         0.3000 
    226 H226       -8.1465  -18.0440  -53.8946 H         1 UNK         0.0600 
    227 H227       -9.3407  -20.2079  -54.1018 H         1 UNK         0.0600 
    228 H228       -9.1203  -19.4921  -55.6899 H         1 UNK         0.0600 
    229 H229       -8.0910  -20.8263  -55.1832 H         1 UNK         0.0600 
    230 H230       -5.1733  -19.7184  -54.7238 H         1 UNK         0.3000 
    231 H231       -4.7721  -18.2115  -57.2383 H         1 UNK         0.0600 
    232 H232       -2.7596  -19.6217  -57.4212 H         1 UNK         0.0600 
    233 H233       -4.1462  -20.6407  -57.0714 H         1 UNK         0.0600 
    234 H234       -2.9932  -20.2485  -55.7958 H         1 UNK         0.0600 
    235 H235       -4.4520  -17.4892  -53.9801 H         1 UNK         0.3000 
    236 H236       -3.2612  -16.1852  -52.6669 H         1 UNK         0.0600 
    237 H237       -2.2951  -14.7124  -55.1739 H         1 UNK         0.0600 
    238 H238       -3.8031  -14.3881  -54.3181 H         1 UNK         0.0600 
    239 H239       -2.2616  -14.1074  -53.5240 H         1 UNK         0.0600 
    240 H240       -2.2588  -18.6070  -53.0731 H         1 UNK         0.3000 
    241 H241        0.3977  -18.4325  -52.2149 H         1 UNK         0.0600 
    242 H242       -0.2585  -22.0725  -51.5059 H         1 UNK         0.3800 
    243 H243        0.9690  -21.3296  -52.5266 H         1 UNK         0.3800 
    244 H244        0.7691  -18.3074  -54.7585 H         1 UNK         0.0800 
    245 H245        0.0180  -19.8647  -54.9015 H         1 UNK         0.0800 
    246 H246        4.3582  -18.9220  -53.7985 H         1 UNK         0.0800 
    247 H247        3.1077  -17.7916  -54.2503 H         1 UNK         0.0800 
@<TRIPOS>BOND
     1    1    2 1    
     2    1  127 1    
     3    1  128 1    
     4    1  129 1    
     5    2    3 2    
     6    2    4 am   BACKBONE|DICT|INTERRES
     7    4    5 1    
     8    4  130 1    
     9    5    6 1    
    10    5   65 1    
    11    5  131 1    
    12    6    7 1    
    13    6  132 1    
    14    6  133 1    
    15    7    8 1    
    16    8    9 1    
    17    8  134 1    
    18    8  135 1    
    19    9   10 ar   
    20    9   14 ar   
    21   10   11 ar   
    22   10  136 1    
    23   11   12 ar   
    24   11  126 1    
    25   12   13 ar   
    26   12  137 1    
    27   13   14 ar   
    28   13   15 1    
    29   14  138 1    
    30   15   16 1    
    31   15  139 1    
    32   15  140 1    
    33   16   17 1    
    34   17   18 1    
    35   17  141 1    
    36   17  142 1    
    37   18   19 1    
    38   18   67 1    
    39   18  143 1    
    40   19   20 am   BACKBONE|DICT|INTERRES
    41   19  144 1    
    42   20   21 2    
    43   20   22 1    
    44   22   23 1    
    45   22   24 1    
    46   22  145 1    
    47   23  146 1    
    48   23  147 1    
    49   23  148 1    
    50   24   25 am   BACKBONE|DICT|INTERRES
    51   24  149 1    
    52   25   26 2    
    53   25   27 1    
    54   27   28 1    
    55   27   29 1    
    56   27  150 1    
    57   28  151 1    
    58   28  152 1    
    59   28  153 1    
    60   29   30 am   BACKBONE|DICT|INTERRES
    61   29  154 1    
    62   30   31 2    
    63   30   32 1    
    64   32   33 1    
    65   32   34 1    
    66   32  155 1    
    67   33  156 1    
    68   33  157 1    
    69   33  158 1    
    70   34   35 am   BACKBONE|DICT|INTERRES
    71   34  159 1    
    72   35   36 2    
    73   35   37 1    
    74   37   38 1    
    75   37   39 1    
    76   37  160 1    
    77   38  161 1    
    78   38  162 1    
    79   38  163 1    
    80   39   40 am   BACKBONE|DICT|INTERRES
    81   39  164 1    
    82   40   41 2    
    83   40   42 1    
    84   42   43 1    
    85   42   44 1    
    86   42  165 1    
    87   43  166 1    
    88   43  167 1    
    89   43  168 1    
    90   44   45 am   BACKBONE|DICT|INTERRES
    91   44  169 1    
    92   45   46 2    
    93   45   47 1    
    94   47   48 1    
    95   47   49 1    
    96   47  170 1    
    97   48  171 1    
    98   48  172 1    
    99   48  173 1    
   100   49   50 am   BACKBONE|DICT|INTERRES
   101   49  174 1    
   102   50   51 2    
   103   50   52 1    
   104   52   53 1    
   105   52   54 1    
   106   52  175 1    
   107   53  176 1    
   108   53  177 1    
   109   53  178 1    
   110   54   55 am   BACKBONE|DICT|INTERRES
   111   54  179 1    
   112   55   56 2    
   113   55   57 1    
   114   57   58 1    
   115   57   59 1    
   116   57  180 1    
   117   58  181 1    
   118   58  182 1    
   119   58  183 1    
   120   59   60 am   BACKBONE|DICT|INTERRES
   121   59  184 1    
   122   60   61 2    
   123   60   62 1    
   124   62   63 1    
   125   62   64 1    
   126   62  185 1    
   127   63  186 1    
   128   63  187 1    
   129   63  188 1    
   130   64   65 am   BACKBONE|DICT|INTERRES
   131   64  189 1    
   132   65   66 2    
   133   67   68 2    
   134   67   69 am   BACKBONE|DICT|INTERRES
   135   69   70 1    
   136   69  190 1    
   137   70   71 1    
   138   70   72 1    
   139   70  191 1    
   140   71  192 1    
   141   71  193 1    
   142   71  194 1    
   143   72   73 2    
   144   72   74 am   BACKBONE|DICT|INTERRES
   145   74   75 1    
   146   74  195 1    
   147   75   76 1    
   148   75   77 1    
   149   75  196 1    
   150   76  197 1    
   151   76  198 1    
   152   76  199 1    
   153   77   78 2    
   154   77   79 am   BACKBONE|DICT|INTERRES
   155   79   80 1    
   156   79  200 1    
   157   80   81 1    
   158   80   82 1    
   159   80  201 1    
   160   81  202 1    
   161   81  203 1    
   162   81  204 1    
   163   82   83 2    
   164   82   84 am   BACKBONE|DICT|INTERRES
   165   84   85 1    
   166   84  205 1    
   167   85   86 1    
   168   85   87 1    
   169   85  206 1    
   170   86  207 1    
   171   86  208 1    
   172   86  209 1    
   173   87   88 2    
   174   87   89 am   BACKBONE|DICT|INTERRES
   175   89   90 1    
   176   89  210 1    
   177   90   91 1    
   178   90   92 1    
   179   90  211 1    
   180   91  212 1    
   181   91  213 1    
   182   91  214 1    
   183   92   93 2    
   184   92   94 am   BACKBONE|DICT|INTERRES
   185   94   95 1    
   186   94  215 1    
   187   95   96 1    
   188   95   97 1    
   189   95  216 1    
   190   96  217 1    
   191   96  218 1    
   192   96  219 1    
   193   97   98 2    
   194   97   99 am   BACKBONE|DICT|INTERRES
   195   99  100 1    
   196   99  220 1    
   197  100  101 1    
   198  100  102 1    
   199  100  221 1    
   200  101  222 1    
   201  101  223 1    
   202  101  224 1    
   203  102  103 2    
   204  102  104 am   BACKBONE|DICT|INTERRES
   205  104  105 1    
   206  104  225 1    
   207  105  106 1    
   208  105  107 1    
   209  105  226 1    
   210  106  227 1    
   211  106  228 1    
   212  106  229 1    
   213  107  108 2    
   214  107  109 am   BACKBONE|DICT|INTERRES
   215  109  110 1    
   216  109  230 1    
   217  110  111 1    
   218  110  112 1    
   219  110  231 1    
   220  111  232 1    
   221  111  233 1    
   222  111  234 1    
   223  112  113 2    
   224  112  114 am   BACKBONE|DICT|INTERRES
   225  114  115 1    
   226  114  235 1    
   227  115  116 1    
   228  115  117 1    
   229  115  236 1    
   230  116  237 1    
   231  116  238 1    
   232  116  239 1    
   233  117  118 2    
   234  117  119 am   BACKBONE|DICT|INTERRES
   235  119  120 1    
   236  119  240 1    
   237  120  121 1    
   238  120  124 1    
   239  120  241 1    
   240  121  122 am   BACKBONE|DICT|INTERRES
   241  121  123 2    
   242  122  242 1    
   243  122  243 1    
   244  124  125 1    
   245  124  244 1    
   246  124  245 1    
   247  125  126 1    
   248  126  246 1    
   249  126  247 1    
@<TRIPOS>SUBSTRUCTURE
     1 UNK         1 GROUP             0       ****    0 ROOT    
