@<TRIPOS>MOLECULE
3R540
247   249    1
SMALL
USER_CHARGES


@<TRIPOS>ATOM
      1 CA          7.5036  -15.8219  -50.0089 C.3       0 UNK        -0.1800 
      2 C           6.9467  -15.9005  -48.5944 C.2       0 UNK         0.5000 
      3 O           7.6335  -16.3738  -47.6888 O.2       0 UNK        -0.5000 
      4 N           5.7030  -15.4460  -48.4056 N.am      1 UNK        -0.5000 
      5 CA          5.0217  -15.3709  -47.1140 C.3       1 UNK         0.1400 
      6 C6          3.4754  -15.3455  -47.2678 C.3       23 UNK        -0.0398 
      7 S7          2.7520  -13.9304  -48.1806 S.3       23 UNK        -0.2404 
      8 C8          2.9422  -14.3589  -49.9456 C.3       23 UNK        -0.0205 
      9 C9          2.2341  -15.6447  -50.3501 C.ar      23 UNK        -0.0193 
     10 C10         0.9255  -15.6080  -50.8438 C.ar      23 UNK        -0.1150 
     11 C11         0.2947  -16.7815  -51.2822 C.ar      23 UNK        -0.0193 
     12 C12         0.9879  -17.9924  -51.1980 C.ar      23 UNK        -0.1150 
     13 C13         2.2857  -18.0473  -50.6872 C.ar      23 UNK        -0.0193 
     14 C14         2.9090  -16.8668  -50.2825 C.ar      23 UNK        -0.1150 
     15 C15         3.0209  -19.3760  -50.5860 C.3       23 UNK        -0.0205 
     16 S16         2.6386  -20.2424  -49.0294 S.3       23 UNK        -0.2404 
     17 C17         0.9552  -20.8559  -49.3730 C.3       23 UNK        -0.0398 
     18 CA          0.5657  -22.0806  -48.5118 C.3       11 UNK         0.1400 
     19 N           0.6499  -21.8229  -47.0722 N.am      11 UNK        -0.5000 
     20 C           0.6033  -22.7675  -46.1227 C.2       10 UNK         0.5000 
     21 O           0.5295  -23.9731  -46.3602 O.2       10 UNK        -0.5000 
     22 CA          0.5860  -22.2772  -44.6629 C.3       10 UNK         0.1400 
     23 CB          2.0117  -21.9906  -44.1700 C.3       10 UNK        -0.1800 
     24 N          -0.2415  -21.0819  -44.4899 N.am      10 UNK        -0.5000 
     25 C          -1.5755  -21.0656  -44.6404 C.2       9 UNK         0.5000 
     26 O          -2.2438  -22.0734  -44.8638 O.2       9 UNK        -0.5000 
     27 CA         -2.2827  -19.6967  -44.5847 C.3       9 UNK         0.1400 
     28 CB         -2.7460  -19.3985  -43.1514 C.3       9 UNK        -0.1800 
     29 N          -1.4539  -18.5909  -45.0654 N.am      9 UNK        -0.5000 
     30 C          -0.8797  -18.5161  -46.2749 C.2       8 UNK         0.5000 
     31 O          -1.0870  -19.3341  -47.1701 O.2       8 UNK        -0.5000 
     32 CA          0.1406  -17.3824  -46.5096 C.3       8 UNK         0.1400 
     33 CB         -0.4484  -16.3151  -47.4383 C.3       8 UNK        -0.1800 
     34 N           0.6215  -16.7515  -45.2747 N.am      8 UNK        -0.5000 
     35 C           1.3451  -17.3723  -44.3291 C.2       7 UNK         0.5000 
     36 O           1.7045  -18.5469  -44.4118 O.2       7 UNK        -0.5000 
     37 CA          1.6739  -16.5688  -43.0600 C.3       7 UNK         0.1400 
     38 CB          3.0572  -15.9137  -43.1638 C.3       7 UNK        -0.1800 
     39 N           0.6597  -15.5446  -42.7967 N.am      7 UNK        -0.5000 
     40 C          -0.4264  -15.7632  -42.0421 C.2       6 UNK         0.5000 
     41 O          -0.6569  -16.8277  -41.4676 O.2       6 UNK        -0.5000 
     42 CA         -1.4387  -14.6113  -41.9248 C.3       6 UNK         0.1400 
     43 CB         -0.8644  -13.4445  -41.1075 C.3       6 UNK        -0.1800 
     44 N          -1.8994  -14.1131  -43.2188 N.am      6 UNK        -0.5000 
     45 C          -2.5989  -14.8067  -44.1246 C.2       5 UNK         0.5000 
     46 O          -2.8866  -15.9952  -43.9988 O.2       5 UNK        -0.5000 
     47 CA         -3.0505  -14.0570  -45.3939 C.3       5 UNK         0.1400 
     48 CB         -4.2975  -13.1951  -45.1171 C.3       5 UNK        -0.1800 
     49 N          -1.9832  -13.2842  -46.0434 N.am      5 UNK        -0.5000 
     50 C          -1.3387  -12.2038  -45.5866 C.2       4 UNK         0.5000 
     51 O          -1.6138  -11.6211  -44.5343 O.2       4 UNK        -0.5000 
     52 CA         -0.1523  -11.7184  -46.4361 C.3       4 UNK         0.1400 
     53 CB         -0.5599  -10.5221  -47.3082 C.3       4 UNK        -0.1800 
     54 N           0.9875  -11.3436  -45.5990 N.am      4 UNK        -0.5000 
     55 C           1.6453  -12.1810  -44.7879 C.2       3 UNK         0.5000 
     56 O           1.3847  -13.3839  -44.6694 O.2       3 UNK        -0.5000 
     57 CA          2.7850  -11.5758  -43.9620 C.3       3 UNK         0.1400 
     58 CB          2.3548  -11.3352  -42.5055 C.3       3 UNK        -0.1800 
     59 N           3.8973  -12.5103  -44.0084 N.am      3 UNK        -0.5000 
     60 C           5.1867  -12.2190  -43.8128 C.2       2 UNK         0.5000 
     61 O           5.5983  -11.1033  -43.4923 O.2       2 UNK        -0.5000 
     62 CA          6.1900  -13.3700  -44.0278 C.3       2 UNK         0.1400 
     63 CB          6.5285  -14.0458  -42.6901 C.3       2 UNK        -0.1800 
     64 N           5.7124  -14.3872  -44.9718 N.am      2 UNK        -0.5000 
     65 C           5.5686  -14.1859  -46.2892 C.2       1 UNK         0.5000 
     66 O           5.8479  -13.1230  -46.8498 O.2       1 UNK        -0.5000 
     67 C          -0.8401  -22.5805  -48.8931 C.2       11 UNK         0.5000 
     68 O          -0.9525  -23.5490  -49.6433 O.2       11 UNK        -0.5000 
     69 N          -1.8805  -21.9425  -48.3350 N.am      12 UNK        -0.5000 
     70 CA         -3.2816  -22.3360  -48.4988 C.3       12 UNK         0.1400 
     71 CB         -4.1969  -21.3126  -47.8109 C.3       12 UNK        -0.1800 
     72 C          -3.5580  -23.7546  -47.9695 C.2       12 UNK         0.5000 
     73 O          -4.2264  -24.5323  -48.6489 O.2       12 UNK        -0.5000 
     74 N          -3.0063  -24.0794  -46.7910 N.am      13 UNK        -0.5000 
     75 CA         -3.0736  -25.4042  -46.1748 C.3       13 UNK         0.1400 
     76 CB         -2.5147  -25.3440  -44.7455 C.3       13 UNK        -0.1800 
     77 C          -2.3492  -26.4811  -47.0008 C.2       13 UNK         0.5000 
     78 O          -2.9080  -27.5594  -47.2022 O.2       13 UNK        -0.5000 
     79 N          -1.1479  -26.1620  -47.5057 N.am      14 UNK        -0.5000 
     80 CA         -0.3635  -27.0286  -48.3921 C.3       14 UNK         0.1400 
     81 CB          1.0259  -26.4135  -48.6167 C.3       14 UNK        -0.1800 
     82 C          -1.0636  -27.3043  -49.7377 C.2       14 UNK         0.5000 
     83 O          -0.9853  -28.4211  -50.2501 O.2       14 UNK        -0.5000 
     84 N          -1.7719  -26.2944  -50.2574 N.am      15 UNK        -0.5000 
     85 CA         -2.6187  -26.3719  -51.4478 C.3       15 UNK         0.1400 
     86 CB         -2.7620  -24.9578  -52.0303 C.3       15 UNK        -0.1800 
     87 C          -4.0082  -26.9918  -51.1820 C.2       15 UNK         0.5000 
     88 O          -4.8050  -27.0848  -52.1162 O.2       15 UNK        -0.5000 
     89 N          -4.3006  -27.3697  -49.9268 N.am      16 UNK        -0.5000 
     90 CA         -5.5607  -27.9438  -49.4358 C.3       16 UNK         0.1400 
     91 CB         -5.7458  -29.3735  -49.9844 C.3       16 UNK        -0.1800 
     92 C          -6.7887  -27.0411  -49.6919 C.2       16 UNK         0.5000 
     93 O          -7.8900  -27.5445  -49.9190 O.2       16 UNK        -0.5000 
     94 N          -6.5599  -25.7196  -49.6811 N.am      17 UNK        -0.5000 
     95 CA         -7.4905  -24.6291  -49.9890 C.3       17 UNK         0.1400 
     96 CB         -8.6310  -24.5736  -48.9524 C.3       17 UNK        -0.1800 
     97 C          -8.0161  -24.6146  -51.4433 C.2       17 UNK         0.5000 
     98 O          -8.9279  -23.8417  -51.7423 O.2       17 UNK        -0.5000 
     99 N          -7.4332  -25.4304  -52.3352 N.am      18 UNK        -0.5000 
    100 CA        -7.7750  -25.4784  -53.7603 C.3       18 UNK         0.1400 
    101 CB        -7.3988  -26.8589  -54.3201 C.3       18 UNK        -0.1800 
    102 C         -7.0872  -24.3603  -54.5685 C.2       18 UNK         0.5000 
    103 O         -7.5039  -24.0753  -55.6920 O.2       18 UNK        -0.5000 
    104 N         -6.0543  -23.7487  -53.9826 N.am      19 UNK        -0.5000 
    105 CA        -5.2812  -22.6311  -54.5037 C.3       19 UNK         0.1400 
    106 CB        -4.2304  -23.1451  -55.5078 C.3       19 UNK        -0.1800 
    107 C         -4.6385  -21.9035  -53.3107 C.2       19 UNK         0.5000 
    108 O         -4.8439  -22.3106  -52.1630 O.2       19 UNK        -0.5000 
    109 N         -3.8709  -20.8446  -53.6058 N.am      20 UNK        -0.5000 
    110 CA        -3.0978  -20.0316  -52.6575 C.3       20 UNK         0.1400 
    111 CB        -1.9449  -20.8541  -52.0436 C.3       20 UNK        -0.1800 
    112 C         -3.9636  -19.3155  -51.5982 C.2       20 UNK         0.5000 
    113 O         -3.5240  -19.1125  -50.4661 O.2       20 UNK        -0.5000 
    114 N         -5.1745  -18.9051  -51.9935 N.am      21 UNK        -0.5000 
    115 CA        -6.1431  -18.1967  -51.1566 C.3       21 UNK         0.1400 
    116 CB        -7.5554  -18.4742  -51.7029 C.3       21 UNK        -0.1800 
    117 C         -5.8247  -16.6880  -51.0480 C.2       21 UNK         0.5000 
    118 O         -6.6648  -15.8522  -51.3867 O.2       21 UNK        -0.5000 
    119 N         -4.6112  -16.3645  -50.5836 N.am      22 UNK        -0.5000 
    120 CA        -4.1390  -14.9869  -50.3437 C.3       22 UNK         0.1400 
    121 C         -4.6667  -14.3491  -49.0238 C.2       22 UNK         0.5000 
    122 N         -5.3741  -15.0715  -48.1632 N.am      22 UNK        -0.7600 
    123 O         -4.4366  -13.1685  -48.7802 O.2       22 UNK        -0.5000 
    124 C124       -2.5943  -14.8715  -50.4342 C.3       23 UNK        -0.0398 
    125 S125       -1.9607  -15.2212  -52.1089 S.3       23 UNK        -0.2404 
    126 C126       -1.1194  -16.8212  -51.8628 C.3       23 UNK        -0.0205 
    127 H127        6.7783  -15.4048  -50.7081 H         1 UNK         0.0600 
    128 H128        8.3940  -15.1936  -50.0271 H         1 UNK         0.0600 
    129 H129        7.7792  -16.8166  -50.3594 H         1 UNK         0.0600 
    130 H130        5.2168  -15.0058  -49.1708 H         1 UNK         0.3000 
    131 H131        5.2637  -16.2859  -46.5683 H         1 UNK         0.0600 
    132 H132        3.1316  -16.2781  -47.7110 H         1 UNK         0.0800 
    133 H133        3.0153  -15.3385  -46.2809 H         1 UNK         0.0800 
    134 H134        2.5433  -13.5310  -50.5337 H         1 UNK         0.0800 
    135 H135        3.9969  -14.4110  -50.2114 H         1 UNK         0.0800 
    136 H136        0.4172  -14.6570  -50.8985 H         1 UNK         0.1150 
    137 H137        0.5142  -18.9017  -51.5362 H         1 UNK         0.1150 
    138 H138        3.9226  -16.9049  -49.9116 H         1 UNK         0.1150 
    139 H139        2.7785  -20.0111  -51.4393 H         1 UNK         0.0800 
    140 H140        4.0978  -19.2076  -50.6342 H         1 UNK         0.0800 
    141 H141        0.8978  -21.1236  -50.4295 H         1 UNK         0.0800 
    142 H142        0.2547  -20.0330  -49.2286 H         1 UNK         0.0800 
    143 H143        1.2686  -22.8842  -48.7420 H         1 UNK         0.0600 
    144 H144        0.6577  -20.8519  -46.7956 H         1 UNK         0.3000 
    145 H145        0.1655  -23.0744  -44.0463 H         1 UNK         0.0600 
    146 H146        2.0136  -21.6840  -43.1239 H         1 UNK         0.0600 
    147 H147        2.6376  -22.8803  -44.2501 H         1 UNK         0.0600 
    148 H148        2.4885  -21.2004  -44.7514 H         1 UNK         0.0600 
    149 H149        0.2479  -20.2093  -44.3296 H         1 UNK         0.3000 
    150 H150       -3.1633  -19.7499  -45.2265 H         1 UNK         0.0600 
    151 H151       -3.3604  -20.2109  -42.7610 H         1 UNK         0.0600 
    152 H152       -3.3487  -18.4915  -43.1110 H         1 UNK         0.0600 
    153 H153       -1.9007  -19.2694  -42.4742 H         1 UNK         0.0600 
    154 H154       -1.2800  -17.8456  -44.4059 H         1 UNK         0.3000 
    155 H155        1.0042  -17.8245  -47.0115 H         1 UNK         0.0600 
    156 H156        0.2459  -15.4907  -47.5964 H         1 UNK         0.0600 
    157 H157       -1.3801  -15.9114  -47.0456 H         1 UNK         0.0600 
    158 H158       -0.6626  -16.7497  -48.4148 H         1 UNK         0.0600 
    159 H159        0.3742  -15.7834  -45.1281 H         1 UNK         0.3000 
    160 H160        1.7119  -17.2742  -42.2270 H         1 UNK         0.0600 
    161 H161        3.2959  -15.3584  -42.2566 H         1 UNK         0.0600 
    162 H162        3.8349  -16.6659  -43.3015 H         1 UNK         0.0600 
    163 H163        3.1122  -15.2248  -44.0021 H         1 UNK         0.0600 
    164 H164        0.7779  -14.6525  -43.2676 H         1 UNK         0.3000 
    165 H165       -2.3105  -14.9963  -41.3916 H         1 UNK         0.0600 
    166 H166       -0.0550  -12.9442  -41.6376 H         1 UNK         0.0600 
    167 H167       -1.6317  -12.6997  -40.8954 H         1 UNK         0.0600 
    168 H168       -0.4717  -13.7890  -40.1500 H         1 UNK         0.0600 
    169 H169       -1.7070  -13.1383  -43.4345 H         1 UNK         0.3000 
    170 H170       -3.3419  -14.8196  -46.1171 H         1 UNK         0.0600 
    171 H171       -5.1238  -13.8133  -44.7645 H         1 UNK         0.0600 
    172 H172       -4.1141  -12.4373  -44.3553 H         1 UNK         0.0600 
    173 H173       -4.6334  -12.6856  -46.0200 H         1 UNK         0.0600 
    174 H174       -1.6720  -13.6651  -46.9246 H         1 UNK         0.3000 
    175 H175        0.1706  -12.5305  -47.0909 H         1 UNK         0.0600 
    176 H176        0.2622  -10.2023  -47.9487 H         1 UNK         0.0600 
    177 H177       -1.3963  -10.7810  -47.9589 H         1 UNK         0.0600 
    178 H178       -0.8673   -9.6687  -46.7022 H         1 UNK         0.0600 
    179 H179        1.2462  -10.3682  -45.6108 H         1 UNK         0.3000 
    180 H180        3.0884  -10.6293  -44.4145 H         1 UNK         0.0600 
    181 H181        2.1601  -12.2746  -41.9877 H         1 UNK         0.0600 
    182 H182        1.4470  -10.7325  -42.4567 H         1 UNK         0.0600 
    183 H183        3.1280  -10.8052  -41.9494 H         1 UNK         0.0600 
    184 H184        3.6407  -13.4427  -44.2992 H         1 UNK         0.3000 
    185 H185        7.1074  -12.9354  -44.4308 H         1 UNK         0.0600 
    186 H186        7.2886  -14.8167  -42.8179 H         1 UNK         0.0600 
    187 H187        6.9206  -13.3208  -41.9756 H         1 UNK         0.0600 
    188 H188        5.6516  -14.5091  -42.2373 H         1 UNK         0.0600 
    189 H189        5.5109  -15.2968  -44.5834 H         1 UNK         0.3000 
    190 H190       -1.6965  -21.1194  -47.7693 H         1 UNK         0.3000 
    191 H191       -3.5069  -22.3264  -49.5666 H         1 UNK         0.0600 
    192 H192       -3.9706  -20.2960  -48.1313 H         1 UNK         0.0600 
    193 H193       -5.2422  -21.5065  -48.0541 H         1 UNK         0.0600 
    194 H194       -4.1023  -21.3493  -46.7263 H         1 UNK         0.0600 
    195 H195       -2.5257  -23.3586  -46.2599 H         1 UNK         0.3000 
    196 H196       -4.1265  -25.6873  -46.1137 H         1 UNK         0.0600 
    197 H197       -2.5616  -26.3221  -44.2654 H         1 UNK         0.0600 
    198 H198       -3.0875  -24.6516  -44.1284 H         1 UNK         0.0600 
    199 H199       -1.4737  -25.0202  -44.7323 H         1 UNK         0.0600 
    200 H200       -0.7328  -25.2684  -47.2610 H         1 UNK         0.3000 
    201 H201       -0.2318  -27.9876  -47.8867 H         1 UNK         0.0600 
    202 H202        1.5584  -26.2882  -47.6738 H         1 UNK         0.0600 
    203 H203        0.9614  -25.4367  -49.0963 H         1 UNK         0.0600 
    204 H204        1.6382  -27.0528  -49.2537 H         1 UNK         0.0600 
    205 H205       -1.7224  -25.3869  -49.8037 H         1 UNK         0.3000 
    206 H206       -2.1242  -26.9978  -52.1931 H         1 UNK         0.0600 
    207 H207       -1.7916  -24.5356  -52.2918 H         1 UNK         0.0600 
    208 H208       -3.3691  -24.9627  -52.9354 H         1 UNK         0.0600 
    209 H209       -3.2369  -24.2828  -51.3179 H         1 UNK         0.0600 
    210 H210       -3.5945  -27.2254  -49.2154 H         1 UNK         0.3000 
    211 H211       -5.4605  -28.0151  -48.3521 H         1 UNK         0.0600 
    212 H212       -5.9110  -29.3745  -51.0623 H         1 UNK         0.0600 
    213 H213       -6.6027  -29.8639  -49.5212 H         1 UNK         0.0600 
    214 H214       -4.8709  -29.9900  -49.7783 H         1 UNK         0.0600 
    215 H215       -5.6176  -25.4116  -49.4431 H         1 UNK         0.3000 
    216 H216       -6.9073  -23.7132  -49.8810 H         1 UNK         0.0600 
    217 H217       -8.2384  -24.5586  -47.9356 H         1 UNK         0.0600 
    218 H218       -9.3021  -25.4281  -49.0415 H         1 UNK         0.0600 
    219 H219       -9.2326  -23.6728  -49.0785 H         1 UNK         0.0600 
    220 H220       -6.6772  -26.0351  -52.0330 H         1 UNK         0.3000 
    221 H221       -8.8540  -25.3528  -53.8716 H         1 UNK         0.0600 
    222 H222       -6.3208  -27.0213  -54.3027 H         1 UNK         0.0600 
    223 H223       -7.8687  -27.6595  -53.7484 H         1 UNK         0.0600 
    224 H224       -7.7268  -26.9615  -55.3551 H         1 UNK         0.0600 
    225 H225       -5.8203  -23.9933  -53.0285 H         1 UNK         0.3000 
    226 H226       -5.9549  -21.9306  -55.0012 H         1 UNK         0.0600 
    227 H227       -4.6982  -23.6970  -56.3232 H         1 UNK         0.0600 
    228 H228       -3.6748  -22.3229  -55.9593 H         1 UNK         0.0600 
    229 H229       -3.5073  -23.8071  -55.0310 H         1 UNK         0.0600 
    230 H230       -3.7769  -20.5801  -54.5766 H         1 UNK         0.3000 
    231 H231       -2.6443  -19.2330  -53.2455 H         1 UNK         0.0600 
    232 H232       -1.2670  -21.2174  -52.8155 H         1 UNK         0.0600 
    233 H233       -2.3110  -21.7188  -51.4923 H         1 UNK         0.0600 
    234 H234       -1.3561  -20.2552  -51.3500 H         1 UNK         0.0600 
    235 H235       -5.4494  -19.0782  -52.9489 H         1 UNK         0.3000 
    236 H236       -6.0992  -18.6057  -50.1448 H         1 UNK         0.0600 
    237 H237       -8.3165  -18.0026  -51.0800 H         1 UNK         0.0600 
    238 H238       -7.6775  -18.0940  -52.7179 H         1 UNK         0.0600 
    239 H239       -7.7682  -19.5435  -51.7175 H         1 UNK         0.0600 
    240 H240       -3.9825  -17.1200  -50.3342 H         1 UNK         0.3000 
    241 H241       -4.5482  -14.3590  -51.1376 H         1 UNK         0.0600 
    242 H242       -5.5803  -16.0386  -48.3511 H         1 UNK         0.3800 
    243 H243       -5.7358  -14.6338  -47.3319 H         1 UNK         0.3800 
    244 H244       -2.2657  -13.8615  -50.1825 H         1 UNK         0.0800 
    245 H245       -2.1212  -15.5308  -49.7081 H         1 UNK         0.0800 
    246 H246       -1.7330  -17.4460  -51.2178 H         1 UNK         0.0800 
    247 H247       -1.0764  -17.3200  -52.8317 H         1 UNK         0.0800 
@<TRIPOS>BOND
     1    1    2 1    
     2    1  127 1    
     3    1  128 1    
     4    1  129 1    
     5    2    3 2    
     6    2    4 am   BACKBONE|DICT|INTERRES
     7    4    5 1    
     8    4  130 1    
     9    5    6 1    
    10    5   65 1    
    11    5  131 1    
    12    6    7 1    
    13    6  132 1    
    14    6  133 1    
    15    7    8 1    
    16    8    9 1    
    17    8  134 1    
    18    8  135 1    
    19    9   10 ar   
    20    9   14 ar   
    21   10   11 ar   
    22   10  136 1    
    23   11   12 ar   
    24   11  126 1    
    25   12   13 ar   
    26   12  137 1    
    27   13   14 ar   
    28   13   15 1    
    29   14  138 1    
    30   15   16 1    
    31   15  139 1    
    32   15  140 1    
    33   16   17 1    
    34   17   18 1    
    35   17  141 1    
    36   17  142 1    
    37   18   19 1    
    38   18   67 1    
    39   18  143 1    
    40   19   20 am   BACKBONE|DICT|INTERRES
    41   19  144 1    
    42   20   21 2    
    43   20   22 1    
    44   22   23 1    
    45   22   24 1    
    46   22  145 1    
    47   23  146 1    
    48   23  147 1    
    49   23  148 1    
    50   24   25 am   BACKBONE|DICT|INTERRES
    51   24  149 1    
    52   25   26 2    
    53   25   27 1    
    54   27   28 1    
    55   27   29 1    
    56   27  150 1    
    57   28  151 1    
    58   28  152 1    
    59   28  153 1    
    60   29   30 am   BACKBONE|DICT|INTERRES
    61   29  154 1    
    62   30   31 2    
    63   30   32 1    
    64   32   33 1    
    65   32   34 1    
    66   32  155 1    
    67   33  156 1    
    68   33  157 1    
    69   33  158 1    
    70   34   35 am   BACKBONE|DICT|INTERRES
    71   34  159 1    
    72   35   36 2    
    73   35   37 1    
    74   37   38 1    
    75   37   39 1    
    76   37  160 1    
    77   38  161 1    
    78   38  162 1    
    79   38  163 1    
    80   39   40 am   BACKBONE|DICT|INTERRES
    81   39  164 1    
    82   40   41 2    
    83   40   42 1    
    84   42   43 1    
    85   42   44 1    
    86   42  165 1    
    87   43  166 1    
    88   43  167 1    
    89   43  168 1    
    90   44   45 am   BACKBONE|DICT|INTERRES
    91   44  169 1    
    92   45   46 2    
    93   45   47 1    
    94   47   48 1    
    95   47   49 1    
    96   47  170 1    
    97   48  171 1    
    98   48  172 1    
    99   48  173 1    
   100   49   50 am   BACKBONE|DICT|INTERRES
   101   49  174 1    
   102   50   51 2    
   103   50   52 1    
   104   52   53 1    
   105   52   54 1    
   106   52  175 1    
   107   53  176 1    
   108   53  177 1    
   109   53  178 1    
   110   54   55 am   BACKBONE|DICT|INTERRES
   111   54  179 1    
   112   55   56 2    
   113   55   57 1    
   114   57   58 1    
   115   57   59 1    
   116   57  180 1    
   117   58  181 1    
   118   58  182 1    
   119   58  183 1    
   120   59   60 am   BACKBONE|DICT|INTERRES
   121   59  184 1    
   122   60   61 2    
   123   60   62 1    
   124   62   63 1    
   125   62   64 1    
   126   62  185 1    
   127   63  186 1    
   128   63  187 1    
   129   63  188 1    
   130   64   65 am   BACKBONE|DICT|INTERRES
   131   64  189 1    
   132   65   66 2    
   133   67   68 2    
   134   67   69 am   BACKBONE|DICT|INTERRES
   135   69   70 1    
   136   69  190 1    
   137   70   71 1    
   138   70   72 1    
   139   70  191 1    
   140   71  192 1    
   141   71  193 1    
   142   71  194 1    
   143   72   73 2    
   144   72   74 am   BACKBONE|DICT|INTERRES
   145   74   75 1    
   146   74  195 1    
   147   75   76 1    
   148   75   77 1    
   149   75  196 1    
   150   76  197 1    
   151   76  198 1    
   152   76  199 1    
   153   77   78 2    
   154   77   79 am   BACKBONE|DICT|INTERRES
   155   79   80 1    
   156   79  200 1    
   157   80   81 1    
   158   80   82 1    
   159   80  201 1    
   160   81  202 1    
   161   81  203 1    
   162   81  204 1    
   163   82   83 2    
   164   82   84 am   BACKBONE|DICT|INTERRES
   165   84   85 1    
   166   84  205 1    
   167   85   86 1    
   168   85   87 1    
   169   85  206 1    
   170   86  207 1    
   171   86  208 1    
   172   86  209 1    
   173   87   88 2    
   174   87   89 am   BACKBONE|DICT|INTERRES
   175   89   90 1    
   176   89  210 1    
   177   90   91 1    
   178   90   92 1    
   179   90  211 1    
   180   91  212 1    
   181   91  213 1    
   182   91  214 1    
   183   92   93 2    
   184   92   94 am   BACKBONE|DICT|INTERRES
   185   94   95 1    
   186   94  215 1    
   187   95   96 1    
   188   95   97 1    
   189   95  216 1    
   190   96  217 1    
   191   96  218 1    
   192   96  219 1    
   193   97   98 2    
   194   97   99 am   BACKBONE|DICT|INTERRES
   195   99  100 1    
   196   99  220 1    
   197  100  101 1    
   198  100  102 1    
   199  100  221 1    
   200  101  222 1    
   201  101  223 1    
   202  101  224 1    
   203  102  103 2    
   204  102  104 am   BACKBONE|DICT|INTERRES
   205  104  105 1    
   206  104  225 1    
   207  105  106 1    
   208  105  107 1    
   209  105  226 1    
   210  106  227 1    
   211  106  228 1    
   212  106  229 1    
   213  107  108 2    
   214  107  109 am   BACKBONE|DICT|INTERRES
   215  109  110 1    
   216  109  230 1    
   217  110  111 1    
   218  110  112 1    
   219  110  231 1    
   220  111  232 1    
   221  111  233 1    
   222  111  234 1    
   223  112  113 2    
   224  112  114 am   BACKBONE|DICT|INTERRES
   225  114  115 1    
   226  114  235 1    
   227  115  116 1    
   228  115  117 1    
   229  115  236 1    
   230  116  237 1    
   231  116  238 1    
   232  116  239 1    
   233  117  118 2    
   234  117  119 am   BACKBONE|DICT|INTERRES
   235  119  120 1    
   236  119  240 1    
   237  120  121 1    
   238  120  124 1    
   239  120  241 1    
   240  121  122 am   BACKBONE|DICT|INTERRES
   241  121  123 2    
   242  122  242 1    
   243  122  243 1    
   244  124  125 1    
   245  124  244 1    
   246  124  245 1    
   247  125  126 1    
   248  126  246 1    
   249  126  247 1    
@<TRIPOS>SUBSTRUCTURE
     1 UNK         1 GROUP             0       ****    0 ROOT    
