@<TRIPOS>MOLECULE
3R540
247   249    1
SMALL
USER_CHARGES


@<TRIPOS>ATOM
      1 CA          4.1455  -12.8737  -45.0343 C.3       0 UNK        -0.1800 
      2 C           2.6549  -12.9465  -45.3275 C.2       0 UNK         0.5000 
      3 O           1.8507  -13.0049  -44.3994 O.2       0 UNK        -0.5000 
      4 N           2.2734  -12.9190  -46.6117 N.am      1 UNK        -0.5000 
      5 CA          0.8888  -13.0583  -47.0940 C.3       1 UNK         0.1400 
      6 C6          0.8150  -13.3439  -48.6128 C.3       23 UNK        -0.0398 
      7 S7          1.7564  -14.8241  -49.1096 S.3       23 UNK        -0.2404 
      8 C8          0.5581  -16.1655  -48.8108 C.3       23 UNK        -0.0205 
      9 C9          0.6979  -17.2368  -49.8792 C.ar      23 UNK        -0.0193 
     10 C10        -0.1937  -17.2741  -50.9555 C.ar      23 UNK        -0.1150 
     11 C11        -0.0222  -18.1993  -51.9892 C.ar      23 UNK        -0.0193 
     12 C12         1.0502  -19.0938  -51.9362 C.ar      23 UNK        -0.1150 
     13 C13         1.9369  -19.0796  -50.8559 C.ar      23 UNK        -0.0193 
     14 C14         1.7505  -18.1554  -49.8236 C.ar      23 UNK        -0.1150 
     15 C15         3.1231  -20.0310  -50.8401 C.3       23 UNK        -0.0205 
     16 S16         2.6371  -21.7136  -50.3556 S.3       23 UNK        -0.2404 
     17 C17         2.5477  -21.5384  -48.5443 C.3       23 UNK        -0.0398 
     18 CA          1.8870  -22.7696  -47.8661 C.3       11 UNK         0.1400 
     19 N           2.1927  -22.8269  -46.4408 N.am      11 UNK        -0.5000 
     20 C           3.3564  -23.2550  -45.9310 C.2       10 UNK         0.5000 
     21 O           4.2477  -23.7536  -46.6201 O.2       10 UNK        -0.5000 
     22 CA          3.5932  -23.0777  -44.4164 C.3       10 UNK         0.1400 
     23 CB          4.9715  -22.4529  -44.1372 C.3       10 UNK        -0.1800 
     24 N           2.5754  -22.2190  -43.8167 N.am      10 UNK        -0.5000 
     25 C           1.6442  -22.6087  -42.9381 C.2       9 UNK         0.5000 
     26 O           1.6029  -23.7330  -42.4392 O.2       9 UNK        -0.5000 
     27 CA          0.5608  -21.5770  -42.5596 C.3       9 UNK         0.1400 
     28 CB          0.7242  -21.1342  -41.0984 C.3       9 UNK        -0.1800 
     29 N           0.5248  -20.3996  -43.4405 N.am      9 UNK        -0.5000 
     30 C           0.1288  -20.4490  -44.7215 C.2       8 UNK         0.5000 
     31 O          -0.2155  -21.4926  -45.2744 O.2       8 UNK        -0.5000 
     32 CA          0.1603  -19.1597  -45.5575 C.3       8 UNK         0.1400 
     33 CB         -1.2047  -18.4588  -45.5314 C.3       8 UNK        -0.1800 
     34 N           1.2131  -18.2201  -45.1775 N.am      8 UNK        -0.5000 
     35 C           2.5246  -18.4615  -45.3227 C.2       7 UNK         0.5000 
     36 O           2.9783  -19.5543  -45.6652 O.2       7 UNK        -0.5000 
     37 CA          3.4871  -17.2956  -45.0520 C.3       7 UNK         0.1400 
     38 CB          3.5362  -16.3565  -46.2642 C.3       7 UNK        -0.1800 
     39 N           3.0820  -16.5413  -43.8666 N.am      7 UNK        -0.5000 
     40 C           3.7927  -16.4771  -42.7326 C.2       6 UNK         0.5000 
     41 O           4.9337  -16.9248  -42.6112 O.2       6 UNK        -0.5000 
     42 CA          3.1123  -15.8318  -41.5063 C.3       6 UNK         0.1400 
     43 CB          3.5386  -14.3633  -41.3583 C.3       6 UNK        -0.1800 
     44 N           1.6486  -15.9078  -41.5137 N.am      6 UNK        -0.5000 
     45 C           0.9295  -17.0375  -41.5701 C.2       5 UNK         0.5000 
     46 O           1.4242  -18.1610  -41.6278 O.2       5 UNK        -0.5000 
     47 CA         -0.6020  -16.8963  -41.6341 C.3       5 UNK         0.1400 
     48 CB         -1.2003  -16.9526  -40.2213 C.3       5 UNK        -0.1800 
     49 N          -1.0933  -15.6933  -42.3142 N.am      5 UNK        -0.5000 
     50 C          -0.7584  -15.2765  -43.5445 C.2       4 UNK         0.5000 
     51 O           0.1149  -15.8063  -44.2345 O.2       4 UNK        -0.5000 
     52 CA         -1.5304  -14.0726  -44.1100 C.3       4 UNK         0.1400 
     53 CB         -2.3982  -14.5386  -45.2899 C.3       4 UNK        -0.1800 
     54 N          -2.4059  -13.4191  -43.1294 N.am      4 UNK        -0.5000 
     55 C          -2.1487  -12.4501  -42.2323 C.2       3 UNK         0.5000 
     56 O          -3.0133  -12.1232  -41.4214 O.2       3 UNK        -0.5000 
     57 CA         -0.7955  -11.6998  -42.1793 C.3       3 UNK         0.1400 
     58 CB          0.3046  -12.5233  -41.4922 C.3       3 UNK        -0.1800 
     59 N          -0.3211  -11.1738  -43.4597 N.am      3 UNK        -0.5000 
     60 C          -0.9036  -10.1734  -44.1399 C.2       2 UNK         0.5000 
     61 O          -1.9086   -9.5793  -43.7481 O.2       2 UNK        -0.5000 
     62 CA         -0.2524   -9.7432  -45.4725 C.3       2 UNK         0.1400 
     63 CB          0.6787   -8.5416  -45.2503 C.3       2 UNK        -0.1800 
     64 N           0.5089  -10.8194  -46.1059 N.am      2 UNK        -0.5000 
     65 C          -0.0387  -11.8773  -46.7179 C.2       1 UNK         0.5000 
     66 O          -1.2427  -11.9608  -46.9587 O.2       1 UNK        -0.5000 
     67 C           0.3625  -22.8981  -48.0587 C.2       11 UNK         0.5000 
     68 O          -0.1827  -23.9656  -47.7792 O.2       11 UNK        -0.5000 
     69 N          -0.2983  -21.8341  -48.5370 N.am      12 UNK        -0.5000 
     70 CA         -1.6926  -21.8041  -48.9849 C.3       12 UNK         0.1400 
     71 CB         -2.0472  -20.3700  -49.4006 C.3       12 UNK        -0.1800 
     72 C          -2.7394  -22.3433  -47.9921 C.2       12 UNK         0.5000 
     73 O          -3.6457  -23.0580  -48.4157 O.2       12 UNK        -0.5000 
     74 N          -2.6018  -22.0234  -46.6990 N.am      13 UNK        -0.5000 
     75 CA         -3.5304  -22.4653  -45.6553 C.3       13 UNK         0.1400 
     76 CB         -3.4484  -21.5317  -44.4377 C.3       13 UNK        -0.1800 
     77 C          -3.2866  -23.9260  -45.2414 C.2       13 UNK         0.5000 
     78 O          -4.2442  -24.6198  -44.9002 O.2       13 UNK        -0.5000 
     79 N          -2.0272  -24.3804  -45.3140 N.am      14 UNK        -0.5000 
     80 CA         -1.6447  -25.7781  -45.0977 C.3       14 UNK         0.1400 
     81 CB         -0.1264  -25.8752  -44.8860 C.3       14 UNK        -0.1800 
     82 C          -2.1007  -26.6802  -46.2594 C.2       14 UNK         0.5000 
     83 O          -2.5596  -27.7982  -46.0239 O.2       14 UNK        -0.5000 
     84 N          -2.0014  -26.1564  -47.4883 N.am      15 UNK        -0.5000 
     85 CA         -2.4967  -26.7789  -48.7166 C.3       15 UNK         0.1400 
     86 CB         -1.8605  -26.0602  -49.9176 C.3       15 UNK        -0.1800 
     87 C          -4.0346  -26.7548  -48.8395 C.2       15 UNK         0.5000 
     88 O          -4.5838  -27.5297  -49.6234 O.2       15 UNK        -0.5000 
     89 N          -4.6878  -25.8561  -48.0864 N.am      16 UNK        -0.5000 
     90 CA         -6.1145  -25.5149  -48.1246 C.3       16 UNK         0.1400 
     91 CB         -6.9826  -26.7008  -47.6558 C.3       16 UNK        -0.1800 
     92 C          -6.5355  -24.9479  -49.4982 C.2       16 UNK         0.5000 
     93 O          -7.5970  -25.2921  -50.0221 O.2       16 UNK        -0.5000 
     94 N          -5.6689  -24.1004  -50.0618 N.am      17 UNK        -0.5000 
     95 CA         -5.8140  -23.4745  -51.3683 C.3       17 UNK         0.1400 
     96 CB         -4.4326  -23.4495  -52.0440 C.3       17 UNK        -0.1800 
     97 C          -6.3527  -22.0438  -51.2228 C.2       17 UNK         0.5000 
     98 O          -5.9949  -21.3378  -50.2767 O.2       17 UNK        -0.5000 
     99 N          -7.1637  -21.6268  -52.2005 N.am      18 UNK        -0.5000 
    100 CA        -7.5253  -20.2292  -52.4324 C.3       18 UNK         0.1400 
    101 CB        -8.8058  -20.1922  -53.2821 C.3       18 UNK        -0.1800 
    102 C         -6.3821  -19.5015  -53.1636 C.2       18 UNK         0.5000 
    103 O         -5.5367  -20.1587  -53.7760 O.2       18 UNK        -0.5000 
    104 N         -6.4083  -18.1616  -53.1512 N.am      19 UNK        -0.5000 
    105 CA        -5.4205  -17.2945  -53.8096 C.3       19 UNK         0.1400 
    106 CB        -5.7991  -15.8245  -53.5756 C.3       19 UNK        -0.1800 
    107 C         -5.2489  -17.5754  -55.3168 C.2       19 UNK         0.5000 
    108 O         -4.1266  -17.5662  -55.8236 O.2       19 UNK        -0.5000 
    109 N         -6.3677  -17.8713  -55.9911 N.am      20 UNK        -0.5000 
    110 CA        -6.4147  -18.2512  -57.4028 C.3       20 UNK         0.1400 
    111 CB        -7.8616  -18.1114  -57.9012 C.3       20 UNK        -0.1800 
    112 C         -5.8878  -19.6745  -57.6783 C.2       20 UNK         0.5000 
    113 O         -5.5224  -19.9631  -58.8186 O.2       20 UNK        -0.5000 
    114 N         -5.8696  -20.5388  -56.6537 N.am      21 UNK        -0.5000 
    115 CA        -5.3876  -21.9148  -56.7457 C.3       21 UNK         0.1400 
    116 CB        -6.1817  -22.8141  -55.7847 C.3       21 UNK        -0.1800 
    117 C         -3.8781  -21.9973  -56.4708 C.2       21 UNK         0.5000 
    118 O         -3.1742  -22.6762  -57.2203 O.2       21 UNK        -0.5000 
    119 N         -3.3996  -21.3068  -55.4239 N.am      22 UNK        -0.5000 
    120 CA        -1.9625  -21.2163  -55.1114 C.3       22 UNK         0.1400 
    121 C         -1.1608  -20.2837  -56.0646 C.2       22 UNK         0.5000 
    122 N         -1.7660  -19.2612  -56.6578 N.am      22 UNK        -0.7600 
    123 O          0.0296  -20.4984  -56.2756 O.2       22 UNK        -0.5000 
    124 C124       -1.6743  -20.9160  -53.6159 C.3       23 UNK        -0.0398 
    125 S125       -2.3590  -19.3415  -52.9957 S.3       23 UNK        -0.2404 
    126 C126       -0.9614  -18.1878  -53.1861 C.3       23 UNK        -0.0205 
    127 H127        4.7372  -12.8422  -45.9492 H         1 UNK         0.0600 
    128 H128        4.4559  -13.7448  -44.4577 H         1 UNK         0.0600 
    129 H129        4.3687  -11.9811  -44.4501 H         1 UNK         0.0600 
    130 H130        2.9771  -12.8651  -47.3346 H         1 UNK         0.3000 
    131 H131        0.4734  -13.9312  -46.5862 H         1 UNK         0.0600 
    132 H132        1.2095  -12.4945  -49.1730 H         1 UNK         0.0800 
    133 H133       -0.2187  -13.4632  -48.9425 H         1 UNK         0.0800 
    134 H134        0.7290  -16.5958  -47.8232 H         1 UNK         0.0800 
    135 H135       -0.4609  -15.7763  -48.8031 H         1 UNK         0.0800 
    136 H136       -1.0055  -16.5621  -51.0053 H         1 UNK         0.1150 
    137 H137        1.2108  -19.7928  -52.7440 H         1 UNK         0.1150 
    138 H138        2.4471  -18.1205  -48.9979 H         1 UNK         0.1150 
    139 H139        3.5652  -20.0683  -51.8368 H         1 UNK         0.0800 
    140 H140        3.9078  -19.6661  -50.1754 H         1 UNK         0.0800 
    141 H141        2.0525  -20.6082  -48.2644 H         1 UNK         0.0800 
    142 H142        3.5754  -21.4306  -48.1943 H         1 UNK         0.0800 
    143 H143        2.3048  -23.6683  -48.3258 H         1 UNK         0.0600 
    144 H144        1.4687  -22.4757  -45.8238 H         1 UNK         0.3000 
    145 H145        3.5708  -24.0748  -43.9725 H         1 UNK         0.0600 
    146 H146        5.1381  -22.3304  -43.0669 H         1 UNK         0.0600 
    147 H147        5.7763  -23.0824  -44.5186 H         1 UNK         0.0600 
    148 H148        5.0685  -21.4724  -44.6057 H         1 UNK         0.0600 
    149 H149        2.5354  -21.2734  -44.1770 H         1 UNK         0.3000 
    150 H150       -0.4019  -22.0852  -42.6446 H         1 UNK         0.0600 
    151 H151        0.6386  -21.9850  -40.4213 H         1 UNK         0.0600 
    152 H152       -0.0438  -20.4152  -40.8128 H         1 UNK         0.0600 
    153 H153        1.6992  -20.6782  -40.9245 H         1 UNK         0.0600 
    154 H154        0.8474  -19.5249  -43.0397 H         1 UNK         0.3000 
    155 H155        0.3543  -19.4550  -46.5908 H         1 UNK         0.0600 
    156 H156       -1.2000  -17.5623  -46.1516 H         1 UNK         0.0600 
    157 H157       -1.9867  -19.1120  -45.9189 H         1 UNK         0.0600 
    158 H158       -1.4911  -18.1673  -44.5212 H         1 UNK         0.0600 
    159 H159        0.8993  -17.3001  -44.8773 H         1 UNK         0.3000 
    160 H160        4.4818  -17.7265  -44.9216 H         1 UNK         0.0600 
    161 H161        2.5898  -15.8337  -46.3991 H         1 UNK         0.0600 
    162 H162        3.7460  -16.9050  -47.1833 H         1 UNK         0.0600 
    163 H163        4.3203  -15.6092  -46.1497 H         1 UNK         0.0600 
    164 H164        2.1482  -16.1465  -43.8720 H         1 UNK         0.3000 
    165 H165        3.4593  -16.3758  -40.6255 H         1 UNK         0.0600 
    166 H166        3.1466  -13.9282  -40.4389 H         1 UNK         0.0600 
    167 H167        4.6250  -14.2725  -41.3223 H         1 UNK         0.0600 
    168 H168        3.1877  -13.7563  -42.1924 H         1 UNK         0.0600 
    169 H169        1.1530  -15.0303  -41.4978 H         1 UNK         0.3000 
    170 H170       -0.9773  -17.7559  -42.1920 H         1 UNK         0.0600 
    171 H171       -0.8726  -17.8489  -39.6924 H         1 UNK         0.0600 
    172 H172       -0.9015  -16.0904  -39.6238 H         1 UNK         0.0600 
    173 H173       -2.2897  -16.9782  -40.2539 H         1 UNK         0.0600 
    174 H174       -1.8221  -15.1844  -41.8355 H         1 UNK         0.3000 
    175 H175       -0.7926  -13.3785  -44.4923 H         1 UNK         0.0600 
    176 H176       -2.9496  -13.7063  -45.7273 H         1 UNK         0.0600 
    177 H177       -1.7867  -14.9712  -46.0830 H         1 UNK         0.0600 
    178 H178       -3.1225  -15.2954  -44.9858 H         1 UNK         0.0600 
    179 H179       -3.3384  -13.8045  -43.1042 H         1 UNK         0.3000 
    180 H180       -0.9627  -10.8323  -41.5368 H         1 UNK         0.0600 
    181 H181        0.6721  -13.3227  -42.1288 H         1 UNK         0.0600 
    182 H182       -0.0565  -12.9726  -40.5661 H         1 UNK         0.0600 
    183 H183        1.1574  -11.8945  -41.2360 H         1 UNK         0.0600 
    184 H184        0.4939  -11.6314  -43.8555 H         1 UNK         0.3000 
    185 H185       -1.0521   -9.4346  -46.1493 H         1 UNK         0.0600 
    186 H186        0.1385   -7.7065  -44.8024 H         1 UNK         0.0600 
    187 H187        1.5069   -8.7911  -44.5857 H         1 UNK         0.0600 
    188 H188        1.0981   -8.1878  -46.1924 H         1 UNK         0.0600 
    189 H189        1.5060  -10.8270  -45.9487 H         1 UNK         0.3000 
    190 H190        0.2379  -21.0086  -48.7566 H         1 UNK         0.3000 
    191 H191       -1.7459  -22.4322  -49.8761 H         1 UNK         0.0600 
    192 H192       -1.9776  -19.6762  -48.5621 H         1 UNK         0.0600 
    193 H193       -3.0640  -20.3149  -49.7932 H         1 UNK         0.0600 
    194 H194       -1.3798  -20.0140  -50.1843 H         1 UNK         0.0600 
    195 H195       -1.7612  -21.5476  -46.3900 H         1 UNK         0.3000 
    196 H196       -4.5470  -22.3995  -46.0496 H         1 UNK         0.0600 
    197 H197       -4.2141  -21.7885  -43.7047 H         1 UNK         0.0600 
    198 H198       -3.6102  -20.4923  -44.7217 H         1 UNK         0.0600 
    199 H199       -2.4863  -21.6015  -43.9325 H         1 UNK         0.0600 
    200 H200       -1.3052  -23.7529  -45.6432 H         1 UNK         0.3000 
    201 H201       -2.1346  -26.1322  -44.1881 H         1 UNK         0.0600 
    202 H202        0.1830  -25.2948  -44.0186 H         1 UNK         0.0600 
    203 H203        0.4333  -25.5135  -45.7483 H         1 UNK         0.0600 
    204 H204        0.1767  -26.9078  -44.7090 H         1 UNK         0.0600 
    205 H205       -1.5301  -25.2606  -47.5909 H         1 UNK         0.3000 
    206 H206       -2.1775  -27.8229  -48.7288 H         1 UNK         0.0600 
    207 H207       -0.7721  -26.1061  -49.8744 H         1 UNK         0.0600 
    208 H208       -2.1693  -26.5184  -50.8579 H         1 UNK         0.0600 
    209 H209       -2.1495  -25.0091  -49.9546 H         1 UNK         0.0600 
    210 H210       -4.1189  -25.2479  -47.5143 H         1 UNK         0.3000 
    211 H211       -6.2504  -24.7043  -47.4071 H         1 UNK         0.0600 
    212 H212       -6.9474  -27.5345  -48.3574 H         1 UNK         0.0600 
    213 H213       -8.0269  -26.4030  -47.5556 H         1 UNK         0.0600 
    214 H214       -6.6550  -27.0666  -46.6826 H         1 UNK         0.0600 
    215 H215       -4.8727  -23.7873  -49.5082 H         1 UNK         0.3000 
    216 H216       -6.4958  -24.0574  -51.9914 H         1 UNK         0.0600 
    217 H217       -3.7078  -22.8926  -51.4488 H         1 UNK         0.0600 
    218 H218       -4.4791  -22.9763  -53.0250 H         1 UNK         0.0600 
    219 H219       -4.0442  -24.4583  -52.1853 H         1 UNK         0.0600 
    220 H220       -7.3852  -22.2658  -52.9489 H         1 UNK         0.3000 
    221 H221       -7.7117  -19.7330  -51.4776 H         1 UNK         0.0600 
    222 H222       -9.6218  -20.7188  -52.7866 H         1 UNK         0.0600 
    223 H223       -8.6556  -20.6524  -54.2599 H         1 UNK         0.0600 
    224 H224       -9.1391  -19.1673  -53.4495 H         1 UNK         0.0600 
    225 H225       -7.1433  -17.6931  -52.6414 H         1 UNK         0.3000 
    226 H226       -4.4579  -17.4684  -53.3297 H         1 UNK         0.0600 
    227 H227       -5.8225  -15.5876  -52.5118 H         1 UNK         0.0600 
    228 H228       -5.0723  -15.1560  -54.0393 H         1 UNK         0.0600 
    229 H229       -6.7777  -15.5877  -53.9950 H         1 UNK         0.0600 
    230 H230       -7.2454  -17.8631  -55.4928 H         1 UNK         0.3000 
    231 H231       -5.7903  -17.5554  -57.9674 H         1 UNK         0.0600 
    232 H232       -8.5383  -18.7767  -57.3635 H         1 UNK         0.0600 
    233 H233       -7.9355  -18.3554  -58.9618 H         1 UNK         0.0600 
    234 H234       -8.2246  -17.0907  -57.7786 H         1 UNK         0.0600 
    235 H235       -6.0949  -20.2061  -55.7243 H         1 UNK         0.3000 
    236 H236       -5.5621  -22.2907  -57.7563 H         1 UNK         0.0600 
    237 H237       -7.2478  -22.7854  -56.0103 H         1 UNK         0.0600 
    238 H238       -5.8586  -23.8524  -55.8688 H         1 UNK         0.0600 
    239 H239       -6.0519  -22.5167  -54.7463 H         1 UNK         0.0600 
    240 H240       -4.0352  -20.7785  -54.8321 H         1 UNK         0.3000 
    241 H241       -1.5482  -22.2123  -55.2821 H         1 UNK         0.0600 
    242 H242       -1.2375  -18.6709  -57.2794 H         1 UNK         0.3800 
    243 H243       -2.7149  -19.0020  -56.4159 H         1 UNK         0.3800 
    244 H244       -0.6035  -20.9561  -53.4201 H         1 UNK         0.0800 
    245 H245       -2.1028  -21.7121  -53.0069 H         1 UNK         0.0800 
    246 H246       -0.4045  -18.4062  -54.0968 H         1 UNK         0.0800 
    247 H247       -1.3666  -17.1843  -53.3239 H         1 UNK         0.0800 
@<TRIPOS>BOND
     1    1    2 1    
     2    1  127 1    
     3    1  128 1    
     4    1  129 1    
     5    2    3 2    
     6    2    4 am   BACKBONE|DICT|INTERRES
     7    4    5 1    
     8    4  130 1    
     9    5    6 1    
    10    5   65 1    
    11    5  131 1    
    12    6    7 1    
    13    6  132 1    
    14    6  133 1    
    15    7    8 1    
    16    8    9 1    
    17    8  134 1    
    18    8  135 1    
    19    9   10 ar   
    20    9   14 ar   
    21   10   11 ar   
    22   10  136 1    
    23   11   12 ar   
    24   11  126 1    
    25   12   13 ar   
    26   12  137 1    
    27   13   14 ar   
    28   13   15 1    
    29   14  138 1    
    30   15   16 1    
    31   15  139 1    
    32   15  140 1    
    33   16   17 1    
    34   17   18 1    
    35   17  141 1    
    36   17  142 1    
    37   18   19 1    
    38   18   67 1    
    39   18  143 1    
    40   19   20 am   BACKBONE|DICT|INTERRES
    41   19  144 1    
    42   20   21 2    
    43   20   22 1    
    44   22   23 1    
    45   22   24 1    
    46   22  145 1    
    47   23  146 1    
    48   23  147 1    
    49   23  148 1    
    50   24   25 am   BACKBONE|DICT|INTERRES
    51   24  149 1    
    52   25   26 2    
    53   25   27 1    
    54   27   28 1    
    55   27   29 1    
    56   27  150 1    
    57   28  151 1    
    58   28  152 1    
    59   28  153 1    
    60   29   30 am   BACKBONE|DICT|INTERRES
    61   29  154 1    
    62   30   31 2    
    63   30   32 1    
    64   32   33 1    
    65   32   34 1    
    66   32  155 1    
    67   33  156 1    
    68   33  157 1    
    69   33  158 1    
    70   34   35 am   BACKBONE|DICT|INTERRES
    71   34  159 1    
    72   35   36 2    
    73   35   37 1    
    74   37   38 1    
    75   37   39 1    
    76   37  160 1    
    77   38  161 1    
    78   38  162 1    
    79   38  163 1    
    80   39   40 am   BACKBONE|DICT|INTERRES
    81   39  164 1    
    82   40   41 2    
    83   40   42 1    
    84   42   43 1    
    85   42   44 1    
    86   42  165 1    
    87   43  166 1    
    88   43  167 1    
    89   43  168 1    
    90   44   45 am   BACKBONE|DICT|INTERRES
    91   44  169 1    
    92   45   46 2    
    93   45   47 1    
    94   47   48 1    
    95   47   49 1    
    96   47  170 1    
    97   48  171 1    
    98   48  172 1    
    99   48  173 1    
   100   49   50 am   BACKBONE|DICT|INTERRES
   101   49  174 1    
   102   50   51 2    
   103   50   52 1    
   104   52   53 1    
   105   52   54 1    
   106   52  175 1    
   107   53  176 1    
   108   53  177 1    
   109   53  178 1    
   110   54   55 am   BACKBONE|DICT|INTERRES
   111   54  179 1    
   112   55   56 2    
   113   55   57 1    
   114   57   58 1    
   115   57   59 1    
   116   57  180 1    
   117   58  181 1    
   118   58  182 1    
   119   58  183 1    
   120   59   60 am   BACKBONE|DICT|INTERRES
   121   59  184 1    
   122   60   61 2    
   123   60   62 1    
   124   62   63 1    
   125   62   64 1    
   126   62  185 1    
   127   63  186 1    
   128   63  187 1    
   129   63  188 1    
   130   64   65 am   BACKBONE|DICT|INTERRES
   131   64  189 1    
   132   65   66 2    
   133   67   68 2    
   134   67   69 am   BACKBONE|DICT|INTERRES
   135   69   70 1    
   136   69  190 1    
   137   70   71 1    
   138   70   72 1    
   139   70  191 1    
   140   71  192 1    
   141   71  193 1    
   142   71  194 1    
   143   72   73 2    
   144   72   74 am   BACKBONE|DICT|INTERRES
   145   74   75 1    
   146   74  195 1    
   147   75   76 1    
   148   75   77 1    
   149   75  196 1    
   150   76  197 1    
   151   76  198 1    
   152   76  199 1    
   153   77   78 2    
   154   77   79 am   BACKBONE|DICT|INTERRES
   155   79   80 1    
   156   79  200 1    
   157   80   81 1    
   158   80   82 1    
   159   80  201 1    
   160   81  202 1    
   161   81  203 1    
   162   81  204 1    
   163   82   83 2    
   164   82   84 am   BACKBONE|DICT|INTERRES
   165   84   85 1    
   166   84  205 1    
   167   85   86 1    
   168   85   87 1    
   169   85  206 1    
   170   86  207 1    
   171   86  208 1    
   172   86  209 1    
   173   87   88 2    
   174   87   89 am   BACKBONE|DICT|INTERRES
   175   89   90 1    
   176   89  210 1    
   177   90   91 1    
   178   90   92 1    
   179   90  211 1    
   180   91  212 1    
   181   91  213 1    
   182   91  214 1    
   183   92   93 2    
   184   92   94 am   BACKBONE|DICT|INTERRES
   185   94   95 1    
   186   94  215 1    
   187   95   96 1    
   188   95   97 1    
   189   95  216 1    
   190   96  217 1    
   191   96  218 1    
   192   96  219 1    
   193   97   98 2    
   194   97   99 am   BACKBONE|DICT|INTERRES
   195   99  100 1    
   196   99  220 1    
   197  100  101 1    
   198  100  102 1    
   199  100  221 1    
   200  101  222 1    
   201  101  223 1    
   202  101  224 1    
   203  102  103 2    
   204  102  104 am   BACKBONE|DICT|INTERRES
   205  104  105 1    
   206  104  225 1    
   207  105  106 1    
   208  105  107 1    
   209  105  226 1    
   210  106  227 1    
   211  106  228 1    
   212  106  229 1    
   213  107  108 2    
   214  107  109 am   BACKBONE|DICT|INTERRES
   215  109  110 1    
   216  109  230 1    
   217  110  111 1    
   218  110  112 1    
   219  110  231 1    
   220  111  232 1    
   221  111  233 1    
   222  111  234 1    
   223  112  113 2    
   224  112  114 am   BACKBONE|DICT|INTERRES
   225  114  115 1    
   226  114  235 1    
   227  115  116 1    
   228  115  117 1    
   229  115  236 1    
   230  116  237 1    
   231  116  238 1    
   232  116  239 1    
   233  117  118 2    
   234  117  119 am   BACKBONE|DICT|INTERRES
   235  119  120 1    
   236  119  240 1    
   237  120  121 1    
   238  120  124 1    
   239  120  241 1    
   240  121  122 am   BACKBONE|DICT|INTERRES
   241  121  123 2    
   242  122  242 1    
   243  122  243 1    
   244  124  125 1    
   245  124  244 1    
   246  124  245 1    
   247  125  126 1    
   248  126  246 1    
   249  126  247 1    
@<TRIPOS>SUBSTRUCTURE
     1 UNK         1 GROUP             0       ****    0 ROOT    
