@<TRIPOS>MOLECULE
3R540
247   249    1
SMALL
USER_CHARGES


@<TRIPOS>ATOM
      1 CA          1.2592  -10.4811  -48.8298 C.3       0 UNK        -0.1800 
      2 C           2.6541  -10.7989  -48.3093 C.2       0 UNK         0.5000 
      3 O           3.2925   -9.9414  -47.6980 O.2       0 UNK        -0.5000 
      4 N           3.1287  -12.0247  -48.5570 N.am      1 UNK        -0.5000 
      5 CA          4.3927  -12.5658  -48.0490 C.3       1 UNK         0.1400 
      6 C6          4.8236  -13.8459  -48.8106 C.3       23 UNK        -0.0398 
      7 S7          3.4963  -15.0824  -49.0714 S.3       23 UNK        -0.2404 
      8 C8          3.4727  -15.1344  -50.8974 C.3       23 UNK        -0.0205 
      9 C9          2.6426  -16.2686  -51.4907 C.ar      23 UNK        -0.0193 
     10 C10         1.9169  -16.0506  -52.6669 C.ar      23 UNK        -0.1150 
     11 C11         1.2229  -17.0966  -53.2835 C.ar      23 UNK        -0.0193 
     12 C12         1.2393  -18.3680  -52.7017 C.ar      23 UNK        -0.1150 
     13 C13         1.9562  -18.6001  -51.5243 C.ar      23 UNK        -0.0193 
     14 C14         2.6601  -17.5500  -50.9299 C.ar      23 UNK        -0.1150 
     15 C15         1.9992  -19.9856  -50.9001 C.3       23 UNK        -0.0205 
     16 S16         0.8958  -20.0751  -49.4630 S.3       23 UNK        -0.2404 
     17 C17         1.2571  -21.7458  -48.8323 C.3       23 UNK        -0.0398 
     18 CA          0.2513  -22.2368  -47.7609 C.3       11 UNK         0.1400 
     19 N          -0.0256  -21.2239  -46.7422 N.am      11 UNK        -0.5000 
     20 C          -0.5774  -21.4685  -45.5487 C.2       10 UNK         0.5000 
     21 O          -0.8582  -22.5961  -45.1402 O.2       10 UNK        -0.5000 
     22 CA         -0.9200  -20.2263  -44.7102 C.3       10 UNK         0.1400 
     23 CB          0.3596  -19.6217  -44.1093 C.3       10 UNK        -0.1800 
     24 N          -1.6319  -19.2173  -45.5055 N.am      10 UNK        -0.5000 
     25 C          -2.8795  -19.3855  -45.9782 C.2       9 UNK         0.5000 
     26 O          -3.5369  -20.4054  -45.7750 O.2       9 UNK        -0.5000 
     27 CA         -3.5077  -18.2648  -46.8329 C.3       9 UNK         0.1400 
     28 CB         -4.5666  -17.4933  -46.0324 C.3       9 UNK        -0.1800 
     29 N          -2.5106  -17.3397  -47.3687 N.am      9 UNK        -0.5000 
     30 C          -1.7970  -17.5800  -48.4795 C.2       8 UNK         0.5000 
     31 O          -2.0428  -18.5180  -49.2391 O.2       8 UNK        -0.5000 
     32 CA         -0.6176  -16.6366  -48.8107 C.3       8 UNK         0.1400 
     33 CB         -0.8643  -15.8852  -50.1241 C.3       8 UNK        -0.1800 
     34 N          -0.2962  -15.6675  -47.7611 N.am      8 UNK        -0.5000 
     35 C           0.1920  -15.9837  -46.5556 C.2       7 UNK         0.5000 
     36 O           0.3937  -17.1455  -46.2001 O.2       7 UNK        -0.5000 
     37 CA          0.4354  -14.8338  -45.5559 C.3       7 UNK         0.1400 
     38 CB          0.1080  -13.4279  -46.1118 C.3       7 UNK        -0.1800 
     39 N          -0.2801  -15.0657  -44.2992 N.am      7 UNK        -0.5000 
     40 C          -1.6018  -15.2397  -44.1546 C.2       6 UNK         0.5000 
     41 O          -2.3998  -15.2041  -45.0920 O.2       6 UNK        -0.5000 
     42 CA         -2.1296  -15.4950  -42.7300 C.3       6 UNK         0.1400 
     43 CB         -2.2433  -17.0002  -42.4454 C.3       6 UNK        -0.1800 
     44 N          -1.3070  -14.8809  -41.6881 N.am      6 UNK        -0.5000 
     45 C          -1.2604  -13.5685  -41.4191 C.2       5 UNK         0.5000 
     46 O          -1.9289  -12.7237  -42.0155 O.2       5 UNK        -0.5000 
     47 CA         -0.3153  -13.1257  -40.2837 C.3       5 UNK         0.1400 
     48 CB         -1.0978  -12.9444  -38.9738 C.3       5 UNK        -0.1800 
     49 N           0.7823  -14.0700  -40.0555 N.am      5 UNK        -0.5000 
     50 C           1.8376  -14.2077  -40.8684 C.2       4 UNK         0.5000 
     51 O           2.0276  -13.4868  -41.8512 O.2       4 UNK        -0.5000 
     52 CA          2.8515  -15.3212  -40.5172 C.3       4 UNK         0.1400 
     53 CB          2.2026  -16.5550  -39.8491 C.3       4 UNK        -0.1800 
     54 N           3.6516  -15.7241  -41.6780 N.am      4 UNK        -0.5000 
     55 C           3.2081  -16.2599  -42.8240 C.2       3 UNK         0.5000 
     56 O           2.0347  -16.5766  -43.0272 O.2       3 UNK        -0.5000 
     57 CA          4.2629  -16.3974  -43.9403 C.3       3 UNK         0.1400 
     58 CB          3.7791  -17.2368  -45.1353 C.3       3 UNK        -0.1800 
     59 N           4.6554  -15.0732  -44.4208 N.am      3 UNK        -0.5000 
     60 C           5.5264  -14.2514  -43.8246 C.2       2 UNK         0.5000 
     61 O           6.1728  -14.5801  -42.8272 O.2       2 UNK        -0.5000 
     62 CA          5.6889  -12.8295  -44.4150 C.3       2 UNK         0.1400 
     63 CB          7.0468  -12.2013  -44.0516 C.3       2 UNK        -0.1800 
     64 N           5.5106  -12.7388  -45.8697 N.am      2 UNK        -0.5000 
     65 C           4.3433  -12.7963  -46.5235 C.2       1 UNK         0.5000 
     66 O           3.2735  -13.0482  -45.9683 O.2       1 UNK        -0.5000 
     67 C          -1.0446  -22.8059  -48.3757 C.2       11 UNK         0.5000 
     68 O          -1.0605  -23.9800  -48.7418 O.2       11 UNK        -0.5000 
     69 N          -2.1218  -22.0051  -48.4234 N.am      12 UNK        -0.5000 
     70 CA         -3.4492  -22.4576  -48.8455 C.3       12 UNK         0.1400 
     71 CB         -4.3994  -21.2689  -49.0329 C.3       12 UNK        -0.1800 
     72 C          -4.0536  -23.4654  -47.8596 C.2       12 UNK         0.5000 
     73 O          -4.5893  -24.4813  -48.2957 O.2       12 UNK        -0.5000 
     74 N          -3.9248  -23.1941  -46.5533 N.am      13 UNK        -0.5000 
     75 CA         -4.3466  -24.0935  -45.4794 C.3       13 UNK         0.1400 
     76 CB         -4.2018  -23.3883  -44.1228 C.3       13 UNK        -0.1800 
     77 C          -3.5784  -25.4275  -45.4988 C.2       13 UNK         0.5000 
     78 O          -4.1950  -26.4817  -45.3434 O.2       13 UNK        -0.5000 
     79 N          -2.2634  -25.3633  -45.7559 N.am      14 UNK        -0.5000 
     80 CA         -1.3974  -26.5305  -45.9461 C.3       14 UNK         0.1400 
     81 CB          0.0684  -26.0758  -46.0052 C.3       14 UNK        -0.1800 
     82 C          -1.7666  -27.3582  -47.1951 C.2       14 UNK         0.5000 
     83 O          -1.7126  -28.5873  -47.1478 O.2       14 UNK        -0.5000 
     84 N          -2.1690  -26.6736  -48.2744 N.am      15 UNK        -0.5000 
     85 CA         -2.6517  -27.2648  -49.5247 C.3       15 UNK         0.1400 
     86 CB         -2.4701  -26.2408  -50.6596 C.3       15 UNK        -0.1800 
     87 C          -4.1196  -27.7381  -49.4650 C.2       15 UNK         0.5000 
     88 O          -4.6079  -28.2739  -50.4591 O.2       15 UNK        -0.5000 
     89 N          -4.8141  -27.5032  -48.3410 N.am      16 UNK        -0.5000 
     90 CA         -6.2400  -27.7683  -48.1096 C.3       16 UNK         0.1400 
     91 CB         -6.5148  -29.2859  -48.0703 C.3       16 UNK        -0.1800 
     92 C          -7.1569  -27.0091  -49.0962 C.2       16 UNK         0.5000 
     93 O          -8.1576  -27.5542  -49.5646 O.2       16 UNK        -0.5000 
     94 N          -6.7716  -25.7614  -49.4008 N.am      17 UNK        -0.5000 
     95 CA         -7.4011  -24.8029  -50.3145 C.3       17 UNK         0.1400 
     96 CB         -8.8272  -24.4449  -49.8484 C.3       17 UNK        -0.1800 
     97 C          -7.3453  -25.2026  -51.8051 C.2       17 UNK         0.5000 
     98 O          -8.0329  -24.5851  -52.6198 O.2       17 UNK        -0.5000 
     99 N          -6.5150  -26.1954  -52.1572 N.am      18 UNK        -0.5000 
    100 CA        -6.3106  -26.6499  -53.5363 C.3       18 UNK         0.1400 
    101 CB        -5.7701  -28.0879  -53.5148 C.3       18 UNK        -0.1800 
    102 C         -5.3683  -25.7373  -54.3483 C.2       18 UNK         0.5000 
    103 O         -5.3005  -25.8795  -55.5701 O.2       18 UNK        -0.5000 
    104 N         -4.6508  -24.8341  -53.6711 N.am      19 UNK        -0.5000 
    105 CA        -3.6887  -23.9003  -54.2444 C.3       19 UNK         0.1400 
    106 CB        -2.3294  -24.6078  -54.4103 C.3       19 UNK        -0.1800 
    107 C         -3.5715  -22.6669  -53.3348 C.2       19 UNK         0.5000 
    108 O         -4.1369  -22.6588  -52.2381 O.2       19 UNK        -0.5000 
    109 N         -2.8141  -21.6680  -53.8081 N.am      20 UNK        -0.5000 
    110 CA        -2.4809  -20.4086  -53.1362 C.3       20 UNK         0.1400 
    111 CB        -1.5876  -20.6686  -51.9073 C.3       20 UNK        -0.1800 
    112 C         -3.7197  -19.5295  -52.8559 C.2       20 UNK         0.5000 
    113 O         -4.5630  -19.3981  -53.7455 O.2       20 UNK        -0.5000 
    114 N         -3.7843  -18.9110  -51.6646 N.am      21 UNK        -0.5000 
    115 CA        -4.7840  -17.9265  -51.2262 C.3       21 UNK         0.1400 
    116 CB        -6.2016  -18.5346  -51.1776 C.3       21 UNK        -0.1800 
    117 C         -4.6988  -16.6222  -52.0465 C.2       21 UNK         0.5000 
    118 O         -5.7186  -16.0306  -52.4032 O.2       21 UNK        -0.5000 
    119 N         -3.4580  -16.2184  -52.3404 N.am      22 UNK        -0.5000 
    120 CA        -3.0853  -15.1024  -53.2244 C.3       22 UNK         0.1400 
    121 C         -3.3305  -13.6758  -52.6478 C.2       22 UNK         0.5000 
    122 N         -3.7628  -13.5186  -51.4029 N.am      22 UNK        -0.7600 
    123 O         -3.1297  -12.6882  -53.3494 O.2       22 UNK        -0.5000 
    124 C124       -1.6243  -15.2522  -53.7287 C.3       23 UNK        -0.0398 
    125 S125       -1.2965  -16.8908  -54.4659 S.3       23 UNK        -0.2404 
    126 C126        0.5159  -16.8728  -54.6140 C.3       23 UNK        -0.0205 
    127 H127        0.8287  -11.3214  -49.3753 H         1 UNK         0.0600 
    128 H128        0.5960  -10.2406  -47.9989 H         1 UNK         0.0600 
    129 H129        1.2943   -9.6225  -49.5004 H         1 UNK         0.0600 
    130 H130        2.5476  -12.6958  -49.0376 H         1 UNK         0.3000 
    131 H131        5.1595  -11.8083  -48.2267 H         1 UNK         0.0600 
    132 H132        5.2200  -13.5443  -49.7808 H         1 UNK         0.0800 
    133 H133        5.6591  -14.3397  -48.3111 H         1 UNK         0.0800 
    134 H134        3.1155  -14.1708  -51.2643 H         1 UNK         0.0800 
    135 H135        4.4934  -15.2499  -51.2644 H         1 UNK         0.0800 
    136 H136        1.9209  -15.0711  -53.1243 H         1 UNK         0.1150 
    137 H137        0.7092  -19.1800  -53.1789 H         1 UNK         0.1150 
    138 H138        3.2310  -17.7392  -50.0320 H         1 UNK         0.1150 
    139 H139        1.7125  -20.7457  -51.6281 H         1 UNK         0.0800 
    140 H140        3.0198  -20.2167  -50.5917 H         1 UNK         0.0800 
    141 H141        2.2570  -21.7192  -48.3972 H         1 UNK         0.0800 
    142 H142        1.3154  -22.4483  -49.6661 H         1 UNK         0.0800 
    143 H143        0.7295  -23.0751  -47.2500 H         1 UNK         0.0600 
    144 H144        0.1655  -20.2677  -47.0081 H         1 UNK         0.3000 
    145 H145       -1.5710  -20.5359  -43.8898 H         1 UNK         0.0600 
    146 H146        0.1519  -18.7132  -43.5478 H         1 UNK         0.0600 
    147 H147        0.8379  -20.3245  -43.4263 H         1 UNK         0.0600 
    148 H148        1.0900  -19.3674  -44.8778 H         1 UNK         0.0600 
    149 H149       -1.1096  -18.3791  -45.7421 H         1 UNK         0.3000 
    150 H150       -4.0263  -18.7364  -47.6680 H         1 UNK         0.0600 
    151 H151       -5.3906  -18.1502  -45.7510 H         1 UNK         0.0600 
    152 H152       -4.9881  -16.6757  -46.6172 H         1 UNK         0.0600 
    153 H153       -4.1612  -17.0756  -45.1128 H         1 UNK         0.0600 
    154 H154       -2.2820  -16.5372  -46.7927 H         1 UNK         0.3000 
    155 H155        0.2636  -17.2643  -48.9507 H         1 UNK         0.0600 
    156 H156       -1.7601  -15.2664  -50.0736 H         1 UNK         0.0600 
    157 H157       -0.9815  -16.5890  -50.9485 H         1 UNK         0.0600 
    158 H158       -0.0215  -15.2405  -50.3741 H         1 UNK         0.0600 
    159 H159       -0.4771  -14.6969  -47.9696 H         1 UNK         0.3000 
    160 H160        1.4966  -14.8605  -45.3111 H         1 UNK         0.0600 
    161 H161       -0.9451  -13.3156  -46.3710 H         1 UNK         0.0600 
    162 H162        0.6984  -13.2087  -47.0021 H         1 UNK         0.0600 
    163 H163        0.3501  -12.6593  -45.3776 H         1 UNK         0.0600 
    164 H164        0.3138  -15.2038  -43.4910 H         1 UNK         0.3000 
    165 H165       -3.1322  -15.0655  -42.6769 H         1 UNK         0.0600 
    166 H166       -1.2623  -17.4605  -42.3386 H         1 UNK         0.0600 
    167 H167       -2.7961  -17.1827  -41.5238 H         1 UNK         0.0600 
    168 H168       -2.7680  -17.5219  -43.2457 H         1 UNK         0.0600 
    169 H169       -0.7203  -15.4999  -41.1495 H         1 UNK         0.3000 
    170 H170        0.1077  -12.1585  -40.5639 H         1 UNK         0.0600 
    171 H171       -1.5405  -13.8820  -38.6352 H         1 UNK         0.0600 
    172 H172       -1.9085  -12.2255  -39.0997 H         1 UNK         0.0600 
    173 H173       -0.4539  -12.5693  -38.1782 H         1 UNK         0.0600 
    174 H174        0.6997  -14.6760  -39.2520 H         1 UNK         0.3000 
    175 H175        3.5519  -14.8839  -39.8046 H         1 UNK         0.0600 
    176 H176        2.9364  -17.3459  -39.6934 H         1 UNK         0.0600 
    177 H177        1.7925  -16.3092  -38.8692 H         1 UNK         0.0600 
    178 H178        1.3940  -16.9690  -40.4525 H         1 UNK         0.0600 
    179 H179        4.6210  -15.4270  -41.6627 H         1 UNK         0.3000 
    180 H180        5.1314  -16.9030  -43.5131 H         1 UNK         0.0600 
    181 H181        2.9714  -16.7448  -45.6741 H         1 UNK         0.0600 
    182 H182        3.4137  -18.2115  -44.8100 H         1 UNK         0.0600 
    183 H183        4.5883  -17.4119  -45.8442 H         1 UNK         0.0600 
    184 H184        4.0946  -14.6771  -45.1667 H         1 UNK         0.3000 
    185 H185        4.9129  -12.2199  -43.9472 H         1 UNK         0.0600 
    186 H186        7.1247  -11.1819  -44.4300 H         1 UNK         0.0600 
    187 H187        7.1834  -12.1505  -42.9706 H         1 UNK         0.0600 
    188 H188        7.8771  -12.7772  -44.4619 H         1 UNK         0.0600 
    189 H189        6.3537  -12.5693  -46.3992 H         1 UNK         0.3000 
    190 H190       -2.0313  -21.0457  -48.1239 H         1 UNK         0.3000 
    191 H191       -3.3311  -22.9571  -49.8077 H         1 UNK         0.0600 
    192 H192       -3.9088  -20.4472  -49.5459 H         1 UNK         0.0600 
    193 H193       -5.2602  -21.5632  -49.6341 H         1 UNK         0.0600 
    194 H194       -4.7824  -20.8929  -48.0851 H         1 UNK         0.0600 
    195 H195       -3.5284  -22.3022  -46.2720 H         1 UNK         0.3000 
    196 H196       -5.4042  -24.3181  -45.6325 H         1 UNK         0.0600 
    197 H197       -4.5447  -24.0305  -43.3108 H         1 UNK         0.0600 
    198 H198       -4.7960  -22.4749  -44.0893 H         1 UNK         0.0600 
    199 H199       -3.1665  -23.1193  -43.9138 H         1 UNK         0.0600 
    200 H200       -1.8308  -24.4503  -45.8343 H         1 UNK         0.3000 
    201 H201       -1.5162  -27.1763  -45.0736 H         1 UNK         0.0600 
    202 H202        0.3429  -25.5069  -45.1165 H         1 UNK         0.0600 
    203 H203        0.2620  -25.4509  -46.8766 H         1 UNK         0.0600 
    204 H204        0.7391  -26.9338  -46.0637 H         1 UNK         0.0600 
    205 H205       -2.1194  -25.6605  -48.2524 H         1 UNK         0.3000 
    206 H206       -2.0403  -28.1390  -49.7568 H         1 UNK         0.0600 
    207 H207       -1.4287  -25.9314  -50.7493 H         1 UNK         0.0600 
    208 H208       -2.7653  -26.6601  -51.6224 H         1 UNK         0.0600 
    209 H209       -3.0710  -25.3461  -50.4949 H         1 UNK         0.0600 
    210 H210       -4.3361  -27.0243  -47.5888 H         1 UNK         0.3000 
    211 H211       -6.4645  -27.3678  -47.1201 H         1 UNK         0.0600 
    212 H212       -6.3671  -29.7512  -49.0453 H         1 UNK         0.0600 
    213 H213       -7.5416  -29.4889  -47.7639 H         1 UNK         0.0600 
    214 H214       -5.8595  -29.7858  -47.3571 H         1 UNK         0.0600 
    215 H215       -5.9197  -25.4148  -48.9577 H         1 UNK         0.3000 
    216 H216       -6.8000  -23.8955  -50.2368 H         1 UNK         0.0600 
    217 H217       -8.8364  -24.1488  -48.7995 H         1 UNK         0.0600 
    218 H218       -9.5156  -25.2817  -49.9683 H         1 UNK         0.0600 
    219 H219       -9.2290  -23.6092  -50.4224 H         1 UNK         0.0600 
    220 H220       -5.9949  -26.6818  -51.4379 H         1 UNK         0.3000 
    221 H221       -7.2761  -26.6625  -54.0463 H         1 UNK         0.0600 
    222 H222       -4.7616  -28.1314  -53.1025 H         1 UNK         0.0600 
    223 H223       -6.4063  -28.7434  -52.9196 H         1 UNK         0.0600 
    224 H224       -5.7272  -28.5030  -54.5225 H         1 UNK         0.0600 
    225 H225       -4.8085  -24.7141  -52.6793 H         1 UNK         0.3000 
    226 H226       -4.0487  -23.5626  -55.2185 H         1 UNK         0.0600 
    227 H227       -2.4159  -25.4898  -55.0449 H         1 UNK         0.0600 
    228 H228       -1.5924  -23.9517  -54.8740 H         1 UNK         0.0600 
    229 H229       -1.9258  -24.9271  -53.4487 H         1 UNK         0.0600 
    230 H230       -2.4309  -21.7663  -54.7373 H         1 UNK         0.3000 
    231 H231       -1.8805  -19.8451  -53.8512 H         1 UNK         0.0600 
    232 H232       -1.1959  -19.7344  -51.5058 H         1 UNK         0.0600 
    233 H233       -0.7293  -21.2869  -52.1689 H         1 UNK         0.0600 
    234 H234       -2.1267  -21.1761  -51.1099 H         1 UNK         0.0600 
    235 H235       -3.0378  -19.0763  -50.9964 H         1 UNK         0.3000 
    236 H236       -4.5160  -17.6570  -50.2039 H         1 UNK         0.0600 
    237 H237       -6.9043  -17.8432  -50.7115 H         1 UNK         0.0600 
    238 H238       -6.5835  -18.7627  -52.1727 H         1 UNK         0.0600 
    239 H239       -6.2177  -19.4541  -50.5938 H         1 UNK         0.0600 
    240 H240       -2.6915  -16.7935  -52.0269 H         1 UNK         0.3000 
    241 H241       -3.7343  -15.1716  -54.0995 H         1 UNK         0.0600 
    242 H242       -3.9701  -14.3177  -50.8280 H         1 UNK         0.3800 
    243 H243       -3.9227  -12.5887  -51.0486 H         1 UNK         0.3800 
    244 H244       -1.4021  -14.4960  -54.4837 H         1 UNK         0.0800 
    245 H245       -0.9213  -15.0835  -52.9125 H         1 UNK         0.0800 
    246 H246        0.8144  -17.6609  -55.3066 H         1 UNK         0.0800 
    247 H247        0.8328  -15.9345  -55.0720 H         1 UNK         0.0800 
@<TRIPOS>BOND
     1    1    2 1    
     2    1  127 1    
     3    1  128 1    
     4    1  129 1    
     5    2    3 2    
     6    2    4 am   BACKBONE|DICT|INTERRES
     7    4    5 1    
     8    4  130 1    
     9    5    6 1    
    10    5   65 1    
    11    5  131 1    
    12    6    7 1    
    13    6  132 1    
    14    6  133 1    
    15    7    8 1    
    16    8    9 1    
    17    8  134 1    
    18    8  135 1    
    19    9   10 ar   
    20    9   14 ar   
    21   10   11 ar   
    22   10  136 1    
    23   11   12 ar   
    24   11  126 1    
    25   12   13 ar   
    26   12  137 1    
    27   13   14 ar   
    28   13   15 1    
    29   14  138 1    
    30   15   16 1    
    31   15  139 1    
    32   15  140 1    
    33   16   17 1    
    34   17   18 1    
    35   17  141 1    
    36   17  142 1    
    37   18   19 1    
    38   18   67 1    
    39   18  143 1    
    40   19   20 am   BACKBONE|DICT|INTERRES
    41   19  144 1    
    42   20   21 2    
    43   20   22 1    
    44   22   23 1    
    45   22   24 1    
    46   22  145 1    
    47   23  146 1    
    48   23  147 1    
    49   23  148 1    
    50   24   25 am   BACKBONE|DICT|INTERRES
    51   24  149 1    
    52   25   26 2    
    53   25   27 1    
    54   27   28 1    
    55   27   29 1    
    56   27  150 1    
    57   28  151 1    
    58   28  152 1    
    59   28  153 1    
    60   29   30 am   BACKBONE|DICT|INTERRES
    61   29  154 1    
    62   30   31 2    
    63   30   32 1    
    64   32   33 1    
    65   32   34 1    
    66   32  155 1    
    67   33  156 1    
    68   33  157 1    
    69   33  158 1    
    70   34   35 am   BACKBONE|DICT|INTERRES
    71   34  159 1    
    72   35   36 2    
    73   35   37 1    
    74   37   38 1    
    75   37   39 1    
    76   37  160 1    
    77   38  161 1    
    78   38  162 1    
    79   38  163 1    
    80   39   40 am   BACKBONE|DICT|INTERRES
    81   39  164 1    
    82   40   41 2    
    83   40   42 1    
    84   42   43 1    
    85   42   44 1    
    86   42  165 1    
    87   43  166 1    
    88   43  167 1    
    89   43  168 1    
    90   44   45 am   BACKBONE|DICT|INTERRES
    91   44  169 1    
    92   45   46 2    
    93   45   47 1    
    94   47   48 1    
    95   47   49 1    
    96   47  170 1    
    97   48  171 1    
    98   48  172 1    
    99   48  173 1    
   100   49   50 am   BACKBONE|DICT|INTERRES
   101   49  174 1    
   102   50   51 2    
   103   50   52 1    
   104   52   53 1    
   105   52   54 1    
   106   52  175 1    
   107   53  176 1    
   108   53  177 1    
   109   53  178 1    
   110   54   55 am   BACKBONE|DICT|INTERRES
   111   54  179 1    
   112   55   56 2    
   113   55   57 1    
   114   57   58 1    
   115   57   59 1    
   116   57  180 1    
   117   58  181 1    
   118   58  182 1    
   119   58  183 1    
   120   59   60 am   BACKBONE|DICT|INTERRES
   121   59  184 1    
   122   60   61 2    
   123   60   62 1    
   124   62   63 1    
   125   62   64 1    
   126   62  185 1    
   127   63  186 1    
   128   63  187 1    
   129   63  188 1    
   130   64   65 am   BACKBONE|DICT|INTERRES
   131   64  189 1    
   132   65   66 2    
   133   67   68 2    
   134   67   69 am   BACKBONE|DICT|INTERRES
   135   69   70 1    
   136   69  190 1    
   137   70   71 1    
   138   70   72 1    
   139   70  191 1    
   140   71  192 1    
   141   71  193 1    
   142   71  194 1    
   143   72   73 2    
   144   72   74 am   BACKBONE|DICT|INTERRES
   145   74   75 1    
   146   74  195 1    
   147   75   76 1    
   148   75   77 1    
   149   75  196 1    
   150   76  197 1    
   151   76  198 1    
   152   76  199 1    
   153   77   78 2    
   154   77   79 am   BACKBONE|DICT|INTERRES
   155   79   80 1    
   156   79  200 1    
   157   80   81 1    
   158   80   82 1    
   159   80  201 1    
   160   81  202 1    
   161   81  203 1    
   162   81  204 1    
   163   82   83 2    
   164   82   84 am   BACKBONE|DICT|INTERRES
   165   84   85 1    
   166   84  205 1    
   167   85   86 1    
   168   85   87 1    
   169   85  206 1    
   170   86  207 1    
   171   86  208 1    
   172   86  209 1    
   173   87   88 2    
   174   87   89 am   BACKBONE|DICT|INTERRES
   175   89   90 1    
   176   89  210 1    
   177   90   91 1    
   178   90   92 1    
   179   90  211 1    
   180   91  212 1    
   181   91  213 1    
   182   91  214 1    
   183   92   93 2    
   184   92   94 am   BACKBONE|DICT|INTERRES
   185   94   95 1    
   186   94  215 1    
   187   95   96 1    
   188   95   97 1    
   189   95  216 1    
   190   96  217 1    
   191   96  218 1    
   192   96  219 1    
   193   97   98 2    
   194   97   99 am   BACKBONE|DICT|INTERRES
   195   99  100 1    
   196   99  220 1    
   197  100  101 1    
   198  100  102 1    
   199  100  221 1    
   200  101  222 1    
   201  101  223 1    
   202  101  224 1    
   203  102  103 2    
   204  102  104 am   BACKBONE|DICT|INTERRES
   205  104  105 1    
   206  104  225 1    
   207  105  106 1    
   208  105  107 1    
   209  105  226 1    
   210  106  227 1    
   211  106  228 1    
   212  106  229 1    
   213  107  108 2    
   214  107  109 am   BACKBONE|DICT|INTERRES
   215  109  110 1    
   216  109  230 1    
   217  110  111 1    
   218  110  112 1    
   219  110  231 1    
   220  111  232 1    
   221  111  233 1    
   222  111  234 1    
   223  112  113 2    
   224  112  114 am   BACKBONE|DICT|INTERRES
   225  114  115 1    
   226  114  235 1    
   227  115  116 1    
   228  115  117 1    
   229  115  236 1    
   230  116  237 1    
   231  116  238 1    
   232  116  239 1    
   233  117  118 2    
   234  117  119 am   BACKBONE|DICT|INTERRES
   235  119  120 1    
   236  119  240 1    
   237  120  121 1    
   238  120  124 1    
   239  120  241 1    
   240  121  122 am   BACKBONE|DICT|INTERRES
   241  121  123 2    
   242  122  242 1    
   243  122  243 1    
   244  124  125 1    
   245  124  244 1    
   246  124  245 1    
   247  125  126 1    
   248  126  246 1    
   249  126  247 1    
@<TRIPOS>SUBSTRUCTURE
     1 UNK         1 GROUP             0       ****    0 ROOT    
