@<TRIPOS>MOLECULE
3R540
247   249    1
SMALL
USER_CHARGES


@<TRIPOS>ATOM
      1 CA         -2.1043  -13.9745  -47.4785 C.3       0 UNK        -0.1800 
      2 C          -0.8579  -13.2344  -47.9373 C.2       0 UNK         0.5000 
      3 O          -0.7921  -12.0117  -47.8092 O.2       0 UNK        -0.5000 
      4 N           0.1257  -13.9658  -48.4745 N.am      1 UNK        -0.5000 
      5 CA          1.4362  -13.4380  -48.8619 C.3       1 UNK         0.1400 
      6 C6          2.1759  -14.3726  -49.8543 C.3       23 UNK        -0.0398 
      7 S7          2.4807  -16.0686  -49.2379 S.3       23 UNK        -0.2404 
      8 C8          1.5108  -17.0773  -50.4027 C.3       23 UNK        -0.0205 
      9 C9          0.0133  -16.8961  -50.2104 C.ar      23 UNK        -0.0193 
     10 C10        -0.7551  -16.2404  -51.1767 C.ar      23 UNK        -0.1150 
     11 C11        -2.1345  -16.0903  -51.0039 C.ar      23 UNK        -0.0193 
     12 C12        -2.7441  -16.6051  -49.8567 C.ar      23 UNK        -0.1150 
     13 C13        -1.9867  -17.2676  -48.8883 C.ar      23 UNK        -0.0193 
     14 C14        -0.6074  -17.4013  -49.0660 C.ar      23 UNK        -0.1150 
     15 C15        -2.6600  -17.8240  -47.6451 C.3       23 UNK        -0.0205 
     16 S16        -3.3617  -19.4715  -47.9409 S.3       23 UNK        -0.2404 
     17 C17        -1.8530  -20.4965  -48.0950 C.3       23 UNK        -0.0398 
     18 CA         -1.8651  -21.7802  -47.2331 C.3       11 UNK         0.1400 
     19 N          -1.8958  -21.5010  -45.7900 N.am      11 UNK        -0.5000 
     20 C          -1.9204  -22.4149  -44.8067 C.2       10 UNK         0.5000 
     21 O          -1.9828  -23.6291  -45.0107 O.2       10 UNK        -0.5000 
     22 CA         -1.8645  -21.9172  -43.3506 C.3       10 UNK         0.1400 
     23 CB         -0.5594  -22.3796  -42.6832 C.3       10 UNK        -0.1800 
     24 N          -1.9918  -20.4669  -43.1864 N.am      10 UNK        -0.5000 
     25 C          -3.1265  -19.7688  -43.3351 C.2       9 UNK         0.5000 
     26 O          -4.1796  -20.2653  -43.7354 O.2       9 UNK        -0.5000 
     27 CA         -3.0826  -18.2730  -42.9778 C.3       9 UNK         0.1400 
     28 CB         -3.2809  -18.0791  -41.4664 C.3       9 UNK        -0.1800 
     29 N          -1.8136  -17.6602  -43.3730 N.am      9 UNK        -0.5000 
     30 C          -1.6870  -16.6516  -44.2467 C.2       8 UNK         0.5000 
     31 O          -2.6444  -16.0843  -44.7722 O.2       8 UNK        -0.5000 
     32 CA         -0.2590  -16.1901  -44.6126 C.3       8 UNK         0.1400 
     33 CB          0.0627  -14.8541  -43.9256 C.3       8 UNK        -0.1800 
     34 N           0.7823  -17.1605  -44.2724 N.am      8 UNK        -0.5000 
     35 C           0.9423  -18.3566  -44.8587 C.2       7 UNK         0.5000 
     36 O           0.2508  -18.7578  -45.7928 O.2       7 UNK        -0.5000 
     37 CA          2.0177  -19.2921  -44.2719 C.3       7 UNK         0.1400 
     38 CB          3.3150  -19.1863  -45.0872 C.3       7 UNK        -0.1800 
     39 N           2.3237  -19.0530  -42.8583 N.am      7 UNK        -0.5000 
     40 C           1.4456  -19.0589  -41.8441 C.2       6 UNK         0.5000 
     41 O           0.2438  -19.2865  -41.9834 O.2       6 UNK        -0.5000 
     42 CA          1.9894  -18.6946  -40.4504 C.3       6 UNK         0.1400 
     43 CB          2.3134  -19.9683  -39.6560 C.3       6 UNK        -0.1800 
     44 N           3.1743  -17.8299  -40.4852 N.am      6 UNK        -0.5000 
     45 C           3.2026  -16.5876  -40.9874 C.2       5 UNK         0.5000 
     46 O           2.2349  -16.0413  -41.5232 O.2       5 UNK        -0.5000 
     47 CA          4.5587  -15.8624  -40.9321 C.3       5 UNK         0.1400 
     48 CB          5.3098  -16.0434  -42.2606 C.3       5 UNK        -0.1800 
     49 N           4.4078  -14.4334  -40.6693 N.am      5 UNK        -0.5000 
     50 C           3.9320  -13.8879  -39.5449 C.2       4 UNK         0.5000 
     51 O           3.6099  -14.5475  -38.5554 O.2       4 UNK        -0.5000 
     52 CA          3.7877  -12.3510  -39.5001 C.3       4 UNK         0.1400 
     53 CB          5.0723  -11.6958  -38.9571 C.3       4 UNK        -0.1800 
     54 N           3.3548  -11.7091  -40.7530 N.am      4 UNK        -0.5000 
     55 C           4.0001  -11.6185  -41.9237 C.2       3 UNK         0.5000 
     56 O           5.0958  -12.1388  -42.1552 O.2       3 UNK        -0.5000 
     57 CA          3.3030  -10.8045  -43.0220 C.3       3 UNK         0.1400 
     58 CB          3.4937   -9.2934  -42.7935 C.3       3 UNK        -0.1800 
     59 N           3.8717  -11.1949  -44.3061 N.am      3 UNK        -0.5000 
     60 C           3.3077  -11.0242  -45.5048 C.2       2 UNK         0.5000 
     61 O           2.2374  -10.4346  -45.6723 O.2       2 UNK        -0.5000 
     62 CA          4.0736  -11.5764  -46.7299 C.3       2 UNK         0.1400 
     63 CB          5.1628  -12.6176  -46.3794 C.3       2 UNK        -0.1800 
     64 N           3.1703  -12.1027  -47.7598 N.am      2 UNK        -0.5000 
     65 C           2.2963  -13.1108  -47.6203 C.2       1 UNK         0.5000 
     66 O           2.1694  -13.7773  -46.5897 O.2       1 UNK        -0.5000 
     67 C          -2.9545  -22.7522  -47.7260 C.2       11 UNK         0.5000 
     68 O          -2.6941  -23.5113  -48.6583 O.2       11 UNK        -0.5000 
     69 N          -4.1307  -22.7410  -47.0835 N.am      12 UNK        -0.5000 
     70 CA         -5.2577  -23.6337  -47.3598 C.3       12 UNK         0.1400 
     71 CB         -6.4299  -23.2563  -46.4430 C.3       12 UNK        -0.1800 
     72 C          -4.9139  -25.1290  -47.2126 C.2       12 UNK         0.5000 
     73 O          -5.4648  -25.9477  -47.9486 O.2       12 UNK        -0.5000 
     74 N          -3.9939  -25.4465  -46.2930 N.am      13 UNK        -0.5000 
     75 CA         -3.4613  -26.7888  -46.0785 C.3       13 UNK         0.1400 
     76 CB         -3.4127  -27.0722  -44.5687 C.3       13 UNK        -0.1800 
     77 C          -2.0608  -26.9326  -46.6954 C.2       13 UNK         0.5000 
     78 O          -1.7767  -27.9542  -47.3207 O.2       13 UNK        -0.5000 
     79 N          -1.2069  -25.9178  -46.5005 N.am      14 UNK        -0.5000 
     80 CA          0.2137  -25.9526  -46.8509 C.3       14 UNK         0.1400 
     81 CB          0.9405  -24.8267  -46.0978 C.3       14 UNK        -0.1800 
     82 C           0.5018  -25.8590  -48.3603 C.2       14 UNK         0.5000 
     83 O           1.5221  -26.3874  -48.8044 O.2       14 UNK        -0.5000 
     84 N          -0.3717  -25.1805  -49.1147 N.am      15 UNK        -0.5000 
     85 CA         -0.1840  -24.8856  -50.5376 C.3       15 UNK         0.1400 
     86 CB          0.3460  -23.4457  -50.6744 C.3       15 UNK        -0.1800 
     87 C          -1.4704  -25.0889  -51.3578 C.2       15 UNK         0.5000 
     88 O          -1.5156  -24.6609  -52.5118 O.2       15 UNK        -0.5000 
     89 N          -2.5055  -25.6926  -50.7530 N.am      16 UNK        -0.5000 
     90 CA         -3.8527  -25.8902  -51.3047 C.3       16 UNK         0.1400 
     91 CB         -3.8235  -26.9458  -52.4298 C.3       16 UNK        -0.1800 
     92 C          -4.5189  -24.5660  -51.7430 C.2       16 UNK         0.5000 
     93 O          -5.1135  -24.4989  -52.8187 O.2       16 UNK        -0.5000 
     94 N          -4.3559  -23.5220  -50.9168 N.am      17 UNK        -0.5000 
     95 CA         -4.7741  -22.1330  -51.1424 C.3       17 UNK         0.1400 
     96 CB         -6.3109  -22.0122  -51.1895 C.3       17 UNK        -0.1800 
     97 C          -4.0739  -21.5165  -52.3698 C.2       17 UNK         0.5000 
     98 O          -4.7233  -20.8919  -53.2099 O.2       17 UNK        -0.5000 
     99 N          -2.7541  -21.7457  -52.4525 N.am      18 UNK        -0.5000 
    100 CA        -1.8538  -21.3691  -53.5474 C.3       18 UNK         0.1400 
    101 CB        -1.7164  -19.8346  -53.6364 C.3       18 UNK        -0.1800 
    102 C         -2.2786  -22.0211  -54.8791 C.2       18 UNK         0.5000 
    103 O         -2.4460  -21.3303  -55.8839 O.2       18 UNK        -0.5000 
    104 N         -2.4962  -23.3446  -54.8403 N.am      19 UNK        -0.5000 
    105 CA        -3.0473  -24.1790  -55.9159 C.3       19 UNK         0.1400 
    106 CB        -2.0256  -24.3334  -57.0612 C.3       19 UNK        -0.1800 
    107 C         -4.4266  -23.6727  -56.3941 C.2       19 UNK         0.5000 
    108 O         -4.6656  -23.5389  -57.5952 O.2       19 UNK        -0.5000 
    109 N         -5.2865  -23.3582  -55.4163 N.am      20 UNK        -0.5000 
    110 CA        -6.6305  -22.7833  -55.5109 C.3       20 UNK         0.1400 
    111 CB        -7.5739  -23.7116  -56.3023 C.3       20 UNK        -0.1800 
    112 C         -6.7001  -21.3267  -56.0195 C.2       20 UNK         0.5000 
    113 O         -7.8009  -20.7738  -56.0593 O.2       20 UNK        -0.5000 
    114 N         -5.5647  -20.7018  -56.3685 N.am      21 UNK        -0.5000 
    115 CA        -5.5041  -19.3356  -56.9005 C.3       21 UNK         0.1400 
    116 CB        -4.1001  -19.0573  -57.4566 C.3       21 UNK        -0.1800 
    117 C         -5.8960  -18.2542  -55.8759 C.2       21 UNK         0.5000 
    118 O         -6.3918  -17.1993  -56.2750 O.2       21 UNK        -0.5000 
    119 N         -5.6859  -18.5421  -54.5874 N.am      22 UNK        -0.5000 
    120 CA        -6.0645  -17.6954  -53.4475 C.3       22 UNK         0.1400 
    121 C         -7.2976  -18.2556  -52.6773 C.2       22 UNK         0.5000 
    122 N         -8.0299  -19.2311  -53.2050 N.am      22 UNK        -0.7600 
    123 O         -7.6174  -17.7831  -51.5900 O.2       22 UNK        -0.5000 
    124 C124       -4.8528  -17.4340  -52.5145 C.3       23 UNK        -0.0398 
    125 S125       -3.5206  -16.5109  -53.3606 S.3       23 UNK        -0.2404 
    126 C126       -2.9628  -15.3710  -52.0567 C.3       23 UNK        -0.0205 
    127 H127       -1.8832  -15.0162  -47.2548 H         1 UNK         0.0600 
    128 H128       -2.8721  -13.9399  -48.2513 H         1 UNK         0.0600 
    129 H129       -2.5058  -13.5204  -46.5724 H         1 UNK         0.0600 
    130 H130        0.0265  -14.9686  -48.5513 H         1 UNK         0.3000 
    131 H131        1.2592  -12.4969  -49.3876 H         1 UNK         0.0600 
    132 H132        3.1379  -13.9396  -50.1335 H         1 UNK         0.0800 
    133 H133        1.6086  -14.4243  -50.7840 H         1 UNK         0.0800 
    134 H134        1.7621  -18.1278  -50.2496 H         1 UNK         0.0800 
    135 H135        1.8071  -16.8402  -51.4257 H         1 UNK         0.0800 
    136 H136       -0.2831  -15.8501  -52.0673 H         1 UNK         0.1150 
    137 H137       -3.8096  -16.4941  -49.7150 H         1 UNK         0.1150 
    138 H138       -0.0101  -17.8990  -48.3152 H         1 UNK         0.1150 
    139 H139       -1.9533  -17.8762  -46.8196 H         1 UNK         0.0800 
    140 H140       -3.4562  -17.1510  -47.3234 H         1 UNK         0.0800 
    141 H141       -1.7157  -20.7417  -49.1498 H         1 UNK         0.0800 
    142 H142       -0.9788  -19.9087  -47.8221 H         1 UNK         0.0800 
    143 H143       -0.9152  -22.2864  -47.4130 H         1 UNK         0.0600 
    144 H144       -1.8425  -20.5272  -45.5270 H         1 UNK         0.3000 
    145 H145       -2.6963  -22.3893  -42.8239 H         1 UNK         0.0600 
    146 H146       -0.5304  -22.0933  -41.6316 H         1 UNK         0.0600 
    147 H147        0.3157  -21.9505  -43.1711 H         1 UNK         0.0600 
    148 H148       -0.4582  -23.4650  -42.7251 H         1 UNK         0.0600 
    149 H149       -1.1734  -19.9976  -42.8053 H         1 UNK         0.3000 
    150 H150       -3.9192  -17.7964  -43.4928 H         1 UNK         0.0600 
    151 H151       -4.2158  -18.5313  -41.1326 H         1 UNK         0.0600 
    152 H152       -3.3214  -17.0206  -41.2091 H         1 UNK         0.0600 
    153 H153       -2.4714  -18.5320  -40.8921 H         1 UNK         0.0600 
    154 H154       -0.9739  -18.0694  -42.9784 H         1 UNK         0.3000 
    155 H155       -0.2281  -16.0345  -45.6930 H         1 UNK         0.0600 
    156 H156       -0.6421  -14.0792  -44.2299 H         1 UNK         0.0600 
    157 H157        1.0613  -14.5038  -44.1873 H         1 UNK         0.0600 
    158 H158        0.0125  -14.9387  -42.8394 H         1 UNK         0.0600 
    159 H159        1.3803  -16.9173  -43.4923 H         1 UNK         0.3000 
    160 H160        1.6405  -20.3123  -44.3596 H         1 UNK         0.0600 
    161 H161        3.7590  -18.1930  -45.0079 H         1 UNK         0.0600 
    162 H162        3.1291  -19.3788  -46.1449 H         1 UNK         0.0600 
    163 H163        4.0540  -19.9138  -44.7512 H         1 UNK         0.0600 
    164 H164        3.2868  -18.8465  -42.6396 H         1 UNK         0.3000 
    165 H165        1.1985  -18.1549  -39.9254 H         1 UNK         0.0600 
    166 H166        2.6115  -19.7316  -38.6345 H         1 UNK         0.0600 
    167 H167        1.4425  -20.6228  -39.5951 H         1 UNK         0.0600 
    168 H168        3.1200  -20.5380  -40.1192 H         1 UNK         0.0600 
    169 H169        4.0152  -18.2094  -40.0739 H         1 UNK         0.3000 
    170 H170        5.1591  -16.2911  -40.1271 H         1 UNK         0.0600 
    171 H171        4.7558  -15.6140  -43.0969 H         1 UNK         0.0600 
    172 H172        6.2891  -15.5652  -42.2283 H         1 UNK         0.0600 
    173 H173        5.4717  -17.0993  -42.4807 H         1 UNK         0.0600 
    174 H174        4.6713  -13.7964  -41.4151 H         1 UNK         0.3000 
    175 H175        2.9929  -12.1433  -38.7819 H         1 UNK         0.0600 
    176 H176        5.9276  -11.8710  -39.6102 H         1 UNK         0.0600 
    177 H177        4.9493  -10.6184  -38.8464 H         1 UNK         0.0600 
    178 H178        5.3274  -12.0959  -37.9750 H         1 UNK         0.0600 
    179 H179        2.4461  -11.2703  -40.6953 H         1 UNK         0.3000 
    180 H180        2.2388  -11.0501  -43.0125 H         1 UNK         0.0600 
    181 H181        3.0901   -8.9873  -41.8276 H         1 UNK         0.0600 
    182 H182        2.9810   -8.7072  -43.5561 H         1 UNK         0.0600 
    183 H183        4.5485   -9.0162  -42.8118 H         1 UNK         0.0600 
    184 H184        4.7392  -11.7116  -44.2248 H         1 UNK         0.3000 
    185 H185        4.5749  -10.7182  -47.1793 H         1 UNK         0.0600 
    186 H186        4.7545  -13.4685  -45.8325 H         1 UNK         0.0600 
    187 H187        5.6388  -13.0032  -47.2810 H         1 UNK         0.0600 
    188 H188        5.9523  -12.1776  -45.7692 H         1 UNK         0.0600 
    189 H189        3.1785  -11.5936  -48.6324 H         1 UNK         0.3000 
    190 H190       -4.2522  -22.0772  -46.3315 H         1 UNK         0.3000 
    191 H191       -5.5686  -23.4684  -48.3918 H         1 UNK         0.0600 
    192 H192       -6.7406  -22.2240  -46.6054 H         1 UNK         0.0600 
    193 H193       -6.1683  -23.3668  -45.3898 H         1 UNK         0.0600 
    194 H194       -7.2970  -23.8897  -46.6354 H         1 UNK         0.0600 
    195 H195       -3.5583  -24.6992  -45.7640 H         1 UNK         0.3000 
    196 H196       -4.1093  -27.5372  -46.5396 H         1 UNK         0.0600 
    197 H197       -4.4098  -27.0305  -44.1301 H         1 UNK         0.0600 
    198 H198       -2.7857  -26.3521  -44.0409 H         1 UNK         0.0600 
    199 H199       -3.0113  -28.0668  -44.3701 H         1 UNK         0.0600 
    200 H200       -1.5141  -25.1125  -45.9603 H         1 UNK         0.3000 
    201 H201        0.6210  -26.9040  -46.5017 H         1 UNK         0.0600 
    202 H202        0.7988  -24.9164  -45.0205 H         1 UNK         0.0600 
    203 H203        0.5837  -23.8425  -46.4003 H         1 UNK         0.0600 
    204 H204        2.0141  -24.8584  -46.2878 H         1 UNK         0.0600 
    205 H205       -1.1856  -24.7569  -48.6806 H         1 UNK         0.3000 
    206 H206        0.5518  -25.5655  -50.9714 H         1 UNK         0.0600 
    207 H207        1.2745  -23.3142  -50.1186 H         1 UNK         0.0600 
    208 H208       -0.3730  -22.7166  -50.2997 H         1 UNK         0.0600 
    209 H209        0.5588  -23.1982  -51.7150 H         1 UNK         0.0600 
    210 H210       -2.3708  -26.0084  -49.8038 H         1 UNK         0.3000 
    211 H211       -4.4662  -26.2870  -50.4952 H         1 UNK         0.0600 
    212 H212       -3.2577  -26.6013  -53.2958 H         1 UNK         0.0600 
    213 H213       -4.8321  -27.1817  -52.7712 H         1 UNK         0.0600 
    214 H214       -3.3732  -27.8762  -52.0844 H         1 UNK         0.0600 
    215 H215       -3.7911  -23.6718  -50.0832 H         1 UNK         0.3000 
    216 H216       -4.4299  -21.5624  -50.2787 H         1 UNK         0.0600 
    217 H217       -6.6151  -20.9660  -51.2302 H         1 UNK         0.0600 
    218 H218       -6.7700  -22.4473  -50.3025 H         1 UNK         0.0600 
    219 H219       -6.7338  -22.5081  -52.0628 H         1 UNK         0.0600 
    220 H220       -2.3411  -22.3299  -51.7411 H         1 UNK         0.3000 
    221 H221       -0.8726  -21.7766  -53.3006 H         1 UNK         0.0600 
    222 H222       -2.6463  -19.3634  -53.9550 H         1 UNK         0.0600 
    223 H223       -1.4358  -19.4029  -52.6753 H         1 UNK         0.0600 
    224 H224       -0.9482  -19.5537  -54.3573 H         1 UNK         0.0600 
    225 H225       -2.2947  -23.8300  -53.9678 H         1 UNK         0.3000 
    226 H226       -3.2147  -25.1669  -55.4845 H         1 UNK         0.0600 
    227 H227       -1.0736  -24.7127  -56.6900 H         1 UNK         0.0600 
    228 H228       -2.3851  -25.0380  -57.8120 H         1 UNK         0.0600 
    229 H229       -1.8352  -23.3860  -57.5662 H         1 UNK         0.0600 
    230 H230       -4.9948  -23.5555  -54.4618 H         1 UNK         0.3000 
    231 H231       -6.9965  -22.7497  -54.4842 H         1 UNK         0.0600 
    232 H232       -8.6066  -23.3672  -56.2371 H         1 UNK         0.0600 
    233 H233       -7.5476  -24.7280  -55.9092 H         1 UNK         0.0600 
    234 H234       -7.3123  -23.7520  -57.3598 H         1 UNK         0.0600 
    235 H235       -4.6829  -21.1892  -56.2667 H         1 UNK         0.3000 
    236 H236       -6.2117  -19.2750  -57.7299 H         1 UNK         0.0600 
    237 H237       -3.3575  -19.0033  -56.6598 H         1 UNK         0.0600 
    238 H238       -3.7880  -19.8308  -58.1586 H         1 UNK         0.0600 
    239 H239       -4.0752  -18.1046  -57.9867 H         1 UNK         0.0600 
    240 H240       -5.2929  -19.4464  -54.3368 H         1 UNK         0.3000 
    241 H241       -6.3960  -16.7227  -53.8144 H         1 UNK         0.0600 
    242 H242       -8.8325  -19.5731  -52.7014 H         1 UNK         0.3800 
    243 H243       -7.8122  -19.6059  -54.1178 H         1 UNK         0.3800 
    244 H244       -4.4443  -18.3708  -52.1335 H         1 UNK         0.0800 
    245 H245       -5.1699  -16.8616  -51.6424 H         1 UNK         0.0800 
    246 H246       -3.8200  -14.8733  -51.6008 H         1 UNK         0.0800 
    247 H247       -2.3650  -14.5817  -52.5147 H         1 UNK         0.0800 
@<TRIPOS>BOND
     1    1    2 1    
     2    1  127 1    
     3    1  128 1    
     4    1  129 1    
     5    2    3 2    
     6    2    4 am   BACKBONE|DICT|INTERRES
     7    4    5 1    
     8    4  130 1    
     9    5    6 1    
    10    5   65 1    
    11    5  131 1    
    12    6    7 1    
    13    6  132 1    
    14    6  133 1    
    15    7    8 1    
    16    8    9 1    
    17    8  134 1    
    18    8  135 1    
    19    9   10 ar   
    20    9   14 ar   
    21   10   11 ar   
    22   10  136 1    
    23   11   12 ar   
    24   11  126 1    
    25   12   13 ar   
    26   12  137 1    
    27   13   14 ar   
    28   13   15 1    
    29   14  138 1    
    30   15   16 1    
    31   15  139 1    
    32   15  140 1    
    33   16   17 1    
    34   17   18 1    
    35   17  141 1    
    36   17  142 1    
    37   18   19 1    
    38   18   67 1    
    39   18  143 1    
    40   19   20 am   BACKBONE|DICT|INTERRES
    41   19  144 1    
    42   20   21 2    
    43   20   22 1    
    44   22   23 1    
    45   22   24 1    
    46   22  145 1    
    47   23  146 1    
    48   23  147 1    
    49   23  148 1    
    50   24   25 am   BACKBONE|DICT|INTERRES
    51   24  149 1    
    52   25   26 2    
    53   25   27 1    
    54   27   28 1    
    55   27   29 1    
    56   27  150 1    
    57   28  151 1    
    58   28  152 1    
    59   28  153 1    
    60   29   30 am   BACKBONE|DICT|INTERRES
    61   29  154 1    
    62   30   31 2    
    63   30   32 1    
    64   32   33 1    
    65   32   34 1    
    66   32  155 1    
    67   33  156 1    
    68   33  157 1    
    69   33  158 1    
    70   34   35 am   BACKBONE|DICT|INTERRES
    71   34  159 1    
    72   35   36 2    
    73   35   37 1    
    74   37   38 1    
    75   37   39 1    
    76   37  160 1    
    77   38  161 1    
    78   38  162 1    
    79   38  163 1    
    80   39   40 am   BACKBONE|DICT|INTERRES
    81   39  164 1    
    82   40   41 2    
    83   40   42 1    
    84   42   43 1    
    85   42   44 1    
    86   42  165 1    
    87   43  166 1    
    88   43  167 1    
    89   43  168 1    
    90   44   45 am   BACKBONE|DICT|INTERRES
    91   44  169 1    
    92   45   46 2    
    93   45   47 1    
    94   47   48 1    
    95   47   49 1    
    96   47  170 1    
    97   48  171 1    
    98   48  172 1    
    99   48  173 1    
   100   49   50 am   BACKBONE|DICT|INTERRES
   101   49  174 1    
   102   50   51 2    
   103   50   52 1    
   104   52   53 1    
   105   52   54 1    
   106   52  175 1    
   107   53  176 1    
   108   53  177 1    
   109   53  178 1    
   110   54   55 am   BACKBONE|DICT|INTERRES
   111   54  179 1    
   112   55   56 2    
   113   55   57 1    
   114   57   58 1    
   115   57   59 1    
   116   57  180 1    
   117   58  181 1    
   118   58  182 1    
   119   58  183 1    
   120   59   60 am   BACKBONE|DICT|INTERRES
   121   59  184 1    
   122   60   61 2    
   123   60   62 1    
   124   62   63 1    
   125   62   64 1    
   126   62  185 1    
   127   63  186 1    
   128   63  187 1    
   129   63  188 1    
   130   64   65 am   BACKBONE|DICT|INTERRES
   131   64  189 1    
   132   65   66 2    
   133   67   68 2    
   134   67   69 am   BACKBONE|DICT|INTERRES
   135   69   70 1    
   136   69  190 1    
   137   70   71 1    
   138   70   72 1    
   139   70  191 1    
   140   71  192 1    
   141   71  193 1    
   142   71  194 1    
   143   72   73 2    
   144   72   74 am   BACKBONE|DICT|INTERRES
   145   74   75 1    
   146   74  195 1    
   147   75   76 1    
   148   75   77 1    
   149   75  196 1    
   150   76  197 1    
   151   76  198 1    
   152   76  199 1    
   153   77   78 2    
   154   77   79 am   BACKBONE|DICT|INTERRES
   155   79   80 1    
   156   79  200 1    
   157   80   81 1    
   158   80   82 1    
   159   80  201 1    
   160   81  202 1    
   161   81  203 1    
   162   81  204 1    
   163   82   83 2    
   164   82   84 am   BACKBONE|DICT|INTERRES
   165   84   85 1    
   166   84  205 1    
   167   85   86 1    
   168   85   87 1    
   169   85  206 1    
   170   86  207 1    
   171   86  208 1    
   172   86  209 1    
   173   87   88 2    
   174   87   89 am   BACKBONE|DICT|INTERRES
   175   89   90 1    
   176   89  210 1    
   177   90   91 1    
   178   90   92 1    
   179   90  211 1    
   180   91  212 1    
   181   91  213 1    
   182   91  214 1    
   183   92   93 2    
   184   92   94 am   BACKBONE|DICT|INTERRES
   185   94   95 1    
   186   94  215 1    
   187   95   96 1    
   188   95   97 1    
   189   95  216 1    
   190   96  217 1    
   191   96  218 1    
   192   96  219 1    
   193   97   98 2    
   194   97   99 am   BACKBONE|DICT|INTERRES
   195   99  100 1    
   196   99  220 1    
   197  100  101 1    
   198  100  102 1    
   199  100  221 1    
   200  101  222 1    
   201  101  223 1    
   202  101  224 1    
   203  102  103 2    
   204  102  104 am   BACKBONE|DICT|INTERRES
   205  104  105 1    
   206  104  225 1    
   207  105  106 1    
   208  105  107 1    
   209  105  226 1    
   210  106  227 1    
   211  106  228 1    
   212  106  229 1    
   213  107  108 2    
   214  107  109 am   BACKBONE|DICT|INTERRES
   215  109  110 1    
   216  109  230 1    
   217  110  111 1    
   218  110  112 1    
   219  110  231 1    
   220  111  232 1    
   221  111  233 1    
   222  111  234 1    
   223  112  113 2    
   224  112  114 am   BACKBONE|DICT|INTERRES
   225  114  115 1    
   226  114  235 1    
   227  115  116 1    
   228  115  117 1    
   229  115  236 1    
   230  116  237 1    
   231  116  238 1    
   232  116  239 1    
   233  117  118 2    
   234  117  119 am   BACKBONE|DICT|INTERRES
   235  119  120 1    
   236  119  240 1    
   237  120  121 1    
   238  120  124 1    
   239  120  241 1    
   240  121  122 am   BACKBONE|DICT|INTERRES
   241  121  123 2    
   242  122  242 1    
   243  122  243 1    
   244  124  125 1    
   245  124  244 1    
   246  124  245 1    
   247  125  126 1    
   248  126  246 1    
   249  126  247 1    
@<TRIPOS>SUBSTRUCTURE
     1 UNK         1 GROUP             0       ****    0 ROOT    
