@<TRIPOS>MOLECULE
3R540
247   249    1
SMALL
USER_CHARGES


@<TRIPOS>ATOM
      1 CA          8.2542  -11.8404  -48.8786 C.3       0 UNK        -0.1800 
      2 C           7.5717  -13.0565  -48.2680 C.2       0 UNK         0.5000 
      3 O           8.2158  -13.8274  -47.5553 O.2       0 UNK        -0.5000 
      4 N           6.2763  -13.2354  -48.5522 N.am      1 UNK        -0.5000 
      5 CA          5.4398  -14.3184  -48.0216 C.3       1 UNK         0.1400 
      6 C6          4.1309  -14.4993  -48.8314 C.3       23 UNK        -0.0398 
      7 S7          4.4284  -14.7263  -50.6178 S.3       23 UNK        -0.2404 
      8 C8          4.7705  -16.5183  -50.7148 C.3       23 UNK        -0.0205 
      9 C9          3.5690  -17.4374  -50.4918 C.ar      23 UNK        -0.0193 
     10 C10         2.2529  -17.0232  -50.7343 C.ar      23 UNK        -0.1150 
     11 C11         1.1840  -17.9074  -50.5702 C.ar      23 UNK        -0.0193 
     12 C12         1.4327  -19.2215  -50.1691 C.ar      23 UNK        -0.1150 
     13 C13         2.7398  -19.6542  -49.9283 C.ar      23 UNK        -0.0193 
     14 C14         3.7995  -18.7566  -50.0871 C.ar      23 UNK        -0.1150 
     15 C15         3.0125  -21.1024  -49.5452 C.3       23 UNK        -0.0205 
     16 S16         3.3595  -21.3240  -47.7675 S.3       23 UNK        -0.2404 
     17 C17         1.8052  -20.7850  -46.9770 C.3       23 UNK        -0.0398 
     18 CA          0.8028  -21.9310  -46.6942 C.3       11 UNK         0.1400 
     19 N          -0.2086  -21.5386  -45.7087 N.am      11 UNK        -0.5000 
     20 C          -1.1237  -22.3604  -45.1750 C.2       10 UNK         0.5000 
     21 O          -1.1581  -23.5719  -45.3886 O.2       10 UNK        -0.5000 
     22 CA         -2.2143  -21.7166  -44.2976 C.3       10 UNK         0.1400 
     23 CB         -1.7144  -21.5213  -42.8591 C.3       10 UNK        -0.1800 
     24 N          -2.6908  -20.4402  -44.8352 N.am      10 UNK        -0.5000 
     25 C          -3.3347  -20.3027  -46.0042 C.2       9 UNK         0.5000 
     26 O          -3.6528  -21.2543  -46.7169 O.2       9 UNK        -0.5000 
     27 CA         -3.6017  -18.8630  -46.4882 C.3       9 UNK         0.1400 
     28 CB         -4.8315  -18.2541  -45.7989 C.3       9 UNK        -0.1800 
     29 N          -2.4475  -17.9858  -46.2836 N.am      9 UNK        -0.5000 
     30 C          -1.2555  -18.1511  -46.8730 C.2       8 UNK         0.5000 
     31 O          -1.0251  -19.0208  -47.7104 O.2       8 UNK        -0.5000 
     32 CA         -0.1104  -17.2422  -46.3948 C.3       8 UNK         0.1400 
     33 CB         -0.1169  -15.8967  -47.1362 C.3       8 UNK        -0.1800 
     34 N          -0.1699  -17.0260  -44.9482 N.am      8 UNK        -0.5000 
     35 C           0.1497  -17.9551  -44.0365 C.2       7 UNK         0.5000 
     36 O           0.5784  -19.0701  -44.3292 O.2       7 UNK        -0.5000 
     37 CA         -0.1032  -17.6131  -42.5549 C.3       7 UNK         0.1400 
     38 CB          1.1301  -16.9721  -41.9060 C.3       7 UNK        -0.1800 
     39 N          -1.2711  -16.7514  -42.3613 N.am      7 UNK        -0.5000 
     40 C          -2.5322  -17.1706  -42.5329 C.2       6 UNK         0.5000 
     41 O          -2.8259  -18.3226  -42.8501 O.2       6 UNK        -0.5000 
     42 CA         -3.6507  -16.1257  -42.3614 C.3       6 UNK         0.1400 
     43 CB         -4.0617  -16.0177  -40.8856 C.3       6 UNK        -0.1800 
     44 N          -3.3195  -14.7903  -42.8697 N.am      6 UNK        -0.5000 
     45 C          -2.9608  -14.5027  -44.1288 C.2       5 UNK         0.5000 
     46 O          -2.7783  -15.3627  -44.9916 O.2       5 UNK        -0.5000 
     47 CA         -2.7525  -13.0227  -44.4942 C.3       5 UNK         0.1400 
     48 CB         -2.8714  -12.0445  -43.3054 C.3       5 UNK        -0.1800 
     49 N          -1.4421  -12.8798  -45.1165 N.am      5 UNK        -0.5000 
     50 C          -1.1016  -11.9723  -46.0399 C.2       4 UNK         0.5000 
     51 O          -1.8910  -11.1625  -46.5295 O.2       4 UNK        -0.5000 
     52 CA          0.3856  -11.9729  -46.4607 C.3       4 UNK         0.1400 
     53 CB          0.8288  -10.6711  -47.1597 C.3       4 UNK        -0.1800 
     54 N           1.2689  -12.3033  -45.3355 N.am      4 UNK        -0.5000 
     55 C           1.4292  -11.6245  -44.1903 C.2       3 UNK         0.5000 
     56 O           0.9562  -10.5065  -43.9845 O.2       3 UNK        -0.5000 
     57 CA          2.2145  -12.3162  -43.0538 C.3       3 UNK         0.1400 
     58 CB          1.2338  -12.9926  -42.0754 C.3       3 UNK        -0.1800 
     59 N           3.2686  -13.2576  -43.4663 N.am      3 UNK        -0.5000 
     60 C           3.1591  -14.4109  -44.1389 C.2       2 UNK         0.5000 
     61 O           2.0979  -14.8485  -44.5850 O.2       2 UNK        -0.5000 
     62 CA          4.4636  -15.1867  -44.3941 C.3       2 UNK         0.1400 
     63 CB          4.3397  -16.6410  -43.9118 C.3       2 UNK        -0.1800 
     64 N           4.8226  -15.1840  -45.8123 N.am      2 UNK        -0.5000 
     65 C           5.1228  -14.0920  -46.5281 C.2       1 UNK         0.5000 
     66 O           5.1398  -12.9503  -46.0592 O.2       1 UNK        -0.5000 
     67 C           0.1478  -22.4591  -47.9879 C.2       11 UNK         0.5000 
     68 O           0.5295  -23.5270  -48.4637 O.2       11 UNK        -0.5000 
     69 N          -0.8524  -21.7333  -48.5095 N.am      12 UNK        -0.5000 
     70 CA         -1.6388  -22.1236  -49.6806 C.3       12 UNK         0.1400 
     71 CB         -2.5911  -20.9867  -50.0768 C.3       12 UNK        -0.1800 
     72 C          -2.4090  -23.4378  -49.4682 C.2       12 UNK         0.5000 
     73 O          -2.4234  -24.2773  -50.3670 O.2       12 UNK        -0.5000 
     74 N          -2.9871  -23.6181  -48.2728 N.am      13 UNK        -0.5000 
     75 CA         -3.6452  -24.8542  -47.8511 C.3       13 UNK         0.1400 
     76 CB         -4.3333  -24.6404  -46.4940 C.3       13 UNK        -0.1800 
     77 C          -2.6742  -26.0482  -47.7945 C.2       13 UNK         0.5000 
     78 O          -2.9920  -27.1104  -48.3295 O.2       13 UNK        -0.5000 
     79 N          -1.4934  -25.8417  -47.1930 N.am      14 UNK        -0.5000 
     80 CA         -0.4142  -26.8299  -47.1053 C.3       14 UNK         0.1400 
     81 CB          0.6845  -26.3052  -46.1687 C.3       14 UNK        -0.1800 
     82 C           0.1735  -27.2099  -48.4788 C.2       14 UNK         0.5000 
     83 O           0.4994  -28.3764  -48.7005 O.2       14 UNK        -0.5000 
     84 N           0.2620  -26.2280  -49.3852 N.am      15 UNK        -0.5000 
     85 CA          0.6833  -26.3906  -50.7782 C.3       15 UNK         0.1400 
     86 CB          1.0784  -25.0127  -51.3355 C.3       15 UNK        -0.1800 
     87 C          -0.3827  -27.0499  -51.6802 C.2       15 UNK         0.5000 
     88 O          -0.0726  -27.3694  -52.8287 O.2       15 UNK        -0.5000 
     89 N          -1.6080  -27.2274  -51.1621 N.am      16 UNK        -0.5000 
     90 CA         -2.8007  -27.7461  -51.8399 C.3       16 UNK         0.1400 
     91 CB         -2.6058  -29.2148  -52.2719 C.3       16 UNK        -0.1800 
     92 C          -3.2904  -26.8300  -52.9825 C.2       16 UNK         0.5000 
     93 O          -3.8133  -27.3144  -53.9887 O.2       16 UNK        -0.5000 
     94 N          -3.1236  -25.5165  -52.7917 N.am      17 UNK        -0.5000 
     95 CA         -3.6631  -24.4538  -53.6329 C.3       17 UNK         0.1400 
     96 CB         -2.6209  -23.3210  -53.7108 C.3       17 UNK        -0.1800 
     97 C          -5.0168  -23.9792  -53.0624 C.2       17 UNK         0.5000 
     98 O          -5.6603  -24.7072  -52.3006 O.2       17 UNK        -0.5000 
     99 N          -5.4437  -22.7682  -53.4430 N.am      18 UNK        -0.5000 
    100 CA        -6.6515  -22.1192  -52.9371 C.3       18 UNK         0.1400 
    101 CB        -7.0316  -20.9558  -53.8675 C.3       18 UNK        -0.1800 
    102 C         -6.4458  -21.6479  -51.4857 C.2       18 UNK         0.5000 
    103 O         -5.9487  -20.5444  -51.2622 O.2       18 UNK        -0.5000 
    104 N         -6.8317  -22.4997  -50.5276 N.am      19 UNK        -0.5000 
    105 CA        -6.6928  -22.3061  -49.0792 C.3       19 UNK         0.1400 
    106 CB        -7.2554  -23.5503  -48.3739 C.3       19 UNK        -0.1800 
    107 C         -7.3743  -21.0396  -48.5214 C.2       19 UNK         0.5000 
    108 O         -6.9949  -20.5690  -47.4508 O.2       19 UNK        -0.5000 
    109 N         -8.3704  -20.5155  -49.2465 N.am      20 UNK        -0.5000 
    110 CA        -9.0860  -19.2842  -48.9176 C.3       20 UNK         0.1400 
    111 CB       -10.4104  -19.2675  -49.6973 C.3       20 UNK        -0.1800 
    112 C         -8.2794  -18.0006  -49.2052 C.2       20 UNK         0.5000 
    113 O         -8.6469  -16.9441  -48.6887 O.2       20 UNK        -0.5000 
    114 N         -7.2258  -18.0899  -50.0282 N.am      21 UNK        -0.5000 
    115 CA        -6.4146  -16.9564  -50.4591 C.3       21 UNK         0.1400 
    116 CB        -7.1287  -16.1995  -51.6014 C.3       21 UNK        -0.1800 
    117 C         -5.0089  -17.4576  -50.8210 C.2       21 UNK         0.5000 
    118 O         -4.2064  -17.7004  -49.9201 O.2       21 UNK        -0.5000 
    119 N         -4.7325  -17.5993  -52.1205 N.am      22 UNK        -0.5000 
    120 CA        -3.4756  -18.1031  -52.6763 C.3       22 UNK         0.1400 
    121 C         -3.7059  -18.6600  -54.1055 C.2       22 UNK         0.5000 
    122 N         -2.8928  -19.6080  -54.5501 N.am      22 UNK        -0.7600 
    123 O         -4.6012  -18.2231  -54.8263 O.2       22 UNK        -0.5000 
    124 C124       -2.3571  -17.0275  -52.6393 C.3       23 UNK        -0.0398 
    125 S125       -0.6866  -17.7561  -52.5830 S.3       23 UNK        -0.2404 
    126 C126       -0.2356  -17.4454  -50.8505 C.3       23 UNK        -0.0205 
    127 H127        7.5692  -11.2581  -49.4954 H         1 UNK         0.0600 
    128 H128        9.0911  -12.1534  -49.5029 H         1 UNK         0.0600 
    129 H129        8.6381  -11.1914  -48.0915 H         1 UNK         0.0600 
    130 H130        5.7990  -12.5639  -49.1357 H         1 UNK         0.3000 
    131 H131        6.0137  -15.2444  -48.0978 H         1 UNK         0.0600 
    132 H132        3.4864  -13.6262  -48.7125 H         1 UNK         0.0800 
    133 H133        3.5565  -15.3497  -48.4592 H         1 UNK         0.0800 
    134 H134        5.5625  -16.7610  -50.0050 H         1 UNK         0.0800 
    135 H135        5.1743  -16.7311  -51.7053 H         1 UNK         0.0800 
    136 H136        2.0502  -16.0173  -51.0717 H         1 UNK         0.1150 
    137 H137        0.6061  -19.9084  -50.0577 H         1 UNK         0.1150 
    138 H138        4.8113  -19.0962  -49.9137 H         1 UNK         0.1150 
    139 H139        2.1811  -21.7404  -49.8451 H         1 UNK         0.0800 
    140 H140        3.8738  -21.4620  -50.1098 H         1 UNK         0.0800 
    141 H141        1.3467  -19.9831  -47.5510 H         1 UNK         0.0800 
    142 H142        2.1016  -20.3285  -46.0326 H         1 UNK         0.0800 
    143 H143        1.3591  -22.7595  -46.2506 H         1 UNK         0.0600 
    144 H144       -0.2070  -20.5650  -45.4243 H         1 UNK         0.3000 
    145 H145       -3.0640  -22.4016  -44.2699 H         1 UNK         0.0600 
    146 H146       -1.3966  -22.4701  -42.4253 H         1 UNK         0.0600 
    147 H147       -0.8648  -20.8403  -42.8159 H         1 UNK         0.0600 
    148 H148       -2.4999  -21.1176  -42.2199 H         1 UNK         0.0600 
    149 H149       -2.5263  -19.6143  -44.2673 H         1 UNK         0.3000 
    150 H150       -3.8020  -18.9087  -47.5601 H         1 UNK         0.0600 
    151 H151       -5.7155  -18.8692  -45.9610 H         1 UNK         0.0600 
    152 H152       -5.0502  -17.2608  -46.1914 H         1 UNK         0.0600 
    153 H153       -4.6918  -18.1666  -44.7226 H         1 UNK         0.0600 
    154 H154       -2.5667  -17.2060  -45.6446 H         1 UNK         0.3000 
    155 H155        0.8327  -17.7410  -46.6277 H         1 UNK         0.0600 
    156 H156       -1.0328  -15.3340  -46.9581 H         1 UNK         0.0600 
    157 H157        0.7266  -15.2776  -46.8338 H         1 UNK         0.0600 
    158 H158       -0.0321  -16.0492  -48.2119 H         1 UNK         0.0600 
    159 H159       -0.5625  -16.1517  -44.6351 H         1 UNK         0.3000 
    160 H160       -0.2906  -18.5548  -42.0346 H         1 UNK         0.0600 
    161 H161        1.3645  -16.0071  -42.3496 H         1 UNK         0.0600 
    162 H162        2.0055  -17.6116  -42.0227 H         1 UNK         0.0600 
    163 H163        0.9795  -16.8209  -40.8371 H         1 UNK         0.0600 
    164 H164       -1.1053  -15.7925  -42.0951 H         1 UNK         0.3000 
    165 H165       -4.5145  -16.4809  -42.9265 H         1 UNK         0.0600 
    166 H166       -4.9267  -15.3655  -40.7631 H         1 UNK         0.0600 
    167 H167       -4.3343  -16.9944  -40.4831 H         1 UNK         0.0600 
    168 H168       -3.2527  -15.6228  -40.2697 H         1 UNK         0.0600 
    169 H169       -3.4354  -14.0254  -42.2209 H         1 UNK         0.3000 
    170 H170       -3.5259  -12.7776  -45.2249 H         1 UNK         0.0600 
    171 H171       -3.8564  -12.0985  -42.8402 H         1 UNK         0.0600 
    172 H172       -2.1207  -12.2435  -42.5394 H         1 UNK         0.0600 
    173 H173       -2.7352  -11.0141  -43.6345 H         1 UNK         0.0600 
    174 H174       -0.7361  -13.5306  -44.8062 H         1 UNK         0.3000 
    175 H175        0.4957  -12.7830  -47.1825 H         1 UNK         0.0600 
    176 H176        0.6726   -9.7956  -46.5291 H         1 UNK         0.0600 
    177 H177        1.8847  -10.7084  -47.4276 H         1 UNK         0.0600 
    178 H178        0.2660  -10.5130  -48.0803 H         1 UNK         0.0600 
    179 H179        1.6644  -13.2403  -45.3464 H         1 UNK         0.3000 
    180 H180        2.7289  -11.5232  -42.5087 H         1 UNK         0.0600 
    181 H181        0.6253  -13.7500  -42.5694 H         1 UNK         0.0600 
    182 H182        0.5490  -12.2610  -41.6447 H         1 UNK         0.0600 
    183 H183        1.7616  -13.4689  -41.2492 H         1 UNK         0.0600 
    184 H184        4.2030  -12.9613  -43.2202 H         1 UNK         0.3000 
    185 H185        5.2759  -14.7135  -43.8385 H         1 UNK         0.0600 
    186 H186        3.5404  -17.1744  -44.4290 H         1 UNK         0.0600 
    187 H187        5.2674  -17.1912  -44.0699 H         1 UNK         0.0600 
    188 H188        4.1220  -16.6766  -42.8440 H         1 UNK         0.0600 
    189 H189        4.8078  -16.0832  -46.2706 H         1 UNK         0.3000 
    190 H190       -1.0816  -20.8366  -48.0857 H         1 UNK         0.3000 
    191 H191       -0.9409  -22.2790  -50.5055 H         1 UNK         0.0600 
    192 H192       -3.3172  -20.7681  -49.2943 H         1 UNK         0.0600 
    193 H193       -3.1530  -21.2401  -50.9762 H         1 UNK         0.0600 
    194 H194       -2.0411  -20.0694  -50.2814 H         1 UNK         0.0600 
    195 H195       -2.9794  -22.8497  -47.6076 H         1 UNK         0.3000 
    196 H196       -4.4126  -25.0834  -48.5927 H         1 UNK         0.0600 
    197 H197       -4.9579  -25.4966  -46.2373 H         1 UNK         0.0600 
    198 H198       -4.9728  -23.7587  -46.5062 H         1 UNK         0.0600 
    199 H199       -3.6123  -24.5094  -45.6878 H         1 UNK         0.0600 
    200 H200       -1.3238  -24.9445  -46.7459 H         1 UNK         0.3000 
    201 H201       -0.8313  -27.7371  -46.6635 H         1 UNK         0.0600 
    202 H202        0.2902  -26.1053  -45.1722 H         1 UNK         0.0600 
    203 H203        1.1268  -25.3819  -46.5436 H         1 UNK         0.0600 
    204 H204        1.4880  -27.0348  -46.0610 H         1 UNK         0.0600 
    205 H205        0.0515  -25.2786  -49.0882 H         1 UNK         0.3000 
    206 H206        1.5667  -27.0318  -50.7972 H         1 UNK         0.0600 
    207 H207        1.8673  -24.5557  -50.7378 H         1 UNK         0.0600 
    208 H208        1.4513  -25.0930  -52.3572 H         1 UNK         0.0600 
    209 H209        0.2294  -24.3288  -51.3493 H         1 UNK         0.0600 
    210 H210       -1.7609  -26.9142  -50.2116 H         1 UNK         0.3000 
    211 H211       -3.5940  -27.7320  -51.0912 H         1 UNK         0.0600 
    212 H212       -1.8806  -29.3093  -53.0803 H         1 UNK         0.0600 
    213 H213       -3.5438  -29.6447  -52.6249 H         1 UNK         0.0600 
    214 H214       -2.2627  -29.8280  -51.4386 H         1 UNK         0.0600 
    215 H215       -2.7506  -25.2061  -51.8961 H         1 UNK         0.3000 
    216 H216       -3.8401  -24.8298  -54.6423 H         1 UNK         0.0600 
    217 H217       -2.9025  -22.5701  -54.4490 H         1 UNK         0.0600 
    218 H218       -1.6455  -23.7067  -54.0083 H         1 UNK         0.0600 
    219 H219       -2.4977  -22.8177  -52.7519 H         1 UNK         0.0600 
    220 H220       -4.8598  -22.2127  -54.0507 H         1 UNK         0.3000 
    221 H221       -7.4737  -22.8380  -52.9570 H         1 UNK         0.0600 
    222 H222       -6.2402  -20.2097  -53.9268 H         1 UNK         0.0600 
    223 H223       -7.2342  -21.3089  -54.8787 H         1 UNK         0.0600 
    224 H224       -7.9307  -20.4503  -53.5128 H         1 UNK         0.0600 
    225 H225       -7.1738  -23.4055  -50.8184 H         1 UNK         0.3000 
    226 H226       -5.6269  -22.2273  -48.8547 H         1 UNK         0.0600 
    227 H227       -6.7177  -24.4514  -48.6672 H         1 UNK         0.0600 
    228 H228       -7.1761  -23.4597  -47.2901 H         1 UNK         0.0600 
    229 H229       -8.3098  -23.7000  -48.6092 H         1 UNK         0.0600 
    230 H230       -8.6255  -20.9739  -50.1083 H         1 UNK         0.3000 
    231 H231       -9.3188  -19.2924  -47.8506 H         1 UNK         0.0600 
    232 H232      -10.9968  -18.3803  -49.4543 H         1 UNK         0.0600 
    233 H233      -11.0232  -20.1358  -49.4542 H         1 UNK         0.0600 
    234 H234      -10.2425  -19.2643  -50.7751 H         1 UNK         0.0600 
    235 H235       -6.9273  -18.9982  -50.3730 H         1 UNK         0.3000 
    236 H236       -6.2854  -16.2678  -49.6213 H         1 UNK         0.0600 
    237 H237       -8.0531  -15.7420  -51.2489 H         1 UNK         0.0600 
    238 H238       -6.5047  -15.3946  -51.9921 H         1 UNK         0.0600 
    239 H239       -7.3862  -16.8597  -52.4305 H         1 UNK         0.0600 
    240 H240       -5.4494  -17.4183  -52.8104 H         1 UNK         0.3000 
    241 H241       -3.1817  -18.9486  -52.0532 H         1 UNK         0.0600 
    242 H242       -2.1115  -19.9269  -53.9991 H         1 UNK         0.3800 
    243 H243       -3.0140  -19.9525  -55.4892 H         1 UNK         0.3800 
    244 H244       -2.4253  -16.3591  -53.4994 H         1 UNK         0.0800 
    245 H245       -2.4759  -16.3837  -51.7672 H         1 UNK         0.0800 
    246 H246       -0.9394  -17.9543  -50.1907 H         1 UNK         0.0800 
    247 H247       -0.3273  -16.3795  -50.6375 H         1 UNK         0.0800 
@<TRIPOS>BOND
     1    1    2 1    
     2    1  127 1    
     3    1  128 1    
     4    1  129 1    
     5    2    3 2    
     6    2    4 am   BACKBONE|DICT|INTERRES
     7    4    5 1    
     8    4  130 1    
     9    5    6 1    
    10    5   65 1    
    11    5  131 1    
    12    6    7 1    
    13    6  132 1    
    14    6  133 1    
    15    7    8 1    
    16    8    9 1    
    17    8  134 1    
    18    8  135 1    
    19    9   10 ar   
    20    9   14 ar   
    21   10   11 ar   
    22   10  136 1    
    23   11   12 ar   
    24   11  126 1    
    25   12   13 ar   
    26   12  137 1    
    27   13   14 ar   
    28   13   15 1    
    29   14  138 1    
    30   15   16 1    
    31   15  139 1    
    32   15  140 1    
    33   16   17 1    
    34   17   18 1    
    35   17  141 1    
    36   17  142 1    
    37   18   19 1    
    38   18   67 1    
    39   18  143 1    
    40   19   20 am   BACKBONE|DICT|INTERRES
    41   19  144 1    
    42   20   21 2    
    43   20   22 1    
    44   22   23 1    
    45   22   24 1    
    46   22  145 1    
    47   23  146 1    
    48   23  147 1    
    49   23  148 1    
    50   24   25 am   BACKBONE|DICT|INTERRES
    51   24  149 1    
    52   25   26 2    
    53   25   27 1    
    54   27   28 1    
    55   27   29 1    
    56   27  150 1    
    57   28  151 1    
    58   28  152 1    
    59   28  153 1    
    60   29   30 am   BACKBONE|DICT|INTERRES
    61   29  154 1    
    62   30   31 2    
    63   30   32 1    
    64   32   33 1    
    65   32   34 1    
    66   32  155 1    
    67   33  156 1    
    68   33  157 1    
    69   33  158 1    
    70   34   35 am   BACKBONE|DICT|INTERRES
    71   34  159 1    
    72   35   36 2    
    73   35   37 1    
    74   37   38 1    
    75   37   39 1    
    76   37  160 1    
    77   38  161 1    
    78   38  162 1    
    79   38  163 1    
    80   39   40 am   BACKBONE|DICT|INTERRES
    81   39  164 1    
    82   40   41 2    
    83   40   42 1    
    84   42   43 1    
    85   42   44 1    
    86   42  165 1    
    87   43  166 1    
    88   43  167 1    
    89   43  168 1    
    90   44   45 am   BACKBONE|DICT|INTERRES
    91   44  169 1    
    92   45   46 2    
    93   45   47 1    
    94   47   48 1    
    95   47   49 1    
    96   47  170 1    
    97   48  171 1    
    98   48  172 1    
    99   48  173 1    
   100   49   50 am   BACKBONE|DICT|INTERRES
   101   49  174 1    
   102   50   51 2    
   103   50   52 1    
   104   52   53 1    
   105   52   54 1    
   106   52  175 1    
   107   53  176 1    
   108   53  177 1    
   109   53  178 1    
   110   54   55 am   BACKBONE|DICT|INTERRES
   111   54  179 1    
   112   55   56 2    
   113   55   57 1    
   114   57   58 1    
   115   57   59 1    
   116   57  180 1    
   117   58  181 1    
   118   58  182 1    
   119   58  183 1    
   120   59   60 am   BACKBONE|DICT|INTERRES
   121   59  184 1    
   122   60   61 2    
   123   60   62 1    
   124   62   63 1    
   125   62   64 1    
   126   62  185 1    
   127   63  186 1    
   128   63  187 1    
   129   63  188 1    
   130   64   65 am   BACKBONE|DICT|INTERRES
   131   64  189 1    
   132   65   66 2    
   133   67   68 2    
   134   67   69 am   BACKBONE|DICT|INTERRES
   135   69   70 1    
   136   69  190 1    
   137   70   71 1    
   138   70   72 1    
   139   70  191 1    
   140   71  192 1    
   141   71  193 1    
   142   71  194 1    
   143   72   73 2    
   144   72   74 am   BACKBONE|DICT|INTERRES
   145   74   75 1    
   146   74  195 1    
   147   75   76 1    
   148   75   77 1    
   149   75  196 1    
   150   76  197 1    
   151   76  198 1    
   152   76  199 1    
   153   77   78 2    
   154   77   79 am   BACKBONE|DICT|INTERRES
   155   79   80 1    
   156   79  200 1    
   157   80   81 1    
   158   80   82 1    
   159   80  201 1    
   160   81  202 1    
   161   81  203 1    
   162   81  204 1    
   163   82   83 2    
   164   82   84 am   BACKBONE|DICT|INTERRES
   165   84   85 1    
   166   84  205 1    
   167   85   86 1    
   168   85   87 1    
   169   85  206 1    
   170   86  207 1    
   171   86  208 1    
   172   86  209 1    
   173   87   88 2    
   174   87   89 am   BACKBONE|DICT|INTERRES
   175   89   90 1    
   176   89  210 1    
   177   90   91 1    
   178   90   92 1    
   179   90  211 1    
   180   91  212 1    
   181   91  213 1    
   182   91  214 1    
   183   92   93 2    
   184   92   94 am   BACKBONE|DICT|INTERRES
   185   94   95 1    
   186   94  215 1    
   187   95   96 1    
   188   95   97 1    
   189   95  216 1    
   190   96  217 1    
   191   96  218 1    
   192   96  219 1    
   193   97   98 2    
   194   97   99 am   BACKBONE|DICT|INTERRES
   195   99  100 1    
   196   99  220 1    
   197  100  101 1    
   198  100  102 1    
   199  100  221 1    
   200  101  222 1    
   201  101  223 1    
   202  101  224 1    
   203  102  103 2    
   204  102  104 am   BACKBONE|DICT|INTERRES
   205  104  105 1    
   206  104  225 1    
   207  105  106 1    
   208  105  107 1    
   209  105  226 1    
   210  106  227 1    
   211  106  228 1    
   212  106  229 1    
   213  107  108 2    
   214  107  109 am   BACKBONE|DICT|INTERRES
   215  109  110 1    
   216  109  230 1    
   217  110  111 1    
   218  110  112 1    
   219  110  231 1    
   220  111  232 1    
   221  111  233 1    
   222  111  234 1    
   223  112  113 2    
   224  112  114 am   BACKBONE|DICT|INTERRES
   225  114  115 1    
   226  114  235 1    
   227  115  116 1    
   228  115  117 1    
   229  115  236 1    
   230  116  237 1    
   231  116  238 1    
   232  116  239 1    
   233  117  118 2    
   234  117  119 am   BACKBONE|DICT|INTERRES
   235  119  120 1    
   236  119  240 1    
   237  120  121 1    
   238  120  124 1    
   239  120  241 1    
   240  121  122 am   BACKBONE|DICT|INTERRES
   241  121  123 2    
   242  122  242 1    
   243  122  243 1    
   244  124  125 1    
   245  124  244 1    
   246  124  245 1    
   247  125  126 1    
   248  126  246 1    
   249  126  247 1    
@<TRIPOS>SUBSTRUCTURE
     1 UNK         1 GROUP             0       ****    0 ROOT    
