@<TRIPOS>MOLECULE
3R540
247   249    1
SMALL
USER_CHARGES


@<TRIPOS>ATOM
      1 CA         -2.0405   -8.5945  -42.4180 C.3       0 UNK        -0.1800 
      2 C          -1.8760   -9.7865  -43.3498 C.2       0 UNK         0.5000 
      3 O          -2.0855   -9.6566  -44.5570 O.2       0 UNK        -0.5000 
      4 N          -1.4970  -10.9478  -42.8008 N.am      1 UNK        -0.5000 
      5 CA         -1.2537  -12.1939  -43.5338 C.3       1 UNK         0.1400 
      6 C6         -1.4741  -13.4302  -42.6253 C.3       23 UNK        -0.0398 
      7 S7         -1.7286  -14.9706  -43.5702 S.3       23 UNK        -0.2404 
      8 C8         -3.5142  -14.8828  -43.9062 C.3       23 UNK        -0.0205 
      9 C9         -4.0088  -16.1633  -44.5576 C.ar      23 UNK        -0.0193 
     10 C10        -4.0329  -16.2922  -45.9506 C.ar      23 UNK        -0.1150 
     11 C11        -4.4857  -17.4762  -46.5417 C.ar      23 UNK        -0.0193 
     12 C12        -4.9011  -18.5356  -45.7317 C.ar      23 UNK        -0.1150 
     13 C13        -4.8790  -18.4188  -44.3403 C.ar      23 UNK        -0.0193 
     14 C14        -4.4446  -17.2243  -43.7591 C.ar      23 UNK        -0.1150 
     15 C15        -5.3102  -19.5926  -43.4722 C.3       23 UNK        -0.0205 
     16 S16        -3.9982  -20.1780  -42.3473 S.3       23 UNK        -0.2404 
     17 C17        -2.5214  -20.2406  -43.4233 C.3       23 UNK        -0.0398 
     18 CA         -2.5538  -21.3225  -44.5307 C.3       11 UNK         0.1400 
     19 N          -1.4380  -21.1525  -45.4624 N.am      11 UNK        -0.5000 
     20 C          -1.2617  -21.8373  -46.6002 C.2       10 UNK         0.5000 
     21 O          -2.0741  -22.6448  -47.0422 O.2       10 UNK        -0.5000 
     22 CA          0.0782  -21.6360  -47.3336 C.3       10 UNK         0.1400 
     23 CB          0.0311  -20.3929  -48.2320 C.3       10 UNK        -0.1800 
     24 N           1.2119  -21.5370  -46.4121 N.am      10 UNK        -0.5000 
     25 C           1.5972  -22.5095  -45.5723 C.2       9 UNK         0.5000 
     26 O           1.0784  -23.6237  -45.5298 O.2       9 UNK        -0.5000 
     27 CA          2.7059  -22.1580  -44.5681 C.3       9 UNK         0.1400 
     28 CB          4.0951  -22.3117  -45.2044 C.3       9 UNK        -0.1800 
     29 N           2.5370  -20.8027  -44.0430 N.am      9 UNK        -0.5000 
     30 C           1.5790  -20.4539  -43.1720 C.2       8 UNK         0.5000 
     31 O           0.7803  -21.2549  -42.6849 O.2       8 UNK        -0.5000 
     32 CA          1.4679  -18.9571  -42.8189 C.3       8 UNK         0.1400 
     33 CB          2.4360  -18.5955  -41.6832 C.3       8 UNK        -0.1800 
     34 N           1.7183  -18.0826  -43.9670 N.am      8 UNK        -0.5000 
     35 C           0.9192  -18.0027  -45.0404 C.2       7 UNK         0.5000 
     36 O          -0.1375  -18.6215  -45.1432 O.2       7 UNK        -0.5000 
     37 CA          1.4090  -17.1442  -46.2242 C.3       7 UNK         0.1400 
     38 CB          0.8714  -15.7110  -46.1160 C.3       7 UNK        -0.1800 
     39 N           2.8685  -17.1174  -46.3813 N.am      7 UNK        -0.5000 
     40 C           3.6331  -18.2013  -46.5846 C.2       6 UNK         0.5000 
     41 O           3.1773  -19.3435  -46.6532 O.2       6 UNK        -0.5000 
     42 CA          5.1419  -17.9558  -46.7479 C.3       6 UNK         0.1400 
     43 CB          5.9320  -19.2249  -47.1160 C.3       6 UNK        -0.1800 
     44 N           5.3440  -16.9409  -47.7746 N.am      6 UNK        -0.5000 
     45 C           6.1933  -15.9100  -47.6992 C.2       5 UNK         0.5000 
     46 O           6.9735  -15.7300  -46.7634 O.2       5 UNK        -0.5000 
     47 CA          6.1534  -14.8952  -48.8613 C.3       5 UNK         0.1400 
     48 CB          7.3048  -15.1597  -49.8438 C.3       5 UNK        -0.1800 
     49 N           4.8863  -14.8883  -49.6035 N.am      5 UNK        -0.5000 
     50 C           3.7041  -14.5251  -49.0905 C.2       4 UNK         0.5000 
     51 O           3.5446  -14.1639  -47.9201 O.2       4 UNK        -0.5000 
     52 CA          2.4941  -14.6184  -50.0297 C.3       4 UNK         0.1400 
     53 CB          2.0352  -16.0758  -50.2126 C.3       4 UNK        -0.1800 
     54 N           1.4206  -13.8353  -49.4389 N.am      4 UNK        -0.5000 
     55 C           0.4478  -13.1890  -50.0854 C.2       3 UNK         0.5000 
     56 O           0.2622  -13.2743  -51.2996 O.2       3 UNK        -0.5000 
     57 CA         -0.4760  -12.2937  -49.2320 C.3       3 UNK         0.1400 
     58 CB         -1.8721  -12.9210  -49.1081 C.3       3 UNK        -0.1800 
     59 N           0.0323  -12.0286  -47.8817 N.am      3 UNK        -0.5000 
     60 C           1.0762  -11.2425  -47.5787 C.2       2 UNK         0.5000 
     61 O           1.7397  -10.6424  -48.4251 O.2       2 UNK        -0.5000 
     62 CA          1.4242  -11.1097  -46.0831 C.3       2 UNK         0.1400 
     63 CB          2.0347   -9.7396  -45.7376 C.3       2 UNK        -0.1800 
     64 N           0.2343  -11.3230  -45.2588 N.am      2 UNK        -0.5000 
     65 C           0.1335  -12.1517  -44.2148 C.2       1 UNK         0.5000 
     66 O           1.0704  -12.8218  -43.7787 O.2       1 UNK        -0.5000 
     67 C          -2.5920  -22.7510  -43.9472 C.2       11 UNK         0.5000 
     68 O          -3.6373  -23.4000  -44.0021 O.2       11 UNK        -0.5000 
     69 N          -1.4471  -23.2238  -43.4318 N.am      12 UNK        -0.5000 
     70 CA         -1.2909  -24.5493  -42.8286 C.3       12 UNK         0.1400 
     71 CB          0.0907  -24.6453  -42.1637 C.3       12 UNK        -0.1800 
     72 C          -1.5000  -25.7069  -43.8241 C.2       12 UNK         0.5000 
     73 O          -2.1585  -26.6903  -43.4836 O.2       12 UNK        -0.5000 
     74 N          -0.9509  -25.5642  -45.0369 N.am      13 UNK        -0.5000 
     75 CA         -1.0589  -26.5404  -46.1236 C.3       13 UNK         0.1400 
     76 CB          0.1174  -26.3246  -47.0899 C.3       13 UNK        -0.1800 
     77 C          -2.3925  -26.4631  -46.8935 C.2       13 UNK         0.5000 
     78 O          -2.6579  -27.3367  -47.7188 O.2       13 UNK        -0.5000 
     79 N          -3.1690  -25.3943  -46.6692 N.am      14 UNK        -0.5000 
     80 CA         -4.4047  -24.9745  -47.3463 C.3       14 UNK         0.1400 
     81 CB         -5.4946  -26.0613  -47.2775 C.3       14 UNK        -0.1800 
     82 C          -4.2089  -24.4657  -48.7909 C.2       14 UNK         0.5000 
     83 O          -5.0901  -23.7699  -49.2980 O.2       14 UNK        -0.5000 
     84 N          -3.0752  -24.8034  -49.4249 N.am      15 UNK        -0.5000 
     85 CA         -2.5966  -24.3345  -50.7297 C.3       15 UNK         0.1400 
     86 CB         -2.1222  -22.8720  -50.6194 C.3       15 UNK        -0.1800 
     87 C          -3.6080  -24.5542  -51.8726 C.2       15 UNK         0.5000 
     88 O          -3.8077  -23.6634  -52.7004 O.2       15 UNK        -0.5000 
     89 N          -4.2503  -25.7320  -51.8747 N.am      16 UNK        -0.5000 
     90 CA         -5.3093  -26.1475  -52.8037 C.3       16 UNK         0.1400 
     91 CB         -4.7418  -26.3314  -54.2278 C.3       16 UNK        -0.1800 
     92 C          -6.5410  -25.2153  -52.7511 C.2       16 UNK         0.5000 
     93 O          -7.0959  -24.8610  -53.7915 O.2       16 UNK        -0.5000 
     94 N          -6.9210  -24.8283  -51.5237 N.am      17 UNK        -0.5000 
     95 CA         -7.9512  -23.8452  -51.1734 C.3       17 UNK         0.1400 
     96 CB         -9.3489  -24.2840  -51.6607 C.3       17 UNK        -0.1800 
     97 C          -7.5537  -22.4241  -51.6218 C.2       17 UNK         0.5000 
     98 O          -8.3359  -21.7348  -52.2791 O.2       17 UNK        -0.5000 
     99 N          -6.3288  -22.0282  -51.2439 N.am      18 UNK        -0.5000 
    100 CA        -5.6816  -20.7385  -51.5103 C.3       18 UNK         0.1400 
    101 CB        -6.3827  -19.6145  -50.7219 C.3       18 UNK        -0.1800 
    102 C         -5.5394  -20.4204  -53.0154 C.2       18 UNK         0.5000 
    103 O         -5.7454  -19.2781  -53.4311 O.2       18 UNK        -0.5000 
    104 N         -5.2024  -21.4445  -53.8075 N.am      19 UNK        -0.5000 
    105 CA        -5.0191  -21.3577  -55.2549 C.3       19 UNK         0.1400 
    106 CB        -5.8049  -22.4921  -55.9288 C.3       19 UNK        -0.1800 
    107 C         -3.5333  -21.4351  -55.6389 C.2       19 UNK         0.5000 
    108 O         -3.1152  -20.7470  -56.5709 O.2       19 UNK        -0.5000 
    109 N         -2.7590  -22.2633  -54.9240 N.am      20 UNK        -0.5000 
    110 CA        -1.3275  -22.4646  -55.1593 C.3       20 UNK         0.1400 
    111 CB        -0.9205  -23.8396  -54.6063 C.3       20 UNK        -0.1800 
    112 C         -0.4593  -21.3555  -54.5358 C.2       20 UNK         0.5000 
    113 O          0.6637  -21.1358  -54.9912 O.2       20 UNK        -0.5000 
    114 N         -0.9903  -20.6833  -53.5102 N.am      21 UNK        -0.5000 
    115 CA        -0.3674  -19.6064  -52.7514 C.3       21 UNK         0.1400 
    116 CB         0.7151  -20.1730  -51.8129 C.3       21 UNK        -0.1800 
    117 C         -1.4662  -18.8773  -51.9639 C.2       21 UNK         0.5000 
    118 O         -2.5802  -19.3945  -51.8619 O.2       21 UNK        -0.5000 
    119 N         -1.1287  -17.6857  -51.4560 N.am      22 UNK        -0.5000 
    120 CA        -1.9266  -16.7449  -50.6381 C.3       22 UNK         0.1400 
    121 C         -3.2958  -16.2519  -51.2042 C.2       22 UNK         0.5000 
    122 N         -3.8704  -16.8760  -52.2203 N.am      22 UNK        -0.7600 
    123 O         -3.8297  -15.2544  -50.7292 O.2       22 UNK        -0.5000 
    124 C124       -1.9954  -17.1371  -49.1324 C.3       23 UNK        -0.0398 
    125 S125       -3.1278  -18.5132  -48.7279 S.3       23 UNK        -0.2404 
    126 C126       -4.5623  -17.6184  -48.0524 C.3       23 UNK        -0.0205 
    127 H127       -3.0614   -8.2163  -42.4697 H         1 UNK         0.0600 
    128 H128       -1.3633   -7.7927  -42.7125 H         1 UNK         0.0600 
    129 H129       -1.8269   -8.8571  -41.3816 H         1 UNK         0.0600 
    130 H130       -1.3084  -10.9815  -41.8088 H         1 UNK         0.3000 
    131 H131       -1.9965  -12.2513  -44.3327 H         1 UNK         0.0600 
    132 H132       -0.6397  -13.5699  -41.9360 H         1 UNK         0.0800 
    133 H133       -2.3503  -13.2783  -41.9933 H         1 UNK         0.0800 
    134 H134       -4.0558  -14.7103  -42.9748 H         1 UNK         0.0800 
    135 H135       -3.7256  -14.0283  -44.5505 H         1 UNK         0.0800 
    136 H136       -3.7042  -15.4713  -46.5721 H         1 UNK         0.1150 
    137 H137       -5.2400  -19.4536  -46.1912 H         1 UNK         0.1150 
    138 H138       -4.4218  -17.1315  -42.6823 H         1 UNK         0.1150 
    139 H139       -6.1765  -19.2962  -42.8794 H         1 UNK         0.0800 
    140 H140       -5.6369  -20.4308  -44.0896 H         1 UNK         0.0800 
    141 H141       -1.6557  -20.3828  -42.7774 H         1 UNK         0.0800 
    142 H142       -2.3808  -19.2562  -43.8701 H         1 UNK         0.0800 
    143 H143       -3.4657  -21.1833  -45.1140 H         1 UNK         0.0600 
    144 H144       -0.7620  -20.4316  -45.2273 H         1 UNK         0.3000 
    145 H145        0.2471  -22.5091  -47.9669 H         1 UNK         0.0600 
    146 H146        0.9837  -20.2273  -48.7349 H         1 UNK         0.0600 
    147 H147       -0.7361  -20.4981  -48.9995 H         1 UNK         0.0600 
    148 H148       -0.2098  -19.4976  -47.6620 H         1 UNK         0.0600 
    149 H149        1.7338  -20.6661  -46.4124 H         1 UNK         0.3000 
    150 H150        2.6407  -22.8593  -43.7335 H         1 UNK         0.0600 
    151 H151        4.2726  -23.3480  -45.4943 H         1 UNK         0.0600 
    152 H152        4.8847  -22.0284  -44.5085 H         1 UNK         0.0600 
    153 H153        4.2007  -21.7036  -46.1023 H         1 UNK         0.0600 
    154 H154        3.1057  -20.0814  -44.4625 H         1 UNK         0.3000 
    155 H155        0.4495  -18.7733  -42.4695 H         1 UNK         0.0600 
    156 H156        2.2584  -19.2196  -40.8063 H         1 UNK         0.0600 
    157 H157        2.3094  -17.5580  -41.3730 H         1 UNK         0.0600 
    158 H158        3.4765  -18.7337  -41.9795 H         1 UNK         0.0600 
    159 H159        2.5683  -17.5389  -43.9555 H         1 UNK         0.3000 
    160 H160        0.9980  -17.5841  -47.1336 H         1 UNK         0.0600 
    161 H161        1.2454  -15.2071  -45.2243 H         1 UNK         0.0600 
    162 H162       -0.2181  -15.7091  -46.0660 H         1 UNK         0.0600 
    163 H163        1.1523  -15.1154  -46.9817 H         1 UNK         0.0600 
    164 H164        3.3093  -16.2073  -46.3635 H         1 UNK         0.3000 
    165 H165        5.5034  -17.5939  -45.7831 H         1 UNK         0.0600 
    166 H166        6.9919  -19.0050  -47.2445 H         1 UNK         0.0600 
    167 H167        5.8525  -19.9756  -46.3296 H         1 UNK         0.0600 
    168 H168        5.5681  -19.6722  -48.0418 H         1 UNK         0.0600 
    169 H169        4.7341  -16.9981  -48.5773 H         1 UNK         0.3000 
    170 H170        6.2936  -13.9021  -48.4292 H         1 UNK         0.0600 
    171 H171        8.2679  -15.1423  -49.3317 H         1 UNK         0.0600 
    172 H172        7.2070  -16.1335  -50.3253 H         1 UNK         0.0600 
    173 H173        7.3407  -14.3997  -50.6245 H         1 UNK         0.0600 
    174 H174        4.9345  -15.1757  -50.5706 H         1 UNK         0.3000 
    175 H175        2.7736  -14.1911  -50.9951 H         1 UNK         0.0600 
    176 H176        1.7157  -16.5205  -49.2699 H         1 UNK         0.0600 
    177 H177        1.2019  -16.1319  -50.9106 H         1 UNK         0.0600 
    178 H178        2.8353  -16.6967  -50.6170 H         1 UNK         0.0600 
    179 H179        1.5510  -13.6556  -48.4518 H         1 UNK         0.3000 
    180 H180       -0.5740  -11.3392  -49.7533 H         1 UNK         0.0600 
    181 H181       -1.8393  -13.8784  -48.5878 H         1 UNK         0.0600 
    182 H182       -2.3091  -13.0943  -50.0920 H         1 UNK         0.0600 
    183 H183       -2.5539  -12.2665  -48.5648 H         1 UNK         0.0600 
    184 H184       -0.4532  -12.4822  -47.1223 H         1 UNK         0.3000 
    185 H185        2.1696  -11.8804  -45.8758 H         1 UNK         0.0600 
    186 H186        2.9562   -9.5658  -46.2945 H         1 UNK         0.0600 
    187 H187        1.3477   -8.9251  -45.9703 H         1 UNK         0.0600 
    188 H188        2.2819   -9.6763  -44.6777 H         1 UNK         0.0600 
    189 H189       -0.5747  -10.7531  -45.4867 H         1 UNK         0.3000 
    190 H190       -0.6329  -22.6193  -43.4098 H         1 UNK         0.3000 
    191 H191       -2.0480  -24.6462  -42.0477 H         1 UNK         0.0600 
    192 H192        0.8962  -24.5333  -42.8899 H         1 UNK         0.0600 
    193 H193        0.2170  -23.8741  -41.4035 H         1 UNK         0.0600 
    194 H194        0.2222  -25.6107  -41.6734 H         1 UNK         0.0600 
    195 H195       -0.3702  -24.7478  -45.2191 H         1 UNK         0.3000 
    196 H196       -0.9779  -27.5460  -45.7060 H         1 UNK         0.0600 
    197 H197        1.0732  -26.4129  -46.5729 H         1 UNK         0.0600 
    198 H198        0.0789  -25.3379  -47.5538 H         1 UNK         0.0600 
    199 H199        0.1123  -27.0658  -47.8901 H         1 UNK         0.0600 
    200 H200       -2.8098  -24.7086  -46.0172 H         1 UNK         0.3000 
    201 H201       -4.7625  -24.1162  -46.7755 H         1 UNK         0.0600 
    202 H202       -6.4472  -25.6776  -47.6448 H         1 UNK         0.0600 
    203 H203       -5.6533  -26.3957  -46.2523 H         1 UNK         0.0600 
    204 H204       -5.2439  -26.9331  -47.8819 H         1 UNK         0.0600 
    205 H205       -2.4564  -25.4305  -48.9308 H         1 UNK         0.3000 
    206 H206       -1.7267  -24.9435  -50.9791 H         1 UNK         0.0600 
    207 H207       -1.3374  -22.7748  -49.8710 H         1 UNK         0.0600 
    208 H208       -2.9328  -22.2007  -50.3372 H         1 UNK         0.0600 
    209 H209       -1.7109  -22.5155  -51.5624 H         1 UNK         0.0600 
    210 H210       -4.0241  -26.3908  -51.1425 H         1 UNK         0.3000 
    211 H211       -5.6561  -27.1236  -52.4617 H         1 UNK         0.0600 
    212 H212       -3.9076  -27.0327  -54.2297 H         1 UNK         0.0600 
    213 H213       -5.4998  -26.7291  -54.9035 H         1 UNK         0.0600 
    214 H214       -4.3868  -25.3922  -54.6515 H         1 UNK         0.0600 
    215 H215       -6.3488  -25.1312  -50.7474 H         1 UNK         0.3000 
    216 H216       -7.9845  -23.8193  -50.0831 H         1 UNK         0.0600 
    217 H217      -10.1200  -23.6177  -51.2724 H         1 UNK         0.0600 
    218 H218       -9.4285  -24.2707  -52.7478 H         1 UNK         0.0600 
    219 H219       -9.5877  -25.2908  -51.3184 H         1 UNK         0.0600 
    220 H220       -5.7835  -22.6766  -50.6801 H         1 UNK         0.3000 
    221 H221       -4.6684  -20.8254  -51.1194 H         1 UNK         0.0600 
    222 H222       -7.3850  -19.4160  -51.1023 H         1 UNK         0.0600 
    223 H223       -6.4684  -19.8722  -49.6666 H         1 UNK         0.0600 
    224 H224       -5.8158  -18.6849  -50.7861 H         1 UNK         0.0600 
    225 H225       -4.9989  -22.3408  -53.3744 H         1 UNK         0.3000 
    226 H226       -5.4100  -20.4113  -55.6340 H         1 UNK         0.0600 
    227 H227       -6.8660  -22.4334  -55.6853 H         1 UNK         0.0600 
    228 H228       -5.7145  -22.4402  -57.0144 H         1 UNK         0.0600 
    229 H229       -5.4467  -23.4725  -55.6149 H         1 UNK         0.0600 
    230 H230       -3.1717  -22.7923  -54.1589 H         1 UNK         0.3000 
    231 H231       -1.1432  -22.4661  -56.2358 H         1 UNK         0.0600 
    232 H232        0.1237  -24.0570  -54.8340 H         1 UNK         0.0600 
    233 H233       -1.5222  -24.6362  -55.0445 H         1 UNK         0.0600 
    234 H234       -1.0354  -23.8895  -53.5237 H         1 UNK         0.0600 
    235 H235       -1.9415  -20.8822  -53.2247 H         1 UNK         0.3000 
    236 H236        0.0828  -18.8964  -53.4481 H         1 UNK         0.0600 
    237 H237        1.5364  -20.6153  -52.3764 H         1 UNK         0.0600 
    238 H238        1.1437  -19.3937  -51.1818 H         1 UNK         0.0600 
    239 H239        0.3107  -20.9450  -51.1584 H         1 UNK         0.0600 
    240 H240       -0.1975  -17.3565  -51.6607 H         1 UNK         0.3000 
    241 H241       -1.3179  -15.8403  -50.6674 H         1 UNK         0.0600 
    242 H242       -4.7521  -16.5501  -52.5813 H         1 UNK         0.3800 
    243 H243       -3.5147  -17.7834  -52.4963 H         1 UNK         0.3800 
    244 H244       -1.0000  -17.4149  -48.7859 H         1 UNK         0.0800 
    245 H245       -2.2695  -16.2680  -48.5339 H         1 UNK         0.0800 
    246 H246       -5.4675  -18.1680  -48.3095 H         1 UNK         0.0800 
    247 H247       -4.6657  -16.6419  -48.5263 H         1 UNK         0.0800 
@<TRIPOS>BOND
     1    1    2 1    
     2    1  127 1    
     3    1  128 1    
     4    1  129 1    
     5    2    3 2    
     6    2    4 am   BACKBONE|DICT|INTERRES
     7    4    5 1    
     8    4  130 1    
     9    5    6 1    
    10    5   65 1    
    11    5  131 1    
    12    6    7 1    
    13    6  132 1    
    14    6  133 1    
    15    7    8 1    
    16    8    9 1    
    17    8  134 1    
    18    8  135 1    
    19    9   10 ar   
    20    9   14 ar   
    21   10   11 ar   
    22   10  136 1    
    23   11   12 ar   
    24   11  126 1    
    25   12   13 ar   
    26   12  137 1    
    27   13   14 ar   
    28   13   15 1    
    29   14  138 1    
    30   15   16 1    
    31   15  139 1    
    32   15  140 1    
    33   16   17 1    
    34   17   18 1    
    35   17  141 1    
    36   17  142 1    
    37   18   19 1    
    38   18   67 1    
    39   18  143 1    
    40   19   20 am   BACKBONE|DICT|INTERRES
    41   19  144 1    
    42   20   21 2    
    43   20   22 1    
    44   22   23 1    
    45   22   24 1    
    46   22  145 1    
    47   23  146 1    
    48   23  147 1    
    49   23  148 1    
    50   24   25 am   BACKBONE|DICT|INTERRES
    51   24  149 1    
    52   25   26 2    
    53   25   27 1    
    54   27   28 1    
    55   27   29 1    
    56   27  150 1    
    57   28  151 1    
    58   28  152 1    
    59   28  153 1    
    60   29   30 am   BACKBONE|DICT|INTERRES
    61   29  154 1    
    62   30   31 2    
    63   30   32 1    
    64   32   33 1    
    65   32   34 1    
    66   32  155 1    
    67   33  156 1    
    68   33  157 1    
    69   33  158 1    
    70   34   35 am   BACKBONE|DICT|INTERRES
    71   34  159 1    
    72   35   36 2    
    73   35   37 1    
    74   37   38 1    
    75   37   39 1    
    76   37  160 1    
    77   38  161 1    
    78   38  162 1    
    79   38  163 1    
    80   39   40 am   BACKBONE|DICT|INTERRES
    81   39  164 1    
    82   40   41 2    
    83   40   42 1    
    84   42   43 1    
    85   42   44 1    
    86   42  165 1    
    87   43  166 1    
    88   43  167 1    
    89   43  168 1    
    90   44   45 am   BACKBONE|DICT|INTERRES
    91   44  169 1    
    92   45   46 2    
    93   45   47 1    
    94   47   48 1    
    95   47   49 1    
    96   47  170 1    
    97   48  171 1    
    98   48  172 1    
    99   48  173 1    
   100   49   50 am   BACKBONE|DICT|INTERRES
   101   49  174 1    
   102   50   51 2    
   103   50   52 1    
   104   52   53 1    
   105   52   54 1    
   106   52  175 1    
   107   53  176 1    
   108   53  177 1    
   109   53  178 1    
   110   54   55 am   BACKBONE|DICT|INTERRES
   111   54  179 1    
   112   55   56 2    
   113   55   57 1    
   114   57   58 1    
   115   57   59 1    
   116   57  180 1    
   117   58  181 1    
   118   58  182 1    
   119   58  183 1    
   120   59   60 am   BACKBONE|DICT|INTERRES
   121   59  184 1    
   122   60   61 2    
   123   60   62 1    
   124   62   63 1    
   125   62   64 1    
   126   62  185 1    
   127   63  186 1    
   128   63  187 1    
   129   63  188 1    
   130   64   65 am   BACKBONE|DICT|INTERRES
   131   64  189 1    
   132   65   66 2    
   133   67   68 2    
   134   67   69 am   BACKBONE|DICT|INTERRES
   135   69   70 1    
   136   69  190 1    
   137   70   71 1    
   138   70   72 1    
   139   70  191 1    
   140   71  192 1    
   141   71  193 1    
   142   71  194 1    
   143   72   73 2    
   144   72   74 am   BACKBONE|DICT|INTERRES
   145   74   75 1    
   146   74  195 1    
   147   75   76 1    
   148   75   77 1    
   149   75  196 1    
   150   76  197 1    
   151   76  198 1    
   152   76  199 1    
   153   77   78 2    
   154   77   79 am   BACKBONE|DICT|INTERRES
   155   79   80 1    
   156   79  200 1    
   157   80   81 1    
   158   80   82 1    
   159   80  201 1    
   160   81  202 1    
   161   81  203 1    
   162   81  204 1    
   163   82   83 2    
   164   82   84 am   BACKBONE|DICT|INTERRES
   165   84   85 1    
   166   84  205 1    
   167   85   86 1    
   168   85   87 1    
   169   85  206 1    
   170   86  207 1    
   171   86  208 1    
   172   86  209 1    
   173   87   88 2    
   174   87   89 am   BACKBONE|DICT|INTERRES
   175   89   90 1    
   176   89  210 1    
   177   90   91 1    
   178   90   92 1    
   179   90  211 1    
   180   91  212 1    
   181   91  213 1    
   182   91  214 1    
   183   92   93 2    
   184   92   94 am   BACKBONE|DICT|INTERRES
   185   94   95 1    
   186   94  215 1    
   187   95   96 1    
   188   95   97 1    
   189   95  216 1    
   190   96  217 1    
   191   96  218 1    
   192   96  219 1    
   193   97   98 2    
   194   97   99 am   BACKBONE|DICT|INTERRES
   195   99  100 1    
   196   99  220 1    
   197  100  101 1    
   198  100  102 1    
   199  100  221 1    
   200  101  222 1    
   201  101  223 1    
   202  101  224 1    
   203  102  103 2    
   204  102  104 am   BACKBONE|DICT|INTERRES
   205  104  105 1    
   206  104  225 1    
   207  105  106 1    
   208  105  107 1    
   209  105  226 1    
   210  106  227 1    
   211  106  228 1    
   212  106  229 1    
   213  107  108 2    
   214  107  109 am   BACKBONE|DICT|INTERRES
   215  109  110 1    
   216  109  230 1    
   217  110  111 1    
   218  110  112 1    
   219  110  231 1    
   220  111  232 1    
   221  111  233 1    
   222  111  234 1    
   223  112  113 2    
   224  112  114 am   BACKBONE|DICT|INTERRES
   225  114  115 1    
   226  114  235 1    
   227  115  116 1    
   228  115  117 1    
   229  115  236 1    
   230  116  237 1    
   231  116  238 1    
   232  116  239 1    
   233  117  118 2    
   234  117  119 am   BACKBONE|DICT|INTERRES
   235  119  120 1    
   236  119  240 1    
   237  120  121 1    
   238  120  124 1    
   239  120  241 1    
   240  121  122 am   BACKBONE|DICT|INTERRES
   241  121  123 2    
   242  122  242 1    
   243  122  243 1    
   244  124  125 1    
   245  124  244 1    
   246  124  245 1    
   247  125  126 1    
   248  126  246 1    
   249  126  247 1    
@<TRIPOS>SUBSTRUCTURE
     1 UNK         1 GROUP             0       ****    0 ROOT    
