@<TRIPOS>MOLECULE
3R540
247   249    1
SMALL
USER_CHARGES


@<TRIPOS>ATOM
      1 CA         -0.9447  -14.1801  -51.0803 C.3       0 UNK        -0.1800 
      2 C          -0.4986  -13.3546  -49.8824 C.2       0 UNK         0.5000 
      3 O          -1.2674  -12.5293  -49.3881 O.2       0 UNK        -0.5000 
      4 N           0.7438  -13.5551  -49.4291 N.am      1 UNK        -0.5000 
      5 CA          1.3426  -12.8539  -48.2911 C.3       1 UNK         0.1400 
      6 C6          2.8941  -12.9369  -48.2575 C.3       23 UNK        -0.0398 
      7 S7          3.7102  -12.6866  -49.8745 S.3       23 UNK        -0.2404 
      8 C8          4.4419  -14.3312  -50.1789 C.3       23 UNK        -0.0205 
      9 C9          3.3982  -15.3622  -50.5871 C.ar      23 UNK        -0.0193 
     10 C10         3.1230  -15.5879  -51.9403 C.ar      23 UNK        -0.1150 
     11 C11         2.1656  -16.5337  -52.3198 C.ar      23 UNK        -0.0193 
     12 C12         1.4763  -17.2470  -51.3368 C.ar      23 UNK        -0.1150 
     13 C13         1.7118  -17.0006  -49.9836 C.ar      23 UNK        -0.0193 
     14 C14         2.6996  -16.0858  -49.6146 C.ar      23 UNK        -0.1150 
     15 C15         0.8613  -17.6852  -48.9284 C.3       23 UNK        -0.0205 
     16 S16        -0.8749  -17.1469  -49.0632 S.3       23 UNK        -0.2404 
     17 C17        -1.6417  -17.9309  -47.6132 C.3       23 UNK        -0.0398 
     18 CA         -1.5087  -19.4761  -47.6360 C.3       11 UNK         0.1400 
     19 N          -0.4602  -19.9503  -46.7302 N.am      11 UNK        -0.5000 
     20 C           0.0066  -21.2047  -46.6894 C.2       10 UNK         0.5000 
     21 O          -0.3619  -22.0967  -47.4526 O.2       10 UNK        -0.5000 
     22 CA          1.0151  -21.5295  -45.5732 C.3       10 UNK         0.1400 
     23 CB          2.4308  -21.0799  -45.9639 C.3       10 UNK        -0.1800 
     24 N           0.6367  -20.9340  -44.2897 N.am      10 UNK        -0.5000 
     25 C          -0.4746  -21.2568  -43.6117 C.2       9 UNK         0.5000 
     26 O          -1.2655  -22.1269  -43.9754 O.2       9 UNK        -0.5000 
     27 CA         -0.7805  -20.4523  -42.3366 C.3       9 UNK         0.1400 
     28 CB          0.0311  -20.9914  -41.1496 C.3       9 UNK        -0.1800 
     29 N          -0.5393  -19.0175  -42.4933 N.am      9 UNK        -0.5000 
     30 C          -1.2033  -18.2176  -43.3408 C.2       8 UNK         0.5000 
     31 O          -2.1201  -18.6010  -44.0669 O.2       8 UNK        -0.5000 
     32 CA         -0.7255  -16.7558  -43.4379 C.3       8 UNK         0.1400 
     33 CB         -1.2459  -15.9245  -42.2560 C.3       8 UNK        -0.1800 
     34 N           0.7306  -16.6414  -43.5127 N.am      8 UNK        -0.5000 
     35 C           1.4879  -17.1923  -44.4728 C.2       7 UNK         0.5000 
     36 O           1.0405  -17.8560  -45.4066 O.2       7 UNK        -0.5000 
     37 CA          3.0085  -17.0431  -44.3145 C.3       7 UNK         0.1400 
     38 CB          3.4760  -15.6347  -44.7157 C.3       7 UNK        -0.1800 
     39 N           3.4313  -17.3448  -42.9467 N.am      7 UNK        -0.5000 
     40 C           3.3786  -18.5666  -42.3951 C.2       6 UNK         0.5000 
     41 O           3.0115  -19.5757  -42.9971 O.2       6 UNK        -0.5000 
     42 CA          3.7619  -18.6692  -40.9077 C.3       6 UNK         0.1400 
     43 CB          5.2868  -18.7532  -40.7444 C.3       6 UNK        -0.1800 
     44 N           3.2494  -17.5495  -40.1167 N.am      6 UNK        -0.5000 
     45 C           1.9489  -17.3127  -39.8928 C.2       5 UNK         0.5000 
     46 O           1.0418  -18.0336  -40.3038 O.2       5 UNK        -0.5000 
     47 CA          1.6009  -16.0271  -39.1217 C.3       5 UNK         0.1400 
     48 CB          1.6233  -16.2826  -37.6074 C.3       5 UNK        -0.1800 
     49 N           2.4862  -14.9037  -39.4401 N.am      5 UNK        -0.5000 
     50 C           2.6086  -14.3543  -40.6545 C.2       4 UNK         0.5000 
     51 O           2.0108  -14.7577  -41.6578 O.2       4 UNK        -0.5000 
     52 CA          3.5983  -13.1905  -40.7776 C.3       4 UNK         0.1400 
     53 CB          5.0142  -13.7160  -41.0637 C.3       4 UNK        -0.1800 
     54 N           3.1678  -12.3518  -41.8868 N.am      4 UNK        -0.5000 
     55 C           3.0326  -11.0224  -41.8644 C.2       3 UNK         0.5000 
     56 O           3.3676  -10.3143  -40.9137 O.2       3 UNK        -0.5000 
     57 CA          2.4144  -10.3683  -43.1167 C.3       3 UNK         0.1400 
     58 CB          3.5050   -9.6926  -43.9628 C.3       3 UNK        -0.1800 
     59 N           1.6792  -11.3109  -43.9663 N.am      3 UNK        -0.5000 
     60 C           0.4832  -11.8459  -43.6760 C.2       2 UNK         0.5000 
     61 O          -0.1426  -11.5889  -42.6473 O.2       2 UNK        -0.5000 
     62 CA         -0.1013  -12.8198  -44.7168 C.3       2 UNK         0.1400 
     63 CB         -1.6408  -12.8507  -44.7214 C.3       2 UNK        -0.1800 
     64 N           0.3890  -12.4968  -46.0592 N.am      2 UNK        -0.5000 
     65 C           0.7639  -13.3998  -46.9703 C.2       1 UNK         0.5000 
     66 O           0.7161  -14.6169  -46.7865 O.2       1 UNK        -0.5000 
     67 C          -2.8571  -20.1704  -47.3698 C.2       11 UNK         0.5000 
     68 O          -3.5085  -20.5966  -48.3231 O.2       11 UNK        -0.5000 
     69 N          -3.2341  -20.3113  -46.0912 N.am      12 UNK        -0.5000 
     70 CA         -4.4322  -21.0329  -45.6617 C.3       12 UNK         0.1400 
     71 CB         -4.6388  -20.8516  -44.1507 C.3       12 UNK        -0.1800 
     72 C          -4.3884  -22.5240  -46.0396 C.2       12 UNK         0.5000 
     73 O          -5.3792  -23.0445  -46.5493 O.2       12 UNK        -0.5000 
     74 N          -3.2319  -23.1695  -45.8315 N.am      13 UNK        -0.5000 
     75 CA         -2.9736  -24.5555  -46.2238 C.3       13 UNK         0.1400 
     76 CB         -1.6217  -25.0112  -45.6548 C.3       13 UNK        -0.1800 
     77 C          -3.0273  -24.7652  -47.7484 C.2       13 UNK         0.5000 
     78 O          -3.5993  -25.7572  -48.1999 O.2       13 UNK        -0.5000 
     79 N          -2.4646  -23.8179  -48.5128 N.am      14 UNK        -0.5000 
     80 CA         -2.5138  -23.7983  -49.9745 C.3       14 UNK         0.1400 
     81 CB         -1.5758  -22.7100  -50.5187 C.3       14 UNK        -0.1800 
     82 C          -3.9445  -23.6109  -50.5069 C.2       14 UNK         0.5000 
     83 O          -4.3693  -24.3777  -51.3680 O.2       14 UNK        -0.5000 
     84 N          -4.6737  -22.6306  -49.9555 N.am      15 UNK        -0.5000 
     85 CA         -6.0645  -22.3260  -50.3016 C.3       15 UNK         0.1400 
     86 CB         -6.4708  -21.0028  -49.6363 C.3       15 UNK        -0.1800 
     87 C          -7.0589  -23.4468  -49.9368 C.2       15 UNK         0.5000 
     88 O          -8.0873  -23.5801  -50.6003 O.2       15 UNK        -0.5000 
     89 N          -6.7408  -24.2328  -48.8989 N.am      16 UNK        -0.5000 
     90 CA         -7.4927  -25.4208  -48.4904 C.3       16 UNK         0.1400 
     91 CB         -7.1202  -25.7811  -47.0437 C.3       16 UNK        -0.1800 
     92 C          -7.2746  -26.6309  -49.4218 C.2       16 UNK         0.5000 
     93 O          -8.0898  -27.5550  -49.4016 O.2       16 UNK        -0.5000 
     94 N          -6.1921  -26.6155  -50.2109 N.am      17 UNK        -0.5000 
     95 CA         -5.8817  -27.6110  -51.2341 C.3       17 UNK         0.1400 
     96 CB         -4.3509  -27.7713  -51.3212 C.3       17 UNK        -0.1800 
     97 C          -6.5208  -27.2239  -52.5859 C.2       17 UNK         0.5000 
     98 O          -7.4519  -26.4169  -52.6323 O.2       17 UNK        -0.5000 
     99 N          -6.0251  -27.8248  -53.6751 N.am      18 UNK        -0.5000 
    100 CA        -6.4950  -27.5817  -55.0421 C.3       18 UNK         0.1400 
    101 CB        -6.0167  -28.7343  -55.9394 C.3       18 UNK        -0.1800 
    102 C         -6.0442  -26.2252  -55.6239 C.2       18 UNK         0.5000 
    103 O         -6.6400  -25.7618  -56.5977 O.2       18 UNK        -0.5000 
    104 N         -4.9946  -25.6255  -55.0467 N.am      19 UNK        -0.5000 
    105 CA        -4.4420  -24.3391  -55.4632 C.3       19 UNK         0.1400 
    106 CB        -3.0258  -24.1920  -54.8840 C.3       19 UNK        -0.1800 
    107 C         -5.3250  -23.1639  -55.0105 C.2       19 UNK         0.5000 
    108 O         -5.8468  -23.1726  -53.8949 O.2       19 UNK        -0.5000 
    109 N         -5.4196  -22.1318  -55.8548 N.am      20 UNK        -0.5000 
    110 CA        -6.0464  -20.8506  -55.5305 C.3       20 UNK         0.1400 
    111 CB        -6.6307  -20.2435  -56.8189 C.3       20 UNK        -0.1800 
    112 C         -5.0038  -19.9366  -54.8593 C.2       20 UNK         0.5000 
    113 O         -4.5743  -18.9499  -55.4610 O.2       20 UNK        -0.5000 
    114 N         -4.5553  -20.3380  -53.6596 N.am      21 UNK        -0.5000 
    115 CA        -3.4341  -19.7800  -52.8939 C.3       21 UNK         0.1400 
    116 CB        -3.7674  -18.3719  -52.3548 C.3       21 UNK        -0.1800 
    117 C         -2.1271  -19.8444  -53.7111 C.2       21 UNK         0.5000 
    118 O         -1.5031  -20.9049  -53.7539 O.2       21 UNK        -0.5000 
    119 N         -1.7631  -18.7400  -54.3758 N.am      22 UNK        -0.5000 
    120 CA        -0.6609  -18.6799  -55.3513 C.3       22 UNK         0.1400 
    121 C         -0.9537  -19.4271  -56.6857 C.2       22 UNK         0.5000 
    122 N         -2.2075  -19.6798  -57.0440 N.am      22 UNK        -0.7600 
    123 O         -0.0257  -19.7804  -57.4079 O.2       22 UNK        -0.5000 
    124 C124       -0.2087  -17.2260  -55.6560 C.3       23 UNK        -0.0398 
    125 S125        0.1466  -16.2398  -54.1657 S.3       23 UNK        -0.2404 
    126 C126        1.8423  -16.7804  -53.7835 C.3       23 UNK        -0.0205 
    127 H127       -0.1778  -14.8910  -51.3850 H         1 UNK         0.0600 
    128 H128       -1.1603  -13.5303  -51.9282 H         1 UNK         0.0600 
    129 H129       -1.8480  -14.7399  -50.8385 H         1 UNK         0.0600 
    130 H130        1.3212  -14.2688  -49.8527 H         1 UNK         0.3000 
    131 H131        1.0744  -11.7991  -48.3831 H         1 UNK         0.0600 
    132 H132        3.2788  -12.1717  -47.5814 H         1 UNK         0.0800 
    133 H133        3.2348  -13.8799  -47.8313 H         1 UNK         0.0800 
    134 H134        4.9826  -14.6684  -49.2932 H         1 UNK         0.0800 
    135 H135        5.1908  -14.2364  -50.9667 H         1 UNK         0.0800 
    136 H136        3.6516  -15.0245  -52.6965 H         1 UNK         0.1150 
    137 H137        0.7141  -17.9574  -51.6265 H         1 UNK         0.1150 
    138 H138        2.8951  -15.9179  -48.5659 H         1 UNK         0.1150 
    139 H139        0.9349  -18.7662  -49.0503 H         1 UNK         0.0800 
    140 H140        1.2302  -17.4503  -47.9302 H         1 UNK         0.0800 
    141 H141       -2.6851  -17.6094  -47.6132 H         1 UNK         0.0800 
    142 H142       -1.2130  -17.4997  -46.7080 H         1 UNK         0.0800 
    143 H143       -1.2205  -19.7928  -48.6407 H         1 UNK         0.0600 
    144 H144       -0.0635  -19.2640  -46.0931 H         1 UNK         0.3000 
    145 H145        1.0291  -22.6138  -45.4456 H         1 UNK         0.0600 
    146 H146        2.4947  -19.9984  -46.0840 H         1 UNK         0.0600 
    147 H147        3.1595  -21.3752  -45.2089 H         1 UNK         0.0600 
    148 H148        2.7372  -21.5333  -46.9073 H         1 UNK         0.0600 
    149 H149        1.2609  -20.2294  -43.9115 H         1 UNK         0.3000 
    150 H150       -1.8398  -20.5858  -42.1087 H         1 UNK         0.0600 
    151 H151       -0.1345  -22.0611  -41.0154 H         1 UNK         0.0600 
    152 H152       -0.2570  -20.4996  -40.2204 H         1 UNK         0.0600 
    153 H153        1.1014  -20.8387  -41.2912 H         1 UNK         0.0600 
    154 H154        0.1719  -18.6121  -41.8905 H         1 UNK         0.3000 
    155 H155       -1.1325  -16.3310  -44.3580 H         1 UNK         0.0600 
    156 H156       -0.8970  -16.3187  -41.3018 H         1 UNK         0.0600 
    157 H157       -0.9190  -14.8870  -42.3253 H         1 UNK         0.0600 
    158 H158       -2.3361  -15.9233  -42.2318 H         1 UNK         0.0600 
    159 H159        1.1866  -16.1052  -42.7802 H         1 UNK         0.3000 
    160 H160        3.4875  -17.7608  -44.9841 H         1 UNK         0.0600 
    161 H161        3.2227  -15.4288  -45.7561 H         1 UNK         0.0600 
    162 H162        4.5570  -15.5340  -44.6186 H         1 UNK         0.0600 
    163 H163        3.0098  -14.8591  -44.1088 H         1 UNK         0.0600 
    164 H164        3.6885  -16.5614  -42.3660 H         1 UNK         0.3000 
    165 H165        3.3250  -19.5897  -40.5145 H         1 UNK         0.0600 
    166 H166        5.5636  -18.9060  -39.7011 H         1 UNK         0.0600 
    167 H167        5.6941  -19.5901  -41.3133 H         1 UNK         0.0600 
    168 H168        5.7818  -17.8464  -41.0942 H         1 UNK         0.0600 
    169 H169        3.9282  -16.9050  -39.7397 H         1 UNK         0.3000 
    170 H170        0.5860  -15.7393  -39.4029 H         1 UNK         0.0600 
    171 H171        0.9562  -17.1035  -37.3406 H         1 UNK         0.0600 
    172 H172        2.6224  -16.5441  -37.2566 H         1 UNK         0.0600 
    173 H173        1.2916  -15.4038  -37.0540 H         1 UNK         0.0600 
    174 H174        3.0196  -14.5216  -38.6723 H         1 UNK         0.3000 
    175 H175        3.5961  -12.6273  -39.8420 H         1 UNK         0.0600 
    176 H176        5.0499  -14.3011  -41.9837 H         1 UNK         0.0600 
    177 H177        5.7234  -12.8942  -41.1644 H         1 UNK         0.0600 
    178 H178        5.3692  -14.3530  -40.2527 H         1 UNK         0.0600 
    179 H179        2.7903  -12.8603  -42.6737 H         1 UNK         0.3000 
    180 H180        1.7195   -9.5983  -42.7747 H         1 UNK         0.0600 
    181 H181        4.2274  -10.4167  -44.3416 H         1 UNK         0.0600 
    182 H182        4.0558   -8.9566  -43.3754 H         1 UNK         0.0600 
    183 H183        3.0749   -9.1677  -44.8160 H         1 UNK         0.0600 
    184 H184        2.1340  -11.5875  -44.8233 H         1 UNK         0.3000 
    185 H185        0.2560  -13.8086  -44.4213 H         1 UNK         0.0600 
    186 H186       -2.0151  -13.5859  -45.4341 H         1 UNK         0.0600 
    187 H187       -2.0355  -13.1225  -43.7419 H         1 UNK         0.0600 
    188 H188       -2.0592  -11.8801  -44.9892 H         1 UNK         0.0600 
    189 H189        0.4343  -11.5122  -46.2855 H         1 UNK         0.3000 
    190 H190       -2.6724  -19.8831  -45.3597 H         1 UNK         0.3000 
    191 H191       -5.2871  -20.5873  -46.1744 H         1 UNK         0.0600 
    192 H192       -3.8070  -21.2593  -43.5767 H         1 UNK         0.0600 
    193 H193       -5.5462  -21.3570  -43.8181 H         1 UNK         0.0600 
    194 H194       -4.7390  -19.7977  -43.8906 H         1 UNK         0.0600 
    195 H195       -2.4758  -22.6808  -45.3592 H         1 UNK         0.3000 
    196 H196       -3.7539  -25.1758  -45.7780 H         1 UNK         0.0600 
    197 H197       -1.4184  -26.0505  -45.9157 H         1 UNK         0.0600 
    198 H198       -1.6083  -24.9396  -44.5671 H         1 UNK         0.0600 
    199 H199       -0.7985  -24.4085  -46.0388 H         1 UNK         0.0600 
    200 H200       -1.9554  -23.0628  -48.0628 H         1 UNK         0.3000 
    201 H201       -2.1505  -24.7639  -50.3327 H         1 UNK         0.0600 
    202 H202       -0.5471  -22.8823  -50.2021 H         1 UNK         0.0600 
    203 H203       -1.8662  -21.7156  -50.1802 H         1 UNK         0.0600 
    204 H204       -1.5831  -22.7011  -51.6093 H         1 UNK         0.0600 
    205 H205       -4.2398  -22.0257  -49.2610 H         1 UNK         0.3000 
    206 H206       -6.1136  -22.1890  -51.3831 H         1 UNK         0.0600 
    207 H207       -5.8284  -20.1845  -49.9623 H         1 UNK         0.0600 
    208 H208       -7.4963  -20.7335  -49.8922 H         1 UNK         0.0600 
    209 H209       -6.4072  -21.0664  -48.5493 H         1 UNK         0.0600 
    210 H210       -5.9253  -23.9990  -48.3438 H         1 UNK         0.3000 
    211 H211       -8.5575  -25.1799  -48.5138 H         1 UNK         0.0600 
    212 H212       -6.0571  -26.0022  -46.9457 H         1 UNK         0.0600 
    213 H213       -7.6714  -26.6584  -46.7030 H         1 UNK         0.0600 
    214 H214       -7.3576  -24.9652  -46.3610 H         1 UNK         0.0600 
    215 H215       -5.6056  -25.7900  -50.2097 H         1 UNK         0.3000 
    216 H216       -6.3016  -28.5747  -50.9393 H         1 UNK         0.0600 
    217 H217       -4.0752  -28.6441  -51.9136 H         1 UNK         0.0600 
    218 H218       -3.9136  -27.9098  -50.3319 H         1 UNK         0.0600 
    219 H219       -3.8740  -26.9020  -51.7736 H         1 UNK         0.0600 
    220 H220       -5.2682  -28.4847  -53.5693 H         1 UNK         0.3000 
    221 H221       -7.5871  -27.5872  -55.0384 H         1 UNK         0.0600 
    222 H222       -4.9281  -28.7895  -55.9778 H         1 UNK         0.0600 
    223 H223       -6.3905  -29.6942  -55.5824 H         1 UNK         0.0600 
    224 H224       -6.3749  -28.6087  -56.9621 H         1 UNK         0.0600 
    225 H225       -4.6041  -26.0365  -54.2124 H         1 UNK         0.3000 
    226 H226       -4.3697  -24.3297  -56.5530 H         1 UNK         0.0600 
    227 H227       -3.0327  -24.2068  -53.7934 H         1 UNK         0.0600 
    228 H228       -2.3725  -24.9944  -55.2268 H         1 UNK         0.0600 
    229 H229       -2.5723  -23.2491  -55.1933 H         1 UNK         0.0600 
    230 H230       -4.9376  -22.1785  -56.7411 H         1 UNK         0.3000 
    231 H231       -6.8690  -20.9972  -54.8271 H         1 UNK         0.0600 
    232 H232       -7.1047  -19.2822  -56.6168 H         1 UNK         0.0600 
    233 H233       -7.3907  -20.8953  -57.2501 H         1 UNK         0.0600 
    234 H234       -5.8628  -20.0793  -57.5760 H         1 UNK         0.0600 
    235 H235       -4.9346  -21.2066  -53.3026 H         1 UNK         0.3000 
    236 H236       -3.2926  -20.4330  -52.0310 H         1 UNK         0.0600 
    237 H237       -4.0087  -17.6644  -53.1482 H         1 UNK         0.0600 
    238 H238       -2.9286  -17.9624  -51.7898 H         1 UNK         0.0600 
    239 H239       -4.6213  -18.4100  -51.6784 H         1 UNK         0.0600 
    240 H240       -2.3502  -17.9212  -54.3143 H         1 UNK         0.3000 
    241 H241        0.1884  -19.1964  -54.9009 H         1 UNK         0.0600 
    242 H242       -2.3857  -20.1542  -57.9145 H         1 UNK         0.3800 
    243 H243       -2.9833  -19.3608  -56.4713 H         1 UNK         0.3800 
    244 H244        0.6773  -17.2236  -56.2938 H         1 UNK         0.0800 
    245 H245       -0.9850  -16.7019  -56.2163 H         1 UNK         0.0800 
    246 H246        1.9539  -17.8453  -53.9901 H         1 UNK         0.0800 
    247 H247        2.5439  -16.2591  -54.4364 H         1 UNK         0.0800 
@<TRIPOS>BOND
     1    1    2 1    
     2    1  127 1    
     3    1  128 1    
     4    1  129 1    
     5    2    3 2    
     6    2    4 am   BACKBONE|DICT|INTERRES
     7    4    5 1    
     8    4  130 1    
     9    5    6 1    
    10    5   65 1    
    11    5  131 1    
    12    6    7 1    
    13    6  132 1    
    14    6  133 1    
    15    7    8 1    
    16    8    9 1    
    17    8  134 1    
    18    8  135 1    
    19    9   10 ar   
    20    9   14 ar   
    21   10   11 ar   
    22   10  136 1    
    23   11   12 ar   
    24   11  126 1    
    25   12   13 ar   
    26   12  137 1    
    27   13   14 ar   
    28   13   15 1    
    29   14  138 1    
    30   15   16 1    
    31   15  139 1    
    32   15  140 1    
    33   16   17 1    
    34   17   18 1    
    35   17  141 1    
    36   17  142 1    
    37   18   19 1    
    38   18   67 1    
    39   18  143 1    
    40   19   20 am   BACKBONE|DICT|INTERRES
    41   19  144 1    
    42   20   21 2    
    43   20   22 1    
    44   22   23 1    
    45   22   24 1    
    46   22  145 1    
    47   23  146 1    
    48   23  147 1    
    49   23  148 1    
    50   24   25 am   BACKBONE|DICT|INTERRES
    51   24  149 1    
    52   25   26 2    
    53   25   27 1    
    54   27   28 1    
    55   27   29 1    
    56   27  150 1    
    57   28  151 1    
    58   28  152 1    
    59   28  153 1    
    60   29   30 am   BACKBONE|DICT|INTERRES
    61   29  154 1    
    62   30   31 2    
    63   30   32 1    
    64   32   33 1    
    65   32   34 1    
    66   32  155 1    
    67   33  156 1    
    68   33  157 1    
    69   33  158 1    
    70   34   35 am   BACKBONE|DICT|INTERRES
    71   34  159 1    
    72   35   36 2    
    73   35   37 1    
    74   37   38 1    
    75   37   39 1    
    76   37  160 1    
    77   38  161 1    
    78   38  162 1    
    79   38  163 1    
    80   39   40 am   BACKBONE|DICT|INTERRES
    81   39  164 1    
    82   40   41 2    
    83   40   42 1    
    84   42   43 1    
    85   42   44 1    
    86   42  165 1    
    87   43  166 1    
    88   43  167 1    
    89   43  168 1    
    90   44   45 am   BACKBONE|DICT|INTERRES
    91   44  169 1    
    92   45   46 2    
    93   45   47 1    
    94   47   48 1    
    95   47   49 1    
    96   47  170 1    
    97   48  171 1    
    98   48  172 1    
    99   48  173 1    
   100   49   50 am   BACKBONE|DICT|INTERRES
   101   49  174 1    
   102   50   51 2    
   103   50   52 1    
   104   52   53 1    
   105   52   54 1    
   106   52  175 1    
   107   53  176 1    
   108   53  177 1    
   109   53  178 1    
   110   54   55 am   BACKBONE|DICT|INTERRES
   111   54  179 1    
   112   55   56 2    
   113   55   57 1    
   114   57   58 1    
   115   57   59 1    
   116   57  180 1    
   117   58  181 1    
   118   58  182 1    
   119   58  183 1    
   120   59   60 am   BACKBONE|DICT|INTERRES
   121   59  184 1    
   122   60   61 2    
   123   60   62 1    
   124   62   63 1    
   125   62   64 1    
   126   62  185 1    
   127   63  186 1    
   128   63  187 1    
   129   63  188 1    
   130   64   65 am   BACKBONE|DICT|INTERRES
   131   64  189 1    
   132   65   66 2    
   133   67   68 2    
   134   67   69 am   BACKBONE|DICT|INTERRES
   135   69   70 1    
   136   69  190 1    
   137   70   71 1    
   138   70   72 1    
   139   70  191 1    
   140   71  192 1    
   141   71  193 1    
   142   71  194 1    
   143   72   73 2    
   144   72   74 am   BACKBONE|DICT|INTERRES
   145   74   75 1    
   146   74  195 1    
   147   75   76 1    
   148   75   77 1    
   149   75  196 1    
   150   76  197 1    
   151   76  198 1    
   152   76  199 1    
   153   77   78 2    
   154   77   79 am   BACKBONE|DICT|INTERRES
   155   79   80 1    
   156   79  200 1    
   157   80   81 1    
   158   80   82 1    
   159   80  201 1    
   160   81  202 1    
   161   81  203 1    
   162   81  204 1    
   163   82   83 2    
   164   82   84 am   BACKBONE|DICT|INTERRES
   165   84   85 1    
   166   84  205 1    
   167   85   86 1    
   168   85   87 1    
   169   85  206 1    
   170   86  207 1    
   171   86  208 1    
   172   86  209 1    
   173   87   88 2    
   174   87   89 am   BACKBONE|DICT|INTERRES
   175   89   90 1    
   176   89  210 1    
   177   90   91 1    
   178   90   92 1    
   179   90  211 1    
   180   91  212 1    
   181   91  213 1    
   182   91  214 1    
   183   92   93 2    
   184   92   94 am   BACKBONE|DICT|INTERRES
   185   94   95 1    
   186   94  215 1    
   187   95   96 1    
   188   95   97 1    
   189   95  216 1    
   190   96  217 1    
   191   96  218 1    
   192   96  219 1    
   193   97   98 2    
   194   97   99 am   BACKBONE|DICT|INTERRES
   195   99  100 1    
   196   99  220 1    
   197  100  101 1    
   198  100  102 1    
   199  100  221 1    
   200  101  222 1    
   201  101  223 1    
   202  101  224 1    
   203  102  103 2    
   204  102  104 am   BACKBONE|DICT|INTERRES
   205  104  105 1    
   206  104  225 1    
   207  105  106 1    
   208  105  107 1    
   209  105  226 1    
   210  106  227 1    
   211  106  228 1    
   212  106  229 1    
   213  107  108 2    
   214  107  109 am   BACKBONE|DICT|INTERRES
   215  109  110 1    
   216  109  230 1    
   217  110  111 1    
   218  110  112 1    
   219  110  231 1    
   220  111  232 1    
   221  111  233 1    
   222  111  234 1    
   223  112  113 2    
   224  112  114 am   BACKBONE|DICT|INTERRES
   225  114  115 1    
   226  114  235 1    
   227  115  116 1    
   228  115  117 1    
   229  115  236 1    
   230  116  237 1    
   231  116  238 1    
   232  116  239 1    
   233  117  118 2    
   234  117  119 am   BACKBONE|DICT|INTERRES
   235  119  120 1    
   236  119  240 1    
   237  120  121 1    
   238  120  124 1    
   239  120  241 1    
   240  121  122 am   BACKBONE|DICT|INTERRES
   241  121  123 2    
   242  122  242 1    
   243  122  243 1    
   244  124  125 1    
   245  124  244 1    
   246  124  245 1    
   247  125  126 1    
   248  126  246 1    
   249  126  247 1    
@<TRIPOS>SUBSTRUCTURE
     1 UNK         1 GROUP             0       ****    0 ROOT    
