@<TRIPOS>MOLECULE
3R540
247   249    1
SMALL
USER_CHARGES


@<TRIPOS>ATOM
      1 CA         -1.7653  -11.6095  -43.7591 C.3       0 UNK        -0.1800 
      2 C          -1.5934  -11.6343  -45.2714 C.2       0 UNK         0.5000 
      3 O          -1.7098  -10.5943  -45.9207 O.2       0 UNK        -0.5000 
      4 N          -1.3082  -12.8134  -45.8373 N.am      1 UNK        -0.5000 
      5 CA         -1.1129  -13.0676  -47.2711 C.3       1 UNK         0.1400 
      6 C6         -1.3569  -14.5591  -47.6213 C.3       23 UNK        -0.0398 
      7 S7         -3.0770  -15.0772  -47.2882 S.3       23 UNK        -0.2404 
      8 C8         -3.7065  -15.4027  -48.9686 C.3       23 UNK        -0.0205 
      9 C9         -3.5493  -16.8660  -49.3607 C.ar      23 UNK        -0.0193 
     10 C10        -4.6719  -17.6989  -49.4286 C.ar      23 UNK        -0.1150 
     11 C11        -4.5406  -19.0431  -49.7892 C.ar      23 UNK        -0.0193 
     12 C12        -3.2686  -19.5565  -50.0509 C.ar      23 UNK        -0.1150 
     13 C13        -2.1373  -18.7390  -49.9932 C.ar      23 UNK        -0.0193 
     14 C14        -2.2885  -17.3879  -49.6677 C.ar      23 UNK        -0.1150 
     15 C15        -0.7737  -19.3358  -50.3262 C.3       23 UNK        -0.0205 
     16 S16         0.5947  -18.8130  -49.2370 S.3       23 UNK        -0.2404 
     17 C17        -0.0417  -19.1263  -47.5568 C.3       23 UNK        -0.0398 
     18 CA         -0.1325  -20.6307  -47.1763 C.3       11 UNK         0.1400 
     19 N           0.3674  -20.8925  -45.8226 N.am      11 UNK        -0.5000 
     20 C           0.4760  -22.1011  -45.2511 C.2       10 UNK         0.5000 
     21 O           0.2463  -23.1600  -45.8361 O.2       10 UNK        -0.5000 
     22 CA          0.8405  -22.1260  -43.7537 C.3       10 UNK         0.1400 
     23 CB          2.3584  -22.0142  -43.5486 C.3       10 UNK        -0.1800 
     24 N           0.1551  -21.0765  -42.9944 N.am      10 UNK        -0.5000 
     25 C          -1.1752  -21.0170  -42.8317 C.2       9 UNK         0.5000 
     26 O          -1.9496  -21.8778  -43.2462 O.2       9 UNK        -0.5000 
     27 CA         -1.7466  -19.7687  -42.1370 C.3       9 UNK         0.1400 
     28 CB         -1.6543  -19.9036  -40.6101 C.3       9 UNK        -0.1800 
     29 N          -1.0964  -18.5318  -42.5713 N.am      9 UNK        -0.5000 
     30 C          -1.1320  -18.0525  -43.8234 C.2       8 UNK         0.5000 
     31 O          -1.7641  -18.5788  -44.7380 O.2       8 UNK        -0.5000 
     32 CA         -0.2674  -16.8145  -44.1223 C.3       8 UNK         0.1400 
     33 CB         -0.9705  -15.5261  -43.6749 C.3       8 UNK        -0.1800 
     34 N           1.0521  -16.8904  -43.4977 N.am      8 UNK        -0.5000 
     35 C           1.9758  -17.8215  -43.7709 C.2       7 UNK         0.5000 
     36 O           1.8336  -18.6951  -44.6245 O.2       7 UNK        -0.5000 
     37 CA          3.2451  -17.8098  -42.9043 C.3       7 UNK         0.1400 
     38 CB          4.2510  -16.7634  -43.4051 C.3       7 UNK        -0.1800 
     39 N           2.9337  -17.5601  -41.4978 N.am      7 UNK        -0.5000 
     40 C           2.3181  -18.4378  -40.6942 C.2       6 UNK         0.5000 
     41 O           1.9856  -19.5699  -41.0466 O.2       6 UNK        -0.5000 
     42 CA          1.9892  -17.9526  -39.2697 C.3       6 UNK         0.1400 
     43 CB          3.2077  -18.1120  -38.3484 C.3       6 UNK        -0.1800 
     44 N           1.5351  -16.5601  -39.2373 N.am      6 UNK        -0.5000 
     45 C           0.3724  -16.1362  -39.7522 C.2       5 UNK         0.5000 
     46 O          -0.4473  -16.8809  -40.2867 O.2       5 UNK        -0.5000 
     47 CA          0.0963  -14.6210  -39.7060 C.3       5 UNK         0.1400 
     48 CB         -0.5374  -14.2301  -38.3627 C.3       5 UNK        -0.1800 
     49 N           1.2763  -13.7841  -39.9489 N.am      5 UNK        -0.5000 
     50 C           2.0435  -13.8388  -41.0455 C.2       4 UNK         0.5000 
     51 O           1.8913  -14.6714  -41.9417 O.2       4 UNK        -0.5000 
     52 CA          3.1999  -12.8230  -41.1264 C.3       4 UNK         0.1400 
     53 CB          4.3822  -13.3014  -40.2684 C.3       4 UNK        -0.1800 
     54 N           3.6752  -12.6170  -42.4967 N.am      4 UNK        -0.5000 
     55 C           2.9440  -12.1184  -43.5016 C.2       3 UNK         0.5000 
     56 O           1.7961  -11.6814  -43.3683 O.2       3 UNK        -0.5000 
     57 CA          3.6085  -12.1171  -44.8882 C.3       3 UNK         0.1400 
     58 CB          3.9697  -13.5464  -45.3428 C.3       3 UNK        -0.1800 
     59 N           2.6816  -11.5178  -45.8389 N.am      3 UNK        -0.5000 
     60 C           2.9712  -11.0489  -47.0566 C.2       2 UNK         0.5000 
     61 O           4.1143  -11.0060  -47.5157 O.2       2 UNK        -0.5000 
     62 CA          1.7721  -10.5505  -47.8952 C.3       2 UNK         0.1400 
     63 CB          2.0578  -10.5516  -49.4116 C.3       2 UNK        -0.1800 
     64 N           0.5232  -11.2679  -47.6010 N.am      2 UNK        -0.5000 
     65 C           0.2793  -12.5804  -47.7372 C.2       1 UNK         0.5000 
     66 O           1.1016  -13.3874  -48.1734 O.2       1 UNK        -0.5000 
     67 C          -1.5713  -21.1590  -47.3457 C.2       11 UNK         0.5000 
     68 O          -1.8357  -21.9251  -48.2707 O.2       11 UNK        -0.5000 
     69 N          -2.4610  -20.7741  -46.4203 N.am      12 UNK        -0.5000 
     70 CA         -3.8667  -21.1737  -46.3947 C.3       12 UNK         0.1400 
     71 CB         -4.6048  -20.3758  -45.3105 C.3       12 UNK        -0.1800 
     72 C          -4.0748  -22.6875  -46.2041 C.2       12 UNK         0.5000 
     73 O          -4.9977  -23.2449  -46.7972 O.2       12 UNK        -0.5000 
     74 N          -3.2101  -23.3265  -45.4035 N.am      13 UNK        -0.5000 
     75 CA         -3.1845  -24.7742  -45.1938 C.3       13 UNK         0.1400 
     76 CB         -2.2717  -25.1083  -44.0042 C.3       13 UNK        -0.1800 
     77 C          -2.7487  -25.5481  -46.4518 C.2       13 UNK         0.5000 
     78 O          -3.3246  -26.5970  -46.7441 O.2       13 UNK        -0.5000 
     79 N          -1.7566  -25.0153  -47.1798 N.am      14 UNK        -0.5000 
     80 CA         -1.3089  -25.5393  -48.4718 C.3       14 UNK         0.1400 
     81 CB          0.0449  -24.9112  -48.8342 C.3       14 UNK        -0.1800 
     82 C          -2.3433  -25.3026  -49.5887 C.2       14 UNK         0.5000 
     83 O          -2.5320  -26.1730  -50.4398 O.2       14 UNK        -0.5000 
     84 N          -3.0024  -24.1366  -49.5522 N.am      15 UNK        -0.5000 
     85 CA         -4.0477  -23.6760  -50.4644 C.3       15 UNK         0.1400 
     86 CB         -5.3502  -24.4770  -50.2439 C.3       15 UNK        -0.1800 
     87 C          -3.5454  -23.6639  -51.9211 C.2       15 UNK         0.5000 
     88 O          -2.5339  -23.0186  -52.2001 O.2       15 UNK        -0.5000 
     89 N          -4.2117  -24.4126  -52.8087 N.am      16 UNK        -0.5000 
     90 CA         -3.8877  -24.5663  -54.2290 C.3       16 UNK         0.1400 
     91 CB         -5.0334  -25.3343  -54.9073 C.3       16 UNK        -0.1800 
     92 C          -2.5295  -25.2441  -54.5226 C.2       16 UNK         0.5000 
     93 O          -2.1122  -25.2629  -55.6807 O.2       16 UNK        -0.5000 
     94 N          -1.8572  -25.7926  -53.4992 N.am      17 UNK        -0.5000 
     95 CA         -0.4788  -26.2763  -53.6037 C.3       17 UNK         0.1400 
     96 CB         -0.2185  -27.3222  -52.5088 C.3       17 UNK        -0.1800 
     97 C           0.5577  -25.1355  -53.5196 C.2       17 UNK         0.5000 
     98 O           1.7005  -25.3430  -53.9296 O.2       17 UNK        -0.5000 
     99 N           0.1594  -23.9708  -52.9876 N.am      18 UNK        -0.5000 
    100 CA         1.0076  -22.7907  -52.8168 C.3       18 UNK         0.1400 
    101 CB         1.0730  -22.4319  -51.3242 C.3       18 UNK        -0.1800 
    102 C          0.4964  -21.6063  -53.6539 C.2       18 UNK         0.5000 
    103 O          1.2910  -20.9671  -54.3451 O.2       18 UNK        -0.5000 
    104 N         -0.8144  -21.3421  -53.5961 N.am      19 UNK        -0.5000 
    105 CA        -1.5085  -20.3626  -54.4303 C.3       19 UNK         0.1400 
    106 CB        -2.7646  -19.8848  -53.6849 C.3       19 UNK        -0.1800 
    107 C         -1.9011  -20.9686  -55.7890 C.2       19 UNK         0.5000 
    108 O         -1.7661  -22.1752  -55.9960 O.2       19 UNK        -0.5000 
    109 N         -2.4265  -20.1225  -56.6851 N.am      20 UNK        -0.5000 
    110 CA        -2.9814  -20.5365  -57.9774 C.3       20 UNK         0.1400 
    111 CB        -3.2446  -19.2908  -58.8373 C.3       20 UNK        -0.1800 
    112 C         -4.2660  -21.3801  -57.8398 C.2       20 UNK         0.5000 
    113 O         -4.4913  -22.2730  -58.6574 O.2       20 UNK        -0.5000 
    114 N         -5.0654  -21.0922  -56.8033 N.am      21 UNK        -0.5000 
    115 CA        -6.2800  -21.8182  -56.4333 C.3       21 UNK         0.1400 
    116 CB        -7.3947  -21.6382  -57.4847 C.3       21 UNK        -0.1800 
    117 C         -6.7679  -21.3634  -55.0509 C.2       21 UNK         0.5000 
    118 O         -7.0402  -22.2104  -54.2031 O.2       21 UNK        -0.5000 
    119 N         -6.8775  -20.0365  -54.8772 N.am      22 UNK        -0.5000 
    120 CA        -7.3538  -19.2973  -53.6874 C.3       22 UNK         0.1400 
    121 C         -8.7892  -19.6237  -53.1650 C.2       22 UNK         0.5000 
    122 N         -9.6123  -20.3644  -53.8961 N.am      22 UNK        -0.7600 
    123 O         -9.1877  -19.1525  -52.1030 O.2       22 UNK        -0.5000 
    124 C124       -6.2852  -19.1513  -52.5653 C.3       23 UNK        -0.0398 
    125 S125       -5.9624  -20.6464  -51.5678 S.3       23 UNK        -0.2404 
    126 C126       -5.7678  -19.9409  -49.8987 C.3       23 UNK        -0.0205 
    127 H127       -1.6642  -12.6018  -43.3200 H         1 UNK         0.0600 
    128 H128       -2.7504  -11.2222  -43.4996 H         1 UNK         0.0600 
    129 H129       -1.0130  -10.9622  -43.3083 H         1 UNK         0.0600 
    130 H130       -1.2217  -13.6257  -45.2458 H         1 UNK         0.3000 
    131 H131       -1.8467  -12.4791  -47.8264 H         1 UNK         0.0600 
    132 H132       -0.6853  -15.2049  -47.0539 H         1 UNK         0.0800 
    133 H133       -1.1259  -14.7373  -48.6717 H         1 UNK         0.0800 
    134 H134       -3.2090  -14.7635  -49.6990 H         1 UNK         0.0800 
    135 H135       -4.7597  -15.1195  -48.9964 H         1 UNK         0.0800 
    136 H136       -5.6509  -17.2975  -49.2080 H         1 UNK         0.1150 
    137 H137       -3.1605  -20.5962  -50.3245 H         1 UNK         0.1150 
    138 H138       -1.4188  -16.7495  -49.6394 H         1 UNK         0.1150 
    139 H139       -0.8314  -20.4226  -50.3007 H         1 UNK         0.0800 
    140 H140       -0.5176  -19.0698  -51.3522 H         1 UNK         0.0800 
    141 H141        0.6581  -18.6169  -46.8960 H         1 UNK         0.0800 
    142 H142       -0.9847  -18.5954  -47.4131 H         1 UNK         0.0800 
    143 H143        0.5069  -21.2054  -47.8499 H         1 UNK         0.0600 
    144 H144        0.6396  -20.0804  -45.2765 H         1 UNK         0.3000 
    145 H145        0.5188  -23.0890  -43.3521 H         1 UNK         0.0600 
    146 H146        2.6190  -22.0838  -42.4923 H         1 UNK         0.0600 
    147 H147        2.8807  -22.8191  -44.0670 H         1 UNK         0.0600 
    148 H148        2.7523  -21.0717  -43.9276 H         1 UNK         0.0600 
    149 H149        0.7339  -20.3521  -42.5849 H         1 UNK         0.3000 
    150 H150       -2.8027  -19.6973  -42.4044 H         1 UNK         0.0600 
    151 H151       -2.1381  -20.8196  -40.2688 H         1 UNK         0.0600 
    152 H152       -2.1491  -19.0704  -40.1111 H         1 UNK         0.0600 
    153 H153       -0.6195  -19.9314  -40.2688 H         1 UNK         0.0600 
    154 H154       -0.6065  -18.0028  -41.8555 H         1 UNK         0.3000 
    155 H155       -0.1182  -16.7646  -45.2025 H         1 UNK         0.0600 
    156 H156       -0.3452  -14.6544  -43.8669 H         1 UNK         0.0600 
    157 H157       -1.1967  -15.5415  -42.6088 H         1 UNK         0.0600 
    158 H158       -1.9126  -15.3914  -44.2077 H         1 UNK         0.0600 
    159 H159        1.2772  -16.1737  -42.8108 H         1 UNK         0.3000 
    160 H160        3.7126  -18.7935  -42.9845 H         1 UNK         0.0600 
    161 H161        3.8599  -15.7514  -43.3092 H         1 UNK         0.0600 
    162 H162        4.4921  -16.9245  -44.4566 H         1 UNK         0.0600 
    163 H163        5.1845  -16.8150  -42.8449 H         1 UNK         0.0600 
    164 H164        3.1057  -16.6264  -41.1550 H         1 UNK         0.3000 
    165 H165        1.1851  -18.5820  -38.8824 H         1 UNK         0.0600 
    166 H166        4.0410  -17.4848  -38.6677 H         1 UNK         0.0600 
    167 H167        2.9617  -17.8462  -37.3202 H         1 UNK         0.0600 
    168 H168        3.5581  -19.1451  -38.3409 H         1 UNK         0.0600 
    169 H169        2.1548  -15.8822  -38.8190 H         1 UNK         0.3000 
    170 H170       -0.6243  -14.3991  -40.4955 H         1 UNK         0.0600 
    171 H171       -1.4306  -14.8243  -38.1645 H         1 UNK         0.0600 
    172 H172        0.1515  -14.3854  -37.5316 H         1 UNK         0.0600 
    173 H173       -0.8393  -13.1826  -38.3584 H         1 UNK         0.0600 
    174 H174        1.4785  -13.0857  -39.2482 H         1 UNK         0.3000 
    175 H175        2.8449  -11.8643  -40.7430 H         1 UNK         0.0600 
    176 H176        5.1980  -12.5783  -40.2828 H         1 UNK         0.0600 
    177 H177        4.0878  -13.4322  -39.2264 H         1 UNK         0.0600 
    178 H178        4.7743  -14.2565  -40.6210 H         1 UNK         0.0600 
    179 H179        4.5997  -12.9660  -42.6998 H         1 UNK         0.3000 
    180 H180        4.5108  -11.5047  -44.8351 H         1 UNK         0.0600 
    181 H181        4.3686  -13.5569  -46.3570 H         1 UNK         0.0600 
    182 H182        4.7337  -13.9838  -44.7005 H         1 UNK         0.0600 
    183 H183        3.0996  -14.2045  -45.3221 H         1 UNK         0.0600 
    184 H184        1.7300  -11.4638  -45.4978 H         1 UNK         0.3000 
    185 H185        1.6052   -9.5156  -47.5936 H         1 UNK         0.0600 
    186 H186        1.1986  -10.1879  -49.9750 H         1 UNK         0.0600 
    187 H187        2.8998   -9.9014  -49.6519 H         1 UNK         0.0600 
    188 H188        2.3015  -11.5494  -49.7774 H         1 UNK         0.0600 
    189 H189       -0.2156  -10.7131  -47.1765 H         1 UNK         0.3000 
    190 H190       -2.1670  -20.1106  -45.7067 H         1 UNK         0.3000 
    191 H191       -4.2938  -20.9044  -47.3605 H         1 UNK         0.0600 
    192 H192       -5.6664  -20.6251  -45.2963 H         1 UNK         0.0600 
    193 H193       -4.5238  -19.3031  -45.4882 H         1 UNK         0.0600 
    194 H194       -4.2042  -20.5823  -44.3179 H         1 UNK         0.0600 
    195 H195       -2.5342  -22.7776  -44.8807 H         1 UNK         0.3000 
    196 H196       -4.1975  -25.0945  -44.9415 H         1 UNK         0.0600 
    197 H197       -2.2527  -26.1824  -43.8159 H         1 UNK         0.0600 
    198 H198       -2.6206  -24.6243  -43.0919 H         1 UNK         0.0600 
    199 H199       -1.2450  -24.7875  -44.1812 H         1 UNK         0.0600 
    200 H200       -1.3027  -24.1713  -46.8472 H         1 UNK         0.3000 
    201 H201       -1.1664  -26.6177  -48.3761 H         1 UNK         0.0600 
    202 H202        0.8082  -25.1755  -48.1023 H         1 UNK         0.0600 
    203 H203       -0.0145  -23.8236  -48.8704 H         1 UNK         0.0600 
    204 H204        0.3929  -25.2553  -49.8085 H         1 UNK         0.0600 
    205 H205       -2.6810  -23.4397  -48.8836 H         1 UNK         0.3000 
    206 H206       -4.2467  -22.6403  -50.1942 H         1 UNK         0.0600 
    207 H207       -5.6738  -24.4086  -49.2054 H         1 UNK         0.0600 
    208 H208       -6.1628  -24.0825  -50.8555 H         1 UNK         0.0600 
    209 H209       -5.2313  -25.5351  -50.4792 H         1 UNK         0.0600 
    210 H210       -5.0129  -24.9310  -52.4797 H         1 UNK         0.3000 
    211 H211       -3.8443  -23.5654  -54.6634 H         1 UNK         0.0600 
    212 H212       -5.1168  -26.3514  -54.5224 H         1 UNK         0.0600 
    213 H213       -4.8762  -25.4017  -55.9847 H         1 UNK         0.0600 
    214 H214       -5.9909  -24.8370  -54.7516 H         1 UNK         0.0600 
    215 H215       -2.2686  -25.7860  -52.5726 H         1 UNK         0.3000 
    216 H216       -0.3483  -26.7702  -54.5689 H         1 UNK         0.0600 
    217 H217        0.7603  -27.7850  -52.6400 H         1 UNK         0.0600 
    218 H218       -0.9615  -28.1194  -52.5360 H         1 UNK         0.0600 
    219 H219       -0.2356  -26.8797  -51.5136 H         1 UNK         0.0600 
    220 H220       -0.8128  -23.8637  -52.7186 H         1 UNK         0.3000 
    221 H221        2.0267  -22.9956  -53.1512 H         1 UNK         0.0600 
    222 H222        0.0790  -22.3953  -50.8790 H         1 UNK         0.0600 
    223 H223        1.6535  -23.1719  -50.7736 H         1 UNK         0.0600 
    224 H224        1.5491  -21.4633  -51.1656 H         1 UNK         0.0600 
    225 H225       -1.4158  -21.9439  -53.0365 H         1 UNK         0.3000 
    226 H226       -0.8573  -19.5044  -54.6085 H         1 UNK         0.0600 
    227 H227       -2.5046  -19.4312  -52.7318 H         1 UNK         0.0600 
    228 H228       -3.3028  -19.1279  -54.2554 H         1 UNK         0.0600 
    229 H229       -3.4560  -20.7055  -53.4889 H         1 UNK         0.0600 
    230 H230       -2.4898  -19.1401  -56.4600 H         1 UNK         0.3000 
    231 H231       -2.2354  -21.1504  -58.4868 H         1 UNK         0.0600 
    232 H232       -3.6378  -19.5688  -59.8161 H         1 UNK         0.0600 
    233 H233       -2.3271  -18.7265  -59.0058 H         1 UNK         0.0600 
    234 H234       -3.9696  -18.6232  -58.3701 H         1 UNK         0.0600 
    235 H235       -4.7680  -20.3743  -56.1586 H         1 UNK         0.3000 
    236 H236       -6.0335  -22.8794  -56.3650 H         1 UNK         0.0600 
    237 H237       -7.6066  -20.5853  -57.6736 H         1 UNK         0.0600 
    238 H238       -7.1294  -22.0993  -58.4355 H         1 UNK         0.0600 
    239 H239       -8.3226  -22.1071  -57.1545 H         1 UNK         0.0600 
    240 H240       -6.6879  -19.4502  -55.6771 H         1 UNK         0.3000 
    241 H241       -7.4819  -18.2869  -54.0773 H         1 UNK         0.0600 
    242 H242      -10.5421  -20.5536  -53.5564 H         1 UNK         0.3800 
    243 H243       -9.3025  -20.7697  -54.7639 H         1 UNK         0.3800 
    244 H244       -6.5826  -18.3441  -51.8943 H         1 UNK         0.0800 
    245 H245       -5.3407  -18.8235  -52.9970 H         1 UNK         0.0800 
    246 H246       -5.6807  -20.7604  -49.1858 H         1 UNK         0.0800 
    247 H247       -6.6765  -19.3988  -49.6321 H         1 UNK         0.0800 
@<TRIPOS>BOND
     1    1    2 1    
     2    1  127 1    
     3    1  128 1    
     4    1  129 1    
     5    2    3 2    
     6    2    4 am   BACKBONE|DICT|INTERRES
     7    4    5 1    
     8    4  130 1    
     9    5    6 1    
    10    5   65 1    
    11    5  131 1    
    12    6    7 1    
    13    6  132 1    
    14    6  133 1    
    15    7    8 1    
    16    8    9 1    
    17    8  134 1    
    18    8  135 1    
    19    9   10 ar   
    20    9   14 ar   
    21   10   11 ar   
    22   10  136 1    
    23   11   12 ar   
    24   11  126 1    
    25   12   13 ar   
    26   12  137 1    
    27   13   14 ar   
    28   13   15 1    
    29   14  138 1    
    30   15   16 1    
    31   15  139 1    
    32   15  140 1    
    33   16   17 1    
    34   17   18 1    
    35   17  141 1    
    36   17  142 1    
    37   18   19 1    
    38   18   67 1    
    39   18  143 1    
    40   19   20 am   BACKBONE|DICT|INTERRES
    41   19  144 1    
    42   20   21 2    
    43   20   22 1    
    44   22   23 1    
    45   22   24 1    
    46   22  145 1    
    47   23  146 1    
    48   23  147 1    
    49   23  148 1    
    50   24   25 am   BACKBONE|DICT|INTERRES
    51   24  149 1    
    52   25   26 2    
    53   25   27 1    
    54   27   28 1    
    55   27   29 1    
    56   27  150 1    
    57   28  151 1    
    58   28  152 1    
    59   28  153 1    
    60   29   30 am   BACKBONE|DICT|INTERRES
    61   29  154 1    
    62   30   31 2    
    63   30   32 1    
    64   32   33 1    
    65   32   34 1    
    66   32  155 1    
    67   33  156 1    
    68   33  157 1    
    69   33  158 1    
    70   34   35 am   BACKBONE|DICT|INTERRES
    71   34  159 1    
    72   35   36 2    
    73   35   37 1    
    74   37   38 1    
    75   37   39 1    
    76   37  160 1    
    77   38  161 1    
    78   38  162 1    
    79   38  163 1    
    80   39   40 am   BACKBONE|DICT|INTERRES
    81   39  164 1    
    82   40   41 2    
    83   40   42 1    
    84   42   43 1    
    85   42   44 1    
    86   42  165 1    
    87   43  166 1    
    88   43  167 1    
    89   43  168 1    
    90   44   45 am   BACKBONE|DICT|INTERRES
    91   44  169 1    
    92   45   46 2    
    93   45   47 1    
    94   47   48 1    
    95   47   49 1    
    96   47  170 1    
    97   48  171 1    
    98   48  172 1    
    99   48  173 1    
   100   49   50 am   BACKBONE|DICT|INTERRES
   101   49  174 1    
   102   50   51 2    
   103   50   52 1    
   104   52   53 1    
   105   52   54 1    
   106   52  175 1    
   107   53  176 1    
   108   53  177 1    
   109   53  178 1    
   110   54   55 am   BACKBONE|DICT|INTERRES
   111   54  179 1    
   112   55   56 2    
   113   55   57 1    
   114   57   58 1    
   115   57   59 1    
   116   57  180 1    
   117   58  181 1    
   118   58  182 1    
   119   58  183 1    
   120   59   60 am   BACKBONE|DICT|INTERRES
   121   59  184 1    
   122   60   61 2    
   123   60   62 1    
   124   62   63 1    
   125   62   64 1    
   126   62  185 1    
   127   63  186 1    
   128   63  187 1    
   129   63  188 1    
   130   64   65 am   BACKBONE|DICT|INTERRES
   131   64  189 1    
   132   65   66 2    
   133   67   68 2    
   134   67   69 am   BACKBONE|DICT|INTERRES
   135   69   70 1    
   136   69  190 1    
   137   70   71 1    
   138   70   72 1    
   139   70  191 1    
   140   71  192 1    
   141   71  193 1    
   142   71  194 1    
   143   72   73 2    
   144   72   74 am   BACKBONE|DICT|INTERRES
   145   74   75 1    
   146   74  195 1    
   147   75   76 1    
   148   75   77 1    
   149   75  196 1    
   150   76  197 1    
   151   76  198 1    
   152   76  199 1    
   153   77   78 2    
   154   77   79 am   BACKBONE|DICT|INTERRES
   155   79   80 1    
   156   79  200 1    
   157   80   81 1    
   158   80   82 1    
   159   80  201 1    
   160   81  202 1    
   161   81  203 1    
   162   81  204 1    
   163   82   83 2    
   164   82   84 am   BACKBONE|DICT|INTERRES
   165   84   85 1    
   166   84  205 1    
   167   85   86 1    
   168   85   87 1    
   169   85  206 1    
   170   86  207 1    
   171   86  208 1    
   172   86  209 1    
   173   87   88 2    
   174   87   89 am   BACKBONE|DICT|INTERRES
   175   89   90 1    
   176   89  210 1    
   177   90   91 1    
   178   90   92 1    
   179   90  211 1    
   180   91  212 1    
   181   91  213 1    
   182   91  214 1    
   183   92   93 2    
   184   92   94 am   BACKBONE|DICT|INTERRES
   185   94   95 1    
   186   94  215 1    
   187   95   96 1    
   188   95   97 1    
   189   95  216 1    
   190   96  217 1    
   191   96  218 1    
   192   96  219 1    
   193   97   98 2    
   194   97   99 am   BACKBONE|DICT|INTERRES
   195   99  100 1    
   196   99  220 1    
   197  100  101 1    
   198  100  102 1    
   199  100  221 1    
   200  101  222 1    
   201  101  223 1    
   202  101  224 1    
   203  102  103 2    
   204  102  104 am   BACKBONE|DICT|INTERRES
   205  104  105 1    
   206  104  225 1    
   207  105  106 1    
   208  105  107 1    
   209  105  226 1    
   210  106  227 1    
   211  106  228 1    
   212  106  229 1    
   213  107  108 2    
   214  107  109 am   BACKBONE|DICT|INTERRES
   215  109  110 1    
   216  109  230 1    
   217  110  111 1    
   218  110  112 1    
   219  110  231 1    
   220  111  232 1    
   221  111  233 1    
   222  111  234 1    
   223  112  113 2    
   224  112  114 am   BACKBONE|DICT|INTERRES
   225  114  115 1    
   226  114  235 1    
   227  115  116 1    
   228  115  117 1    
   229  115  236 1    
   230  116  237 1    
   231  116  238 1    
   232  116  239 1    
   233  117  118 2    
   234  117  119 am   BACKBONE|DICT|INTERRES
   235  119  120 1    
   236  119  240 1    
   237  120  121 1    
   238  120  124 1    
   239  120  241 1    
   240  121  122 am   BACKBONE|DICT|INTERRES
   241  121  123 2    
   242  122  242 1    
   243  122  243 1    
   244  124  125 1    
   245  124  244 1    
   246  124  245 1    
   247  125  126 1    
   248  126  246 1    
   249  126  247 1    
@<TRIPOS>SUBSTRUCTURE
     1 UNK         1 GROUP             0       ****    0 ROOT    
