@<TRIPOS>MOLECULE
3R540
247   249    1
SMALL
USER_CHARGES


@<TRIPOS>ATOM
      1 CA          3.9843   -9.7045  -49.9220 C.3       0 UNK        -0.1800 
      2 C           3.6005  -10.7737  -48.9099 C.2       0 UNK         0.5000 
      3 O           3.9029  -10.6336  -47.7252 O.2       0 UNK        -0.5000 
      4 N           2.9180  -11.8332  -49.3647 N.am      1 UNK        -0.5000 
      5 CA          2.4698  -12.9757  -48.5537 C.3       1 UNK         0.1400 
      6 C6          1.9018  -14.1240  -49.4241 C.3       23 UNK        -0.0398 
      7 S7          0.5305  -13.6101  -50.5169 S.3       23 UNK        -0.2404 
      8 C8          0.5381  -14.9525  -51.7456 C.3       23 UNK        -0.0205 
      9 C9          0.1073  -16.2832  -51.1459 C.ar      23 UNK        -0.0193 
     10 C10        -1.2024  -16.4519  -50.6945 C.ar      23 UNK        -0.1150 
     11 C11        -1.6232  -17.6742  -50.1626 C.ar      23 UNK        -0.0193 
     12 C12        -0.7181  -18.7384  -50.1068 C.ar      23 UNK        -0.1150 
     13 C13         0.5987  -18.5949  -50.5661 C.ar      23 UNK        -0.0193 
     14 C14         1.0016  -17.3543  -51.0717 C.ar      23 UNK        -0.1150 
     15 C15         1.6242  -19.7340  -50.5562 C.3       23 UNK        -0.0205 
     16 S16         0.9741  -21.4184  -50.2658 S.3       23 UNK        -0.2404 
     17 C17         0.8873  -21.4282  -48.4433 C.3       23 UNK        -0.0398 
     18 CA          0.2712  -22.6849  -47.7747 C.3       11 UNK         0.1400 
     19 N           0.1262  -22.4716  -46.3331 N.am      11 UNK        -0.5000 
     20 C          -0.2794  -23.3798  -45.4378 C.2       10 UNK         0.5000 
     21 O          -0.5242  -24.5523  -45.7179 O.2       10 UNK        -0.5000 
     22 CA         -0.4978  -22.8836  -43.9962 C.3       10 UNK         0.1400 
     23 CB          0.8267  -22.8663  -43.2208 C.3       10 UNK        -0.1800 
     24 N          -1.1274  -21.5608  -43.9378 N.am      10 UNK        -0.5000 
     25 C          -2.3620  -21.2944  -44.3907 C.2       9 UNK         0.5000 
     26 O          -3.1082  -22.1461  -44.8699 O.2       9 UNK        -0.5000 
     27 CA         -2.8295  -19.8289  -44.3533 C.3       9 UNK         0.1400 
     28 CB         -3.2636  -19.4262  -42.9365 C.3       9 UNK        -0.1800 
     29 N          -1.8126  -18.9019  -44.8482 N.am      9 UNK        -0.5000 
     30 C          -1.3262  -18.9068  -46.0978 C.2       8 UNK         0.5000 
     31 O          -1.7284  -19.6678  -46.9786 O.2       8 UNK        -0.5000 
     32 CA         -0.1447  -17.9573  -46.3851 C.3       8 UNK         0.1400 
     33 CB         -0.6239  -16.5168  -46.6149 C.3       8 UNK        -0.1800 
     34 N           0.8517  -17.9795  -45.3116 N.am      8 UNK        -0.5000 
     35 C           1.5671  -19.0594  -44.9645 C.2       7 UNK         0.5000 
     36 O           1.5190  -20.1313  -45.5642 O.2       7 UNK        -0.5000 
     37 CA          2.4399  -18.9454  -43.7050 C.3       7 UNK         0.1400 
     38 CB          3.8129  -18.3412  -44.0363 C.3       7 UNK        -0.1800 
     39 N           1.7782  -18.1569  -42.6664 N.am      7 UNK        -0.5000 
     40 C           0.7497  -18.5995  -41.9292 C.2       6 UNK         0.5000 
     41 O           0.2858  -19.7361  -42.0225 O.2       6 UNK        -0.5000 
     42 CA          0.1087  -17.5955  -40.9513 C.3       6 UNK         0.1400 
     43 CB          0.8698  -17.5799  -39.6175 C.3       6 UNK        -0.1800 
     44 N           0.0482  -16.2356  -41.4904 N.am      6 UNK        -0.5000 
     45 C          -0.7124  -15.8701  -42.5317 C.2       5 UNK         0.5000 
     46 O          -1.4848  -16.6335  -43.1087 O.2       5 UNK        -0.5000 
     47 CA         -0.5505  -14.4276  -43.0501 C.3       5 UNK         0.1400 
     48 CB         -1.5419  -13.4883  -42.3485 C.3       5 UNK        -0.1800 
     49 N           0.8036  -13.8789  -42.9259 N.am      5 UNK        -0.5000 
     50 C           1.9170  -14.4318  -43.4285 C.2       4 UNK         0.5000 
     51 O           1.9410  -15.5342  -43.9772 O.2       4 UNK        -0.5000 
     52 CA          3.1963  -13.5886  -43.3178 C.3       4 UNK         0.1400 
     53 CB          4.4084  -14.2427  -44.0052 C.3       4 UNK        -0.1800 
     54 N           2.9405  -12.2927  -43.9357 N.am      4 UNK        -0.5000 
     55 C           3.1347  -11.0959  -43.3683 C.2       3 UNK         0.5000 
     56 O           3.5974  -10.9460  -42.2369 O.2       3 UNK        -0.5000 
     57 CA          2.7440   -9.8509  -44.1925 C.3       3 UNK         0.1400 
     58 CB          3.9995   -9.1116  -44.6799 C.3       3 UNK        -0.1800 
     59 N           1.8974  -10.1691  -45.3455 N.am      3 UNK        -0.5000 
     60 C           0.5896  -10.4604  -45.2667 C.2       2 UNK         0.5000 
     61 O          -0.0512  -10.4196  -44.2163 O.2       2 UNK        -0.5000 
     62 CA         -0.1212  -10.8989  -46.5646 C.3       2 UNK         0.1400 
     63 CB         -0.8773   -9.7168  -47.1893 C.3       2 UNK        -0.1800 
     64 N           0.7769  -11.4713  -47.5701 N.am      2 UNK        -0.5000 
     65 C           1.4973  -12.5918  -47.4159 C.2       1 UNK         0.5000 
     66 O           1.4557  -13.2850  -46.4015 O.2       1 UNK        -0.5000 
     67 C          -1.0577  -23.1557  -48.4113 C.2       11 UNK         0.5000 
     68 O          -1.0667  -24.1465  -49.1439 O.2       11 UNK        -0.5000 
     69 N          -2.1618  -22.4776  -48.0744 N.am      12 UNK        -0.5000 
     70 CA         -3.5023  -22.8401  -48.5248 C.3       12 UNK         0.1400 
     71 CB         -4.4609  -21.6652  -48.2742 C.3       12 UNK        -0.1800 
     72 C          -4.0369  -24.1333  -47.8812 C.2       12 UNK         0.5000 
     73 O          -4.5043  -25.0155  -48.6010 O.2       12 UNK        -0.5000 
     74 N          -4.0031  -24.2102  -46.5450 N.am      13 UNK        -0.5000 
     75 CA         -4.7177  -25.2305  -45.7781 C.3       13 UNK         0.1400 
     76 CB         -5.1291  -24.6458  -44.4172 C.3       13 UNK        -0.1800 
     77 C          -3.9263  -26.5316  -45.5757 C.2       13 UNK         0.5000 
     78 O          -4.4984  -27.6107  -45.7352 O.2       13 UNK        -0.5000 
     79 N          -2.6513  -26.4196  -45.1832 N.am      14 UNK        -0.5000 
     80 CA         -1.8323  -27.5537  -44.7508 C.3       14 UNK         0.1400 
     81 CB         -0.9260  -27.1263  -43.5838 C.3       14 UNK        -0.1800 
     82 C          -1.0068  -28.1320  -45.9073 C.2       14 UNK         0.5000 
     83 O          -0.9820  -29.3508  -46.0830 O.2       14 UNK        -0.5000 
     84 N          -0.3580  -27.2539  -46.6841 N.am      15 UNK        -0.5000 
     85 CA          0.4454  -27.6363  -47.8490 C.3       15 UNK         0.1400 
     86 CB          1.4602  -26.5269  -48.1590 C.3       15 UNK        -0.1800 
     87 C          -0.4136  -27.9496  -49.0895 C.2       15 UNK         0.5000 
     88 O           0.0800  -28.6047  -50.0083 O.2       15 UNK        -0.5000 
     89 N          -1.6725  -27.4835  -49.0875 N.am      16 UNK        -0.5000 
     90 CA         -2.6860  -27.6502  -50.1347 C.3       16 UNK         0.1400 
     91 CB         -3.0923  -29.1329  -50.2717 C.3       16 UNK        -0.1800 
     92 C          -2.2864  -27.0018  -51.4778 C.2       16 UNK         0.5000 
     93 O          -2.6178  -27.5305  -52.5415 O.2       16 UNK        -0.5000 
     94 N          -1.5799  -25.8676  -51.4016 N.am      17 UNK        -0.5000 
     95 CA         -1.1830  -25.0402  -52.5346 C.3       17 UNK         0.1400 
     96 CB          0.2927  -24.6338  -52.3545 C.3       17 UNK        -0.1800 
     97 C          -2.1632  -23.8558  -52.6536 C.2       17 UNK         0.5000 
     98 O          -3.3758  -24.0728  -52.5955 O.2       17 UNK        -0.5000 
     99 N          -1.6399  -22.6352  -52.8421 N.am      18 UNK        -0.5000 
    100 CA        -2.3283  -21.3412  -52.9771 C.3       18 UNK         0.1400 
    101 CB        -3.1756  -21.0264  -51.7328 C.3       18 UNK        -0.1800 
    102 C         -3.1767  -21.1716  -54.2537 C.2       18 UNK         0.5000 
    103 O         -3.1259  -20.1069  -54.8712 O.2       18 UNK        -0.5000 
    104 N         -3.9408  -22.2068  -54.6241 N.am      19 UNK        -0.5000 
    105 CA        -4.8927  -22.2611  -55.7343 C.3       19 UNK         0.1400 
    106 CB        -4.1526  -22.2375  -57.0910 C.3       19 UNK        -0.1800 
    107 C         -5.9819  -21.1781  -55.5858 C.2       19 UNK         0.5000 
    108 O         -6.8485  -21.3138  -54.7210 O.2       19 UNK        -0.5000 
    109 N         -5.9201  -20.1304  -56.4164 N.am      20 UNK        -0.5000 
    110 CA        -6.8472  -18.9992  -56.4037 C.3       20 UNK         0.1400 
    111 CB        -6.8249  -18.3341  -57.7893 C.3       20 UNK        -0.1800 
    112 C         -6.5443  -17.9597  -55.3050 C.2       20 UNK         0.5000 
    113 O         -7.4163  -17.1410  -55.0064 O.2       20 UNK        -0.5000 
    114 N         -5.3269  -17.9733  -54.7413 N.am      21 UNK        -0.5000 
    115 CA        -4.8956  -17.0282  -53.7099 C.3       21 UNK         0.1400 
    116 CB        -3.3701  -17.1071  -53.5484 C.3       21 UNK        -0.1800 
    117 C         -5.6014  -17.2700  -52.3618 C.2       21 UNK         0.5000 
    118 O         -5.9449  -18.4092  -52.0391 O.2       21 UNK        -0.5000 
    119 N         -5.7739  -16.1867  -51.5941 N.am      22 UNK        -0.5000 
    120 CA        -6.4113  -16.1423  -50.2617 C.3       22 UNK         0.1400 
    121 C         -7.9421  -16.4501  -50.2519 C.2       22 UNK         0.5000 
    122 N         -8.6213  -16.4998  -51.3917 N.am      22 UNK        -0.7600 
    123 O         -8.5382  -16.6099  -49.1900 O.2       22 UNK        -0.5000 
    124 C124       -5.6418  -16.9450  -49.1705 C.3       23 UNK        -0.0398 
    125 S125       -3.8935  -16.4380  -49.0052 S.3       23 UNK        -0.2404 
    126 C126       -3.0640  -17.8984  -49.7141 C.3       23 UNK        -0.0205 
    127 H127        3.5455   -8.7474  -49.6404 H         1 UNK         0.0600 
    128 H128        3.6409   -9.9547  -50.9261 H         1 UNK         0.0600 
    129 H129        5.0676   -9.5887  -49.9515 H         1 UNK         0.0600 
    130 H130        2.6762  -11.8820  -50.3446 H         1 UNK         0.3000 
    131 H131        3.3611  -13.3659  -48.0575 H         1 UNK         0.0600 
    132 H132        2.7031  -14.5287  -50.0437 H         1 UNK         0.0800 
    133 H133        1.5645  -14.9552  -48.8015 H         1 UNK         0.0800 
    134 H134       -0.1472  -14.6925  -52.5536 H         1 UNK         0.0800 
    135 H135        1.5282  -15.0267  -52.1980 H         1 UNK         0.0800 
    136 H136       -1.8936  -15.6250  -50.7695 H         1 UNK         0.1150 
    137 H137       -1.0600  -19.6823  -49.7122 H         1 UNK         0.1150 
    138 H138        2.0142  -17.2283  -51.4290 H         1 UNK         0.1150 
    139 H139        2.1293  -19.7485  -51.5230 H         1 UNK         0.0800 
    140 H140        2.3936  -19.5115  -49.8156 H         1 UNK         0.0800 
    141 H141        0.3419  -20.5410  -48.1339 H         1 UNK         0.0800 
    142 H142        1.9008  -21.2889  -48.0645 H         1 UNK         0.0800 
    143 H143        0.9894  -23.4951  -47.8992 H         1 UNK         0.0600 
    144 H144        0.3726  -21.5442  -45.9965 H         1 UNK         0.3000 
    145 H145       -1.1679  -23.5912  -43.5034 H         1 UNK         0.0600 
    146 H146        0.6706  -22.5812  -42.1803 H         1 UNK         0.0600 
    147 H147        1.2919  -23.8529  -43.2219 H         1 UNK         0.0600 
    148 H148        1.5396  -22.1663  -43.6564 H         1 UNK         0.0600 
    149 H149       -0.5871  -20.8153  -43.5114 H         1 UNK         0.3000 
    150 H150       -3.6987  -19.7440  -45.0088 H         1 UNK         0.0600 
    151 H151       -4.0332  -20.1000  -42.5577 H         1 UNK         0.0600 
    152 H152       -3.6791  -18.4185  -42.9242 H         1 UNK         0.0600 
    153 H153       -2.4298  -19.4520  -42.2350 H         1 UNK         0.0600 
    154 H154       -1.4767  -18.2026  -44.1917 H         1 UNK         0.3000 
    155 H155        0.3466  -18.2949  -47.2993 H         1 UNK         0.0600 
    156 H156       -1.2663  -16.4589  -47.4930 H         1 UNK         0.0600 
    157 H157        0.2150  -15.8412  -46.7825 H         1 UNK         0.0600 
    158 H158       -1.1952  -16.1389  -45.7681 H         1 UNK         0.0600 
    159 H159        0.9947  -17.1204  -44.7904 H         1 UNK         0.3000 
    160 H160        2.6050  -19.9527  -43.3172 H         1 UNK         0.0600 
    161 H161        3.7264  -17.3584  -44.4991 H         1 UNK         0.0600 
    162 H162        4.3561  -18.9797  -44.7339 H         1 UNK         0.0600 
    163 H163        4.4275  -18.2397  -43.1418 H         1 UNK         0.0600 
    164 H164        2.0352  -17.1799  -42.6146 H         1 UNK         0.3000 
    165 H165       -0.9129  -17.9288  -40.7563 H         1 UNK         0.0600 
    166 H166        0.3793  -16.9316  -38.8911 H         1 UNK         0.0600 
    167 H167        0.9136  -18.5792  -39.1821 H         1 UNK         0.0600 
    168 H168        1.8955  -17.2306  -39.7418 H         1 UNK         0.0600 
    169 H169        0.6577  -15.5474  -41.0739 H         1 UNK         0.3000 
    170 H170       -0.7911  -14.4372  -44.1146 H         1 UNK         0.0600 
    171 H171       -2.5644  -13.8561  -42.4450 H         1 UNK         0.0600 
    172 H172       -1.3242  -13.3962  -41.2838 H         1 UNK         0.0600 
    173 H173       -1.5153  -12.4896  -42.7852 H         1 UNK         0.0600 
    174 H174        0.8753  -12.9607  -42.5118 H         1 UNK         0.3000 
    175 H175        3.4180  -13.4786  -42.2546 H         1 UNK         0.0600 
    176 H176        4.2232  -14.4155  -45.0663 H         1 UNK         0.0600 
    177 H177        5.2953  -13.6152  -43.9182 H         1 UNK         0.0600 
    178 H178        4.6448  -15.2044  -43.5488 H         1 UNK         0.0600 
    179 H179        2.4984  -12.3369  -44.8476 H         1 UNK         0.3000 
    180 H180        2.1927   -9.1792  -43.5312 H         1 UNK         0.0600 
    181 H181        4.6275   -9.7510  -45.3009 H         1 UNK         0.0600 
    182 H182        4.6068   -8.7779  -43.8375 H         1 UNK         0.0600 
    183 H183        3.7385   -8.2279  -45.2624 H         1 UNK         0.0600 
    184 H184        2.3691  -10.2503  -46.2393 H         1 UNK         0.3000 
    185 H185       -0.8480  -11.6674  -46.2931 H         1 UNK         0.0600 
    186 H186       -1.5793   -9.2811  -46.4769 H         1 UNK         0.0600 
    187 H187       -0.1960   -8.9256  -47.5049 H         1 UNK         0.0600 
    188 H188       -1.4537  -10.0321  -48.0593 H         1 UNK         0.0600 
    189 H189        0.8766  -10.9599  -48.4348 H         1 UNK         0.3000 
    190 H190       -2.0786  -21.6651  -47.4723 H         1 UNK         0.3000 
    191 H191       -3.4605  -23.0143  -49.6017 H         1 UNK         0.0600 
    192 H192       -4.1628  -20.7870  -48.8448 H         1 UNK         0.0600 
    193 H193       -5.4776  -21.9171  -48.5781 H         1 UNK         0.0600 
    194 H194       -4.4906  -21.3839  -47.2209 H         1 UNK         0.0600 
    195 H195       -3.6039  -23.4388  -46.0117 H         1 UNK         0.3000 
    196 H196       -5.6381  -25.4863  -46.3081 H         1 UNK         0.0600 
    197 H197       -5.7172  -25.3641  -43.8448 H         1 UNK         0.0600 
    198 H198       -5.7390  -23.7507  -44.5409 H         1 UNK         0.0600 
    199 H199       -4.2616  -24.3776  -43.8129 H         1 UNK         0.0600 
    200 H200       -2.2057  -25.5094  -45.1744 H         1 UNK         0.3000 
    201 H201       -2.4800  -28.3498  -44.3768 H         1 UNK         0.0600 
    202 H202       -1.5129  -26.7311  -42.7546 H         1 UNK         0.0600 
    203 H203       -0.2058  -26.3630  -43.8770 H         1 UNK         0.0600 
    204 H204       -0.3591  -27.9769  -43.2036 H         1 UNK         0.0600 
    205 H205       -0.4110  -26.2635  -46.4552 H         1 UNK         0.3000 
    206 H206        1.0073  -28.5391  -47.6001 H         1 UNK         0.0600 
    207 H207        2.0177  -26.2321  -47.2698 H         1 UNK         0.0600 
    208 H208        2.1833  -26.8623  -48.9034 H         1 UNK         0.0600 
    209 H209        0.9716  -25.6438  -48.5633 H         1 UNK         0.0600 
    210 H210       -1.9557  -26.9315  -48.2906 H         1 UNK         0.3000 
    211 H211       -3.5676  -27.1088  -49.7940 H         1 UNK         0.0600 
    212 H212       -2.2831  -29.7404  -50.6776 H         1 UNK         0.0600 
    213 H213       -3.9489  -29.2433  -50.9376 H         1 UNK         0.0600 
    214 H214       -3.3771  -29.5534  -49.3071 H         1 UNK         0.0600 
    215 H215       -1.4009  -25.4610  -50.4863 H         1 UNK         0.3000 
    216 H216       -1.2586  -25.6069  -53.4645 H         1 UNK         0.0600 
    217 H217        0.6584  -24.0542  -53.2027 H         1 UNK         0.0600 
    218 H218        0.9286  -25.5159  -52.2763 H         1 UNK         0.0600 
    219 H219        0.4423  -24.0456  -51.4497 H         1 UNK         0.0600 
    220 H220       -0.6324  -22.5765  -52.8890 H         1 UNK         0.3000 
    221 H221       -1.5376  -20.5906  -53.0279 H         1 UNK         0.0600 
    222 H222       -3.9865  -21.7407  -51.5935 H         1 UNK         0.0600 
    223 H223       -2.5664  -21.0247  -50.8305 H         1 UNK         0.0600 
    224 H224       -3.6395  -20.0470  -51.8266 H         1 UNK         0.0600 
    225 H225       -3.9344  -23.0129  -54.0032 H         1 UNK         0.3000 
    226 H226       -5.4036  -23.2219  -55.6568 H         1 UNK         0.0600 
    227 H227       -3.4723  -23.0852  -57.1738 H         1 UNK         0.0600 
    228 H228       -4.8555  -22.3096  -57.9220 H         1 UNK         0.0600 
    229 H229       -3.5627  -21.3315  -57.2317 H         1 UNK         0.0600 
    230 H230       -5.1565  -20.0843  -57.0754 H         1 UNK         0.3000 
    231 H231       -7.8571  -19.3750  -56.2262 H         1 UNK         0.0600 
    232 H232       -5.8372  -17.9389  -58.0300 H         1 UNK         0.0600 
    233 H233       -7.5310  -17.5039  -57.8368 H         1 UNK         0.0600 
    234 H234       -7.1045  -19.0407  -58.5710 H         1 UNK         0.0600 
    235 H235       -4.6718  -18.7072  -54.9878 H         1 UNK         0.3000 
    236 H236       -5.1457  -16.0233  -54.0571 H         1 UNK         0.0600 
    237 H237       -2.8614  -16.9908  -54.5054 H         1 UNK         0.0600 
    238 H238       -3.0112  -16.3134  -52.8936 H         1 UNK         0.0600 
    239 H239       -3.0548  -18.0558  -53.1144 H         1 UNK         0.0600 
    240 H240       -5.4563  -15.2935  -51.9421 H         1 UNK         0.3000 
    241 H241       -6.3571  -15.0935  -49.9679 H         1 UNK         0.0600 
    242 H242       -9.6115  -16.6865  -51.3704 H         1 UNK         0.3800 
    243 H243       -8.1527  -16.3827  -52.2768 H         1 UNK         0.3800 
    244 H244       -6.1046  -16.7931  -48.1942 H         1 UNK         0.0800 
    245 H245       -5.7070  -18.0168  -49.3633 H         1 UNK         0.0800 
    246 H246       -3.6261  -18.2324  -50.5807 H         1 UNK         0.0800 
    247 H247       -3.1116  -18.7032  -48.9815 H         1 UNK         0.0800 
@<TRIPOS>BOND
     1    1    2 1    
     2    1  127 1    
     3    1  128 1    
     4    1  129 1    
     5    2    3 2    
     6    2    4 am   BACKBONE|DICT|INTERRES
     7    4    5 1    
     8    4  130 1    
     9    5    6 1    
    10    5   65 1    
    11    5  131 1    
    12    6    7 1    
    13    6  132 1    
    14    6  133 1    
    15    7    8 1    
    16    8    9 1    
    17    8  134 1    
    18    8  135 1    
    19    9   10 ar   
    20    9   14 ar   
    21   10   11 ar   
    22   10  136 1    
    23   11   12 ar   
    24   11  126 1    
    25   12   13 ar   
    26   12  137 1    
    27   13   14 ar   
    28   13   15 1    
    29   14  138 1    
    30   15   16 1    
    31   15  139 1    
    32   15  140 1    
    33   16   17 1    
    34   17   18 1    
    35   17  141 1    
    36   17  142 1    
    37   18   19 1    
    38   18   67 1    
    39   18  143 1    
    40   19   20 am   BACKBONE|DICT|INTERRES
    41   19  144 1    
    42   20   21 2    
    43   20   22 1    
    44   22   23 1    
    45   22   24 1    
    46   22  145 1    
    47   23  146 1    
    48   23  147 1    
    49   23  148 1    
    50   24   25 am   BACKBONE|DICT|INTERRES
    51   24  149 1    
    52   25   26 2    
    53   25   27 1    
    54   27   28 1    
    55   27   29 1    
    56   27  150 1    
    57   28  151 1    
    58   28  152 1    
    59   28  153 1    
    60   29   30 am   BACKBONE|DICT|INTERRES
    61   29  154 1    
    62   30   31 2    
    63   30   32 1    
    64   32   33 1    
    65   32   34 1    
    66   32  155 1    
    67   33  156 1    
    68   33  157 1    
    69   33  158 1    
    70   34   35 am   BACKBONE|DICT|INTERRES
    71   34  159 1    
    72   35   36 2    
    73   35   37 1    
    74   37   38 1    
    75   37   39 1    
    76   37  160 1    
    77   38  161 1    
    78   38  162 1    
    79   38  163 1    
    80   39   40 am   BACKBONE|DICT|INTERRES
    81   39  164 1    
    82   40   41 2    
    83   40   42 1    
    84   42   43 1    
    85   42   44 1    
    86   42  165 1    
    87   43  166 1    
    88   43  167 1    
    89   43  168 1    
    90   44   45 am   BACKBONE|DICT|INTERRES
    91   44  169 1    
    92   45   46 2    
    93   45   47 1    
    94   47   48 1    
    95   47   49 1    
    96   47  170 1    
    97   48  171 1    
    98   48  172 1    
    99   48  173 1    
   100   49   50 am   BACKBONE|DICT|INTERRES
   101   49  174 1    
   102   50   51 2    
   103   50   52 1    
   104   52   53 1    
   105   52   54 1    
   106   52  175 1    
   107   53  176 1    
   108   53  177 1    
   109   53  178 1    
   110   54   55 am   BACKBONE|DICT|INTERRES
   111   54  179 1    
   112   55   56 2    
   113   55   57 1    
   114   57   58 1    
   115   57   59 1    
   116   57  180 1    
   117   58  181 1    
   118   58  182 1    
   119   58  183 1    
   120   59   60 am   BACKBONE|DICT|INTERRES
   121   59  184 1    
   122   60   61 2    
   123   60   62 1    
   124   62   63 1    
   125   62   64 1    
   126   62  185 1    
   127   63  186 1    
   128   63  187 1    
   129   63  188 1    
   130   64   65 am   BACKBONE|DICT|INTERRES
   131   64  189 1    
   132   65   66 2    
   133   67   68 2    
   134   67   69 am   BACKBONE|DICT|INTERRES
   135   69   70 1    
   136   69  190 1    
   137   70   71 1    
   138   70   72 1    
   139   70  191 1    
   140   71  192 1    
   141   71  193 1    
   142   71  194 1    
   143   72   73 2    
   144   72   74 am   BACKBONE|DICT|INTERRES
   145   74   75 1    
   146   74  195 1    
   147   75   76 1    
   148   75   77 1    
   149   75  196 1    
   150   76  197 1    
   151   76  198 1    
   152   76  199 1    
   153   77   78 2    
   154   77   79 am   BACKBONE|DICT|INTERRES
   155   79   80 1    
   156   79  200 1    
   157   80   81 1    
   158   80   82 1    
   159   80  201 1    
   160   81  202 1    
   161   81  203 1    
   162   81  204 1    
   163   82   83 2    
   164   82   84 am   BACKBONE|DICT|INTERRES
   165   84   85 1    
   166   84  205 1    
   167   85   86 1    
   168   85   87 1    
   169   85  206 1    
   170   86  207 1    
   171   86  208 1    
   172   86  209 1    
   173   87   88 2    
   174   87   89 am   BACKBONE|DICT|INTERRES
   175   89   90 1    
   176   89  210 1    
   177   90   91 1    
   178   90   92 1    
   179   90  211 1    
   180   91  212 1    
   181   91  213 1    
   182   91  214 1    
   183   92   93 2    
   184   92   94 am   BACKBONE|DICT|INTERRES
   185   94   95 1    
   186   94  215 1    
   187   95   96 1    
   188   95   97 1    
   189   95  216 1    
   190   96  217 1    
   191   96  218 1    
   192   96  219 1    
   193   97   98 2    
   194   97   99 am   BACKBONE|DICT|INTERRES
   195   99  100 1    
   196   99  220 1    
   197  100  101 1    
   198  100  102 1    
   199  100  221 1    
   200  101  222 1    
   201  101  223 1    
   202  101  224 1    
   203  102  103 2    
   204  102  104 am   BACKBONE|DICT|INTERRES
   205  104  105 1    
   206  104  225 1    
   207  105  106 1    
   208  105  107 1    
   209  105  226 1    
   210  106  227 1    
   211  106  228 1    
   212  106  229 1    
   213  107  108 2    
   214  107  109 am   BACKBONE|DICT|INTERRES
   215  109  110 1    
   216  109  230 1    
   217  110  111 1    
   218  110  112 1    
   219  110  231 1    
   220  111  232 1    
   221  111  233 1    
   222  111  234 1    
   223  112  113 2    
   224  112  114 am   BACKBONE|DICT|INTERRES
   225  114  115 1    
   226  114  235 1    
   227  115  116 1    
   228  115  117 1    
   229  115  236 1    
   230  116  237 1    
   231  116  238 1    
   232  116  239 1    
   233  117  118 2    
   234  117  119 am   BACKBONE|DICT|INTERRES
   235  119  120 1    
   236  119  240 1    
   237  120  121 1    
   238  120  124 1    
   239  120  241 1    
   240  121  122 am   BACKBONE|DICT|INTERRES
   241  121  123 2    
   242  122  242 1    
   243  122  243 1    
   244  124  125 1    
   245  124  244 1    
   246  124  245 1    
   247  125  126 1    
   248  126  246 1    
   249  126  247 1    
@<TRIPOS>SUBSTRUCTURE
     1 UNK         1 GROUP             0       ****    0 ROOT    
