@<TRIPOS>MOLECULE
3R540
247   249    1
SMALL
USER_CHARGES


@<TRIPOS>ATOM
      1 CA         -0.2520  -18.7057  -47.0110 C.3       0 UNK        -0.1800 
      2 C          -0.0387  -17.7679  -48.1863 C.2       0 UNK         0.5000 
      3 O           1.0358  -17.1831  -48.3052 O.2       0 UNK        -0.5000 
      4 N          -1.0710  -17.6025  -49.0222 N.am      1 UNK        -0.5000 
      5 CA         -1.1626  -16.7587  -50.2197 C.3       1 UNK         0.1400 
      6 C6         -0.2008  -17.1629  -51.3820 C.3       23 UNK        -0.0398 
      7 S7          1.4442  -16.3663  -51.4377 S.3       23 UNK        -0.2404 
      8 C8          2.2496  -17.2815  -52.7911 C.3       23 UNK        -0.0205 
      9 C9          2.6629  -18.6963  -52.4018 C.ar      23 UNK        -0.0193 
     10 C10         2.2627  -19.7839  -53.1822 C.ar      23 UNK        -0.1150 
     11 C11         2.6840  -21.0794  -52.8683 C.ar      23 UNK        -0.0193 
     12 C12         3.5117  -21.2851  -51.7606 C.ar      23 UNK        -0.1150 
     13 C13         3.9064  -20.2084  -50.9564 C.ar      23 UNK        -0.0193 
     14 C14         3.4846  -18.9179  -51.2920 C.ar      23 UNK        -0.1150 
     15 C15         4.8046  -20.4078  -49.7360 C.3       23 UNK        -0.0205 
     16 S16         4.3973  -21.8702  -48.7203 S.3       23 UNK        -0.2404 
     17 C17         2.6410  -21.5714  -48.3402 C.3       23 UNK        -0.0398 
     18 CA          2.0074  -22.7638  -47.5861 C.3       11 UNK         0.1400 
     19 N           2.5304  -22.8890  -46.2223 N.am      11 UNK        -0.5000 
     20 C           2.2560  -23.8718  -45.3517 C.2       10 UNK         0.5000 
     21 O           1.5442  -24.8414  -45.6170 O.2       10 UNK        -0.5000 
     22 CA          2.8397  -23.7190  -43.9321 C.3       10 UNK         0.1400 
     23 CB          4.0816  -24.6072  -43.7645 C.3       10 UNK        -0.1800 
     24 N           3.1918  -22.3356  -43.5900 N.am      10 UNK        -0.5000 
     25 C           2.3154  -21.3327  -43.4402 C.2       9 UNK         0.5000 
     26 O           1.0962  -21.4605  -43.5698 O.2       9 UNK        -0.5000 
     27 CA          2.9152  -19.9406  -43.1816 C.3       9 UNK         0.1400 
     28 CB          2.7704  -19.0586  -44.4318 C.3       9 UNK        -0.1800 
     29 N           2.2904  -19.2684  -42.0443 N.am      9 UNK        -0.5000 
     30 C           2.4655  -19.6223  -40.7641 C.2       8 UNK         0.5000 
     31 O           3.1389  -20.5933  -40.4155 O.2       8 UNK        -0.5000 
     32 CA          1.8170  -18.7391  -39.6850 C.3       8 UNK         0.1400 
     33 CB          2.7066  -17.5218  -39.3845 C.3       8 UNK        -0.1800 
     34 N           0.4830  -18.2693  -40.0626 N.am      8 UNK        -0.5000 
     35 C          -0.6189  -18.4223  -39.3123 C.2       7 UNK         0.5000 
     36 O          -0.6326  -19.0196  -38.2348 O.2       7 UNK        -0.5000 
     37 CA         -1.9330  -17.7932  -39.8243 C.3       7 UNK         0.1400 
     38 CB         -2.2331  -16.4913  -39.0657 C.3       7 UNK        -0.1800 
     39 N          -1.9229  -17.5113  -41.2588 N.am      7 UNK        -0.5000 
     40 C          -1.9646  -18.4519  -42.2128 C.2       6 UNK         0.5000 
     41 O          -2.1375  -19.6472  -41.9763 O.2       6 UNK        -0.5000 
     42 CA         -1.7542  -18.0002  -43.6724 C.3       6 UNK         0.1400 
     43 CB         -3.0782  -18.0473  -44.4468 C.3       6 UNK        -0.1800 
     44 N          -1.1665  -16.6687  -43.8327 N.am      6 UNK        -0.5000 
     45 C           0.0321  -16.2798  -43.3719 C.2       5 UNK         0.5000 
     46 O           0.7983  -17.0228  -42.7591 O.2       5 UNK        -0.5000 
     47 CA          0.4147  -14.8009  -43.5698 C.3       5 UNK         0.1400 
     48 CB          1.2753  -14.6562  -44.8311 C.3       5 UNK        -0.1800 
     49 N          -0.7399  -13.9001  -43.6584 N.am      5 UNK        -0.5000 
     50 C          -1.6897  -13.7716  -42.7171 C.2       4 UNK         0.5000 
     51 O          -1.6523  -14.3586  -41.6348 O.2       4 UNK        -0.5000 
     52 CA         -2.9097  -12.8860  -43.0390 C.3       4 UNK         0.1400 
     53 CB         -2.8183  -11.5529  -42.2810 C.3       4 UNK        -0.1800 
     54 N          -3.1107  -12.6051  -44.4622 N.am      4 UNK        -0.5000 
     55 C          -3.3332  -13.5041  -45.4314 C.2       3 UNK         0.5000 
     56 O          -3.3664  -14.7217  -45.2445 O.2       3 UNK        -0.5000 
     57 CA         -3.5181  -12.9505  -46.8604 C.3       3 UNK         0.1400 
     58 CB         -3.8315  -11.4388  -46.9122 C.3       3 UNK        -0.1800 
     59 N          -2.3806  -13.2494  -47.7328 N.am      3 UNK        -0.5000 
     60 C          -1.0817  -13.0050  -47.5088 C.2       2 UNK         0.5000 
     61 O          -0.6430  -12.5252  -46.4612 O.2       2 UNK        -0.5000 
     62 CA         -0.1230  -13.3689  -48.6615 C.3       2 UNK         0.1400 
     63 CB          1.3566  -13.1066  -48.3296 C.3       2 UNK        -0.1800 
     64 N          -0.2711  -14.7624  -49.0782 N.am      2 UNK        -0.5000 
     65 C          -1.2080  -15.2476  -49.9006 C.2       1 UNK         0.5000 
     66 O          -2.1154  -14.5566  -50.3648 O.2       1 UNK        -0.5000 
     67 C           0.4707  -22.6620  -47.6528 C.2       11 UNK         0.5000 
     68 O          -0.0852  -22.9329  -48.7151 O.2       11 UNK        -0.5000 
     69 N          -0.1980  -22.3080  -46.5434 N.am      12 UNK        -0.5000 
     70 CA         -1.6543  -22.1877  -46.4321 C.3       12 UNK         0.1400 
     71 CB         -2.0165  -21.8048  -44.9914 C.3       12 UNK        -0.1800 
     72 C          -2.4353  -23.4453  -46.8572 C.2       12 UNK         0.5000 
     73 O          -3.5346  -23.3115  -47.3941 O.2       12 UNK        -0.5000 
     74 N          -1.8431  -24.6294  -46.6516 N.am      13 UNK        -0.5000 
     75 CA         -2.3983  -25.9175  -47.0680 C.3       13 UNK         0.1400 
     76 CB         -1.5885  -27.0433  -46.4074 C.3       13 UNK        -0.1800 
     77 C          -2.4342  -26.1066  -48.5986 C.2       13 UNK         0.5000 
     78 O          -3.3173  -26.8052  -49.0968 O.2       13 UNK        -0.5000 
     79 N          -1.4845  -25.4875  -49.3122 N.am      14 UNK        -0.5000 
     80 CA         -1.3788  -25.5294  -50.7706 C.3       14 UNK         0.1400 
     81 CB          0.1062  -25.5693  -51.1660 C.3       14 UNK        -0.1800 
     82 C          -2.0761  -24.3199  -51.4135 C.2       14 UNK         0.5000 
     83 O          -2.7593  -24.4763  -52.4251 O.2       14 UNK        -0.5000 
     84 N          -1.8977  -23.1397  -50.8058 N.am      15 UNK        -0.5000 
     85 CA         -2.4050  -21.8544  -51.2824 C.3       15 UNK         0.1400 
     86 CB         -1.5849  -20.7277  -50.6347 C.3       15 UNK        -0.1800 
     87 C          -3.9044  -21.6366  -51.0174 C.2       15 UNK         0.5000 
     88 O          -4.4513  -20.6522  -51.5164 O.2       15 UNK        -0.5000 
     89 N          -4.5282  -22.5278  -50.2314 N.am      16 UNK        -0.5000 
     90 CA         -5.8990  -22.4429  -49.7180 C.3       16 UNK         0.1400 
     91 CB         -6.9328  -22.5953  -50.8524 C.3       16 UNK        -0.1800 
     92 C          -6.0794  -21.1783  -48.8550 C.2       16 UNK         0.5000 
     93 O          -6.9765  -20.3655  -49.0866 O.2       16 UNK        -0.5000 
     94 N          -5.1598  -21.0329  -47.8920 N.am      17 UNK        -0.5000 
     95 CA         -4.9724  -19.8924  -47.0009 C.3       17 UNK         0.1400 
     96 CB         -6.1038  -19.8383  -45.9499 C.3       17 UNK        -0.1800 
     97 C          -4.7622  -18.5832  -47.7888 C.2       17 UNK         0.5000 
     98 O          -3.7617  -18.4594  -48.4987 O.2       17 UNK        -0.5000 
     99 N          -5.6950  -17.6372  -47.6407 N.am      18 UNK        -0.5000 
    100 CA        -5.6700  -16.3124  -48.2548 C.3       18 UNK         0.1400 
    101 CB        -6.5240  -15.3716  -47.3882 C.3       18 UNK        -0.1800 
    102 C         -6.1568  -16.2887  -49.7182 C.2       18 UNK         0.5000 
    103 O         -6.0671  -15.2348  -50.3485 O.2       18 UNK        -0.5000 
    104 N         -6.6801  -17.4118  -50.2382 N.am      19 UNK        -0.5000 
    105 CA        -7.2232  -17.5108  -51.5997 C.3       19 UNK         0.1400 
    106 CB        -7.9913  -18.8295  -51.7517 C.3       19 UNK        -0.1800 
    107 C         -6.1597  -17.3818  -52.7086 C.2       19 UNK         0.5000 
    108 O         -6.5018  -16.9853  -53.8233 O.2       19 UNK        -0.5000 
    109 N         -4.9009  -17.6972  -52.3727 N.am      20 UNK        -0.5000 
    110 CA        -3.7060  -17.5829  -53.2094 C.3       20 UNK         0.1400 
    111 CB        -3.4031  -16.1070  -53.5431 C.3       20 UNK        -0.1800 
    112 C         -3.7416  -18.4987  -54.4467 C.2       20 UNK         0.5000 
    113 O         -3.5136  -18.0473  -55.5714 O.2       20 UNK        -0.5000 
    114 N         -3.9909  -19.7899  -54.1972 N.am      21 UNK        -0.5000 
    115 CA        -3.7382  -20.8835  -55.1368 C.3       21 UNK         0.1400 
    116 CB        -4.5691  -22.1066  -54.7062 C.3       21 UNK        -0.1800 
    117 C         -2.2245  -21.1991  -55.2354 C.2       21 UNK         0.5000 
    118 O         -1.4000  -20.4149  -54.7606 O.2       21 UNK        -0.5000 
    119 N         -1.8887  -22.3262  -55.8775 N.am      22 UNK        -0.5000 
    120 CA        -0.5466  -22.8978  -56.1395 C.3       22 UNK         0.1400 
    121 C          0.4951  -22.0151  -56.8952 C.2       22 UNK         0.5000 
    122 N          0.3509  -20.7000  -56.9533 N.am      22 UNK        -0.7600 
    123 O          1.4402  -22.5466  -57.4717 O.2       22 UNK        -0.5000 
    124 C124        0.0823  -23.6512  -54.9274 C.3       23 UNK        -0.0398 
    125 S125        0.4963  -22.6382  -53.4648 S.3       23 UNK        -0.2404 
    126 C126        2.2492  -22.2464  -53.7406 C.3       23 UNK        -0.0205 
    127 H127       -0.0272  -18.1759  -46.0879 H         1 UNK         0.0600 
    128 H128        0.4164  -19.5616  -47.0862 H         1 UNK         0.0600 
    129 H129       -1.2783  -19.0680  -46.9592 H         1 UNK         0.0600 
    130 H130       -1.9497  -18.0646  -48.7956 H         1 UNK         0.3000 
    131 H131       -2.1666  -16.9868  -50.5795 H         1 UNK         0.0600 
    132 H132       -0.0583  -18.2439  -51.3867 H         1 UNK         0.0800 
    133 H133       -0.6821  -16.9303  -52.3322 H         1 UNK         0.0800 
    134 H134        3.1430  -16.7348  -53.0950 H         1 UNK         0.0800 
    135 H135        1.5873  -17.2910  -53.6583 H         1 UNK         0.0800 
    136 H136        1.6257  -19.6283  -54.0424 H         1 UNK         0.1150 
    137 H137        3.8420  -22.2855  -51.5196 H         1 UNK         0.1150 
    138 H138        3.7974  -18.0765  -50.6894 H         1 UNK         0.1150 
    139 H139        5.8368  -20.4960  -50.0767 H         1 UNK         0.0800 
    140 H140        4.7676  -19.5282  -49.0912 H         1 UNK         0.0800 
    141 H141        2.1202  -21.3974  -49.2838 H         1 UNK         0.0800 
    142 H142        2.5499  -20.6478  -47.7661 H         1 UNK         0.0800 
    143 H143        2.2684  -23.6824  -48.1162 H         1 UNK         0.0600 
    144 H144        3.1489  -22.1529  -45.9175 H         1 UNK         0.3000 
    145 H145        2.0768  -24.0573  -43.2279 H         1 UNK         0.0600 
    146 H146        4.4602  -24.5679  -42.7429 H         1 UNK         0.0600 
    147 H147        3.8485  -25.6503  -43.9827 H         1 UNK         0.0600 
    148 H148        4.8872  -24.3039  -44.4345 H         1 UNK         0.0600 
    149 H149        4.1761  -22.1454  -43.4663 H         1 UNK         0.3000 
    150 H150        3.9806  -20.0460  -42.9656 H         1 UNK         0.0600 
    151 H151        3.2551  -19.5144  -45.2960 H         1 UNK         0.0600 
    152 H152        3.2268  -18.0801  -44.2806 H         1 UNK         0.0600 
    153 H153        1.7229  -18.9006  -44.6870 H         1 UNK         0.0600 
    154 H154        1.7242  -18.4534  -42.2685 H         1 UNK         0.3000 
    155 H155        1.7655  -19.3457  -38.7786 H         1 UNK         0.0600 
    156 H156        2.7908  -16.8622  -40.2493 H         1 UNK         0.0600 
    157 H157        3.7148  -17.8315  -39.1060 H         1 UNK         0.0600 
    158 H158        2.3057  -16.9375  -38.5561 H         1 UNK         0.0600 
    159 H159        0.4088  -17.7826  -40.9492 H         1 UNK         0.3000 
    160 H160       -2.7393  -18.5004  -39.6186 H         1 UNK         0.0600 
    161 H161       -1.4492  -15.7484  -39.2187 H         1 UNK         0.0600 
    162 H162       -2.3091  -16.6719  -37.9927 H         1 UNK         0.0600 
    163 H163       -3.1775  -16.0533  -39.3894 H         1 UNK         0.0600 
    164 H164       -1.7900  -16.5431  -41.5273 H         1 UNK         0.3000 
    165 H165       -1.0614  -18.7153  -44.1158 H         1 UNK         0.0600 
    166 H166       -2.9247  -17.8264  -45.5027 H         1 UNK         0.0600 
    167 H167       -3.5355  -19.0341  -44.3750 H         1 UNK         0.0600 
    168 H168       -3.7957  -17.3242  -44.0568 H         1 UNK         0.0600 
    169 H169       -1.7469  -15.9792  -44.2963 H         1 UNK         0.3000 
    170 H170        1.0086  -14.4947  -42.7065 H         1 UNK         0.0600 
    171 H171        2.1754  -15.2689  -44.7639 H         1 UNK         0.0600 
    172 H172        0.7304  -14.9730  -45.7213 H         1 UNK         0.0600 
    173 H173        1.5938  -13.6240  -44.9774 H         1 UNK         0.0600 
    174 H174       -0.8414  -13.3797  -44.5235 H         1 UNK         0.3000 
    175 H175       -3.7929  -13.4212  -42.6848 H         1 UNK         0.0600 
    176 H176       -1.9670  -10.9588  -42.6157 H         1 UNK         0.0600 
    177 H177       -3.7205  -10.9567  -42.4190 H         1 UNK         0.0600 
    178 H178       -2.7020  -11.7185  -41.2090 H         1 UNK         0.0600 
    179 H179       -3.0581  -11.6334  -44.7311 H         1 UNK         0.3000 
    180 H180       -4.3739  -13.4762  -47.2816 H         1 UNK         0.0600 
    181 H181       -2.9907  -10.8302  -46.5774 H         1 UNK         0.0600 
    182 H182       -4.6945  -11.1918  -46.2923 H         1 UNK         0.0600 
    183 H183       -4.0724  -11.1295  -47.9293 H         1 UNK         0.0600 
    184 H184       -2.6096  -13.6742  -48.6257 H         1 UNK         0.3000 
    185 H185       -0.3850  -12.7225  -49.5017 H         1 UNK         0.0600 
    186 H186        1.7160  -13.7583  -47.5343 H         1 UNK         0.0600 
    187 H187        1.9872  -13.2738  -49.2030 H         1 UNK         0.0600 
    188 H188        1.5137  -12.0754  -48.0106 H         1 UNK         0.0600 
    189 H189        0.4138  -15.4258  -48.7244 H         1 UNK         0.3000 
    190 H190        0.3293  -22.1208  -45.6998 H         1 UNK         0.3000 
    191 H191       -1.9642  -21.3786  -47.0950 H         1 UNK         0.0600 
    192 H192       -3.0932  -21.6807  -44.8695 H         1 UNK         0.0600 
    193 H193       -1.5445  -20.8674  -44.7046 H         1 UNK         0.0600 
    194 H194       -1.6919  -22.5661  -44.2808 H         1 UNK         0.0600 
    195 H195       -0.9297  -24.6458  -46.2174 H         1 UNK         0.3000 
    196 H196       -3.4264  -25.9770  -46.7046 H         1 UNK         0.0600 
    197 H197       -1.9835  -28.0227  -46.6808 H         1 UNK         0.0600 
    198 H198       -1.6260  -26.9704  -45.3204 H         1 UNK         0.0600 
    199 H199       -0.5405  -27.0147  -46.7091 H         1 UNK         0.0600 
    200 H200       -0.8344  -24.8774  -48.8326 H         1 UNK         0.3000 
    201 H201       -1.8519  -26.4358  -51.1544 H         1 UNK         0.0600 
    202 H202        0.6031  -26.4423  -50.7429 H         1 UNK         0.0600 
    203 H203        0.6412  -24.6814  -50.8261 H         1 UNK         0.0600 
    204 H204        0.2190  -25.6239  -52.2494 H         1 UNK         0.0600 
    205 H205       -1.2757  -23.0979  -50.0004 H         1 UNK         0.3000 
    206 H206       -2.2543  -21.8050  -52.3610 H         1 UNK         0.0600 
    207 H207       -0.5244  -20.8251  -50.8700 H         1 UNK         0.0600 
    208 H208       -1.9105  -19.7532  -50.9981 H         1 UNK         0.0600 
    209 H209       -1.6909  -20.7241  -49.5494 H         1 UNK         0.0600 
    210 H210       -3.9654  -23.2738  -49.8465 H         1 UNK         0.3000 
    211 H211       -6.0323  -23.2893  -49.0424 H         1 UNK         0.0600 
    212 H212       -6.7995  -21.8532  -51.6371 H         1 UNK         0.0600 
    213 H213       -7.9507  -22.4972  -50.4736 H         1 UNK         0.0600 
    214 H214       -6.8534  -23.5778  -51.3174 H         1 UNK         0.0600 
    215 H215       -4.4871  -21.7887  -47.7875 H         1 UNK         0.3000 
    216 H216       -4.0378  -20.0724  -46.4717 H         1 UNK         0.0600 
    217 H217       -5.9535  -19.0197  -45.2449 H         1 UNK         0.0600 
    218 H218       -6.1304  -20.7584  -45.3660 H         1 UNK         0.0600 
    219 H219       -7.0868  -19.7126  -46.4052 H         1 UNK         0.0600 
    220 H220       -6.4951  -17.8444  -47.0608 H         1 UNK         0.3000 
    221 H221       -4.6421  -15.9426  -48.2506 H         1 UNK         0.0600 
    222 H222       -7.5567  -15.7158  -47.3202 H         1 UNK         0.0600 
    223 H223       -6.1261  -15.3007  -46.3754 H         1 UNK         0.0600 
    224 H224       -6.5457  -14.3617  -47.7996 H         1 UNK         0.0600 
    225 H225       -6.7227  -18.2512  -49.6712 H         1 UNK         0.3000 
    226 H226       -7.9334  -16.6921  -51.7329 H         1 UNK         0.0600 
    227 H227       -7.3181  -19.6815  -51.6790 H         1 UNK         0.0600 
    228 H228       -8.7584  -18.9370  -50.9847 H         1 UNK         0.0600 
    229 H229       -8.4865  -18.8854  -52.7218 H         1 UNK         0.0600 
    230 H230       -4.7575  -18.0877  -51.4512 H         1 UNK         0.3000 
    231 H231       -2.8822  -17.9557  -52.6017 H         1 UNK         0.0600 
    232 H232       -2.4420  -16.0106  -54.0492 H         1 UNK         0.0600 
    233 H233       -3.3575  -15.4998  -52.6393 H         1 UNK         0.0600 
    234 H234       -4.1603  -15.6741  -54.1972 H         1 UNK         0.0600 
    235 H235       -4.1872  -20.0607  -53.2361 H         1 UNK         0.3000 
    236 H236       -4.0760  -20.5744  -56.1279 H         1 UNK         0.0600 
    237 H237       -5.6100  -21.8345  -54.5291 H         1 UNK         0.0600 
    238 H238       -4.5693  -22.8789  -55.4757 H         1 UNK         0.0600 
    239 H239       -4.1846  -22.5574  -53.7922 H         1 UNK         0.0600 
    240 H240       -2.6462  -22.8785  -56.2520 H         1 UNK         0.3000 
    241 H241       -0.7694  -23.6783  -56.8684 H         1 UNK         0.0600 
    242 H242        1.0182  -20.1364  -57.4548 H         1 UNK         0.3800 
    243 H243       -0.3508  -20.2682  -56.3610 H         1 UNK         0.3800 
    244 H244       -0.6191  -24.4156  -54.5909 H         1 UNK         0.0800 
    245 H245        0.9721  -24.2004  -55.2398 H         1 UNK         0.0800 
    246 H246        2.4189  -21.9866  -54.7852 H         1 UNK         0.0800 
    247 H247        2.8522  -23.1328  -53.5386 H         1 UNK         0.0800 
@<TRIPOS>BOND
     1    1    2 1    
     2    1  127 1    
     3    1  128 1    
     4    1  129 1    
     5    2    3 2    
     6    2    4 am   BACKBONE|DICT|INTERRES
     7    4    5 1    
     8    4  130 1    
     9    5    6 1    
    10    5   65 1    
    11    5  131 1    
    12    6    7 1    
    13    6  132 1    
    14    6  133 1    
    15    7    8 1    
    16    8    9 1    
    17    8  134 1    
    18    8  135 1    
    19    9   10 ar   
    20    9   14 ar   
    21   10   11 ar   
    22   10  136 1    
    23   11   12 ar   
    24   11  126 1    
    25   12   13 ar   
    26   12  137 1    
    27   13   14 ar   
    28   13   15 1    
    29   14  138 1    
    30   15   16 1    
    31   15  139 1    
    32   15  140 1    
    33   16   17 1    
    34   17   18 1    
    35   17  141 1    
    36   17  142 1    
    37   18   19 1    
    38   18   67 1    
    39   18  143 1    
    40   19   20 am   BACKBONE|DICT|INTERRES
    41   19  144 1    
    42   20   21 2    
    43   20   22 1    
    44   22   23 1    
    45   22   24 1    
    46   22  145 1    
    47   23  146 1    
    48   23  147 1    
    49   23  148 1    
    50   24   25 am   BACKBONE|DICT|INTERRES
    51   24  149 1    
    52   25   26 2    
    53   25   27 1    
    54   27   28 1    
    55   27   29 1    
    56   27  150 1    
    57   28  151 1    
    58   28  152 1    
    59   28  153 1    
    60   29   30 am   BACKBONE|DICT|INTERRES
    61   29  154 1    
    62   30   31 2    
    63   30   32 1    
    64   32   33 1    
    65   32   34 1    
    66   32  155 1    
    67   33  156 1    
    68   33  157 1    
    69   33  158 1    
    70   34   35 am   BACKBONE|DICT|INTERRES
    71   34  159 1    
    72   35   36 2    
    73   35   37 1    
    74   37   38 1    
    75   37   39 1    
    76   37  160 1    
    77   38  161 1    
    78   38  162 1    
    79   38  163 1    
    80   39   40 am   BACKBONE|DICT|INTERRES
    81   39  164 1    
    82   40   41 2    
    83   40   42 1    
    84   42   43 1    
    85   42   44 1    
    86   42  165 1    
    87   43  166 1    
    88   43  167 1    
    89   43  168 1    
    90   44   45 am   BACKBONE|DICT|INTERRES
    91   44  169 1    
    92   45   46 2    
    93   45   47 1    
    94   47   48 1    
    95   47   49 1    
    96   47  170 1    
    97   48  171 1    
    98   48  172 1    
    99   48  173 1    
   100   49   50 am   BACKBONE|DICT|INTERRES
   101   49  174 1    
   102   50   51 2    
   103   50   52 1    
   104   52   53 1    
   105   52   54 1    
   106   52  175 1    
   107   53  176 1    
   108   53  177 1    
   109   53  178 1    
   110   54   55 am   BACKBONE|DICT|INTERRES
   111   54  179 1    
   112   55   56 2    
   113   55   57 1    
   114   57   58 1    
   115   57   59 1    
   116   57  180 1    
   117   58  181 1    
   118   58  182 1    
   119   58  183 1    
   120   59   60 am   BACKBONE|DICT|INTERRES
   121   59  184 1    
   122   60   61 2    
   123   60   62 1    
   124   62   63 1    
   125   62   64 1    
   126   62  185 1    
   127   63  186 1    
   128   63  187 1    
   129   63  188 1    
   130   64   65 am   BACKBONE|DICT|INTERRES
   131   64  189 1    
   132   65   66 2    
   133   67   68 2    
   134   67   69 am   BACKBONE|DICT|INTERRES
   135   69   70 1    
   136   69  190 1    
   137   70   71 1    
   138   70   72 1    
   139   70  191 1    
   140   71  192 1    
   141   71  193 1    
   142   71  194 1    
   143   72   73 2    
   144   72   74 am   BACKBONE|DICT|INTERRES
   145   74   75 1    
   146   74  195 1    
   147   75   76 1    
   148   75   77 1    
   149   75  196 1    
   150   76  197 1    
   151   76  198 1    
   152   76  199 1    
   153   77   78 2    
   154   77   79 am   BACKBONE|DICT|INTERRES
   155   79   80 1    
   156   79  200 1    
   157   80   81 1    
   158   80   82 1    
   159   80  201 1    
   160   81  202 1    
   161   81  203 1    
   162   81  204 1    
   163   82   83 2    
   164   82   84 am   BACKBONE|DICT|INTERRES
   165   84   85 1    
   166   84  205 1    
   167   85   86 1    
   168   85   87 1    
   169   85  206 1    
   170   86  207 1    
   171   86  208 1    
   172   86  209 1    
   173   87   88 2    
   174   87   89 am   BACKBONE|DICT|INTERRES
   175   89   90 1    
   176   89  210 1    
   177   90   91 1    
   178   90   92 1    
   179   90  211 1    
   180   91  212 1    
   181   91  213 1    
   182   91  214 1    
   183   92   93 2    
   184   92   94 am   BACKBONE|DICT|INTERRES
   185   94   95 1    
   186   94  215 1    
   187   95   96 1    
   188   95   97 1    
   189   95  216 1    
   190   96  217 1    
   191   96  218 1    
   192   96  219 1    
   193   97   98 2    
   194   97   99 am   BACKBONE|DICT|INTERRES
   195   99  100 1    
   196   99  220 1    
   197  100  101 1    
   198  100  102 1    
   199  100  221 1    
   200  101  222 1    
   201  101  223 1    
   202  101  224 1    
   203  102  103 2    
   204  102  104 am   BACKBONE|DICT|INTERRES
   205  104  105 1    
   206  104  225 1    
   207  105  106 1    
   208  105  107 1    
   209  105  226 1    
   210  106  227 1    
   211  106  228 1    
   212  106  229 1    
   213  107  108 2    
   214  107  109 am   BACKBONE|DICT|INTERRES
   215  109  110 1    
   216  109  230 1    
   217  110  111 1    
   218  110  112 1    
   219  110  231 1    
   220  111  232 1    
   221  111  233 1    
   222  111  234 1    
   223  112  113 2    
   224  112  114 am   BACKBONE|DICT|INTERRES
   225  114  115 1    
   226  114  235 1    
   227  115  116 1    
   228  115  117 1    
   229  115  236 1    
   230  116  237 1    
   231  116  238 1    
   232  116  239 1    
   233  117  118 2    
   234  117  119 am   BACKBONE|DICT|INTERRES
   235  119  120 1    
   236  119  240 1    
   237  120  121 1    
   238  120  124 1    
   239  120  241 1    
   240  121  122 am   BACKBONE|DICT|INTERRES
   241  121  123 2    
   242  122  242 1    
   243  122  243 1    
   244  124  125 1    
   245  124  244 1    
   246  124  245 1    
   247  125  126 1    
   248  126  246 1    
   249  126  247 1    
@<TRIPOS>SUBSTRUCTURE
     1 UNK         1 GROUP             0       ****    0 ROOT    
