@<TRIPOS>MOLECULE
3R540
247   249    1
SMALL
USER_CHARGES


@<TRIPOS>ATOM
      1 CA         -4.8929  -13.0564  -45.3778 C.3       0 UNK        -0.1800 
      2 C          -3.5965  -12.6585  -46.0699 C.2       0 UNK         0.5000 
      3 O          -2.9454  -11.7031  -45.6470 O.2       0 UNK        -0.5000 
      4 N          -3.2291  -13.3900  -47.1298 N.am      1 UNK        -0.5000 
      5 CA         -2.0421  -13.1911  -47.9686 C.3       1 UNK         0.1400 
      6 C6         -2.0673  -14.1641  -49.1728 C.3       23 UNK        -0.0398 
      7 S7         -0.9547  -13.6796  -50.5355 S.3       23 UNK        -0.2404 
      8 C8          0.3915  -14.9079  -50.3686 C.3       23 UNK        -0.0205 
      9 C9          0.0227  -16.3761  -50.6108 C.ar      23 UNK        -0.0193 
     10 C10        -1.2270  -16.7876  -51.0966 C.ar      23 UNK        -0.1150 
     11 C11        -1.5116  -18.1433  -51.2762 C.ar      23 UNK        -0.0193 
     12 C12        -0.5275  -19.0953  -50.9984 C.ar      23 UNK        -0.1150 
     13 C13         0.7322  -18.7067  -50.5360 C.ar      23 UNK        -0.0193 
     14 C14         0.9923  -17.3474  -50.3378 C.ar      23 UNK        -0.1150 
     15 C15         1.8375  -19.7325  -50.2983 C.3       23 UNK        -0.0205 
     16 S16         1.2891  -21.2502  -49.4475 S.3       23 UNK        -0.2404 
     17 C17         0.9173  -20.6232  -47.7769 C.3       23 UNK        -0.0398 
     18 CA         -0.4034  -21.1959  -47.2090 C.3       11 UNK         0.1400 
     19 N          -0.4311  -21.1435  -45.7441 N.am      11 UNK        -0.5000 
     20 C          -1.3706  -21.7097  -44.9733 C.2       10 UNK         0.5000 
     21 O          -2.3051  -22.3774  -45.4134 O.2       10 UNK        -0.5000 
     22 CA         -1.2836  -21.4443  -43.4597 C.3       10 UNK         0.1400 
     23 CB         -0.2308  -22.3472  -42.8001 C.3       10 UNK        -0.1800 
     24 N          -0.9946  -20.0434  -43.1553 N.am      10 UNK        -0.5000 
     25 C          -1.8051  -19.0190  -43.4591 C.2       9 UNK         0.5000 
     26 O          -2.9156  -19.1536  -43.9736 O.2       9 UNK        -0.5000 
     27 CA         -1.2580  -17.6050  -43.1880 C.3       9 UNK         0.1400 
     28 CB         -1.3813  -17.2602  -41.6955 C.3       9 UNK        -0.1800 
     29 N           0.1323  -17.4488  -43.6242 N.am      9 UNK        -0.5000 
     30 C           0.5556  -17.6121  -44.8876 C.2       8 UNK         0.5000 
     31 O          -0.1891  -17.8670  -45.8303 O.2       8 UNK        -0.5000 
     32 CA          2.0712  -17.5630  -45.1343 C.3       8 UNK         0.1400 
     33 CB          2.5610  -16.1195  -45.2720 C.3       8 UNK        -0.1800 
     34 N           2.8159  -18.2415  -44.0766 N.am      8 UNK        -0.5000 
     35 C           2.8175  -19.5693  -43.8961 C.2       7 UNK         0.5000 
     36 O           2.2217  -20.3593  -44.6281 O.2       7 UNK        -0.5000 
     37 CA          3.5746  -20.0934  -42.6633 C.3       7 UNK         0.1400 
     38 CB          5.0765  -20.2174  -42.9592 C.3       7 UNK        -0.1800 
     39 N           3.3773  -19.2424  -41.4887 N.am      7 UNK        -0.5000 
     40 C           2.2036  -19.0887  -40.8599 C.2       6 UNK         0.5000 
     41 O           1.1741  -19.6812  -41.1829 O.2       6 UNK        -0.5000 
     42 CA          2.1656  -18.0726  -39.7037 C.3       6 UNK         0.1400 
     43 CB          2.5634  -18.7455  -38.3817 C.3       6 UNK        -0.1800 
     44 N           3.0153  -16.8981  -39.9269 N.am      6 UNK        -0.5000 
     45 C           2.8236  -15.9995  -40.9012 C.2       5 UNK         0.5000 
     46 O           1.9451  -16.1017  -41.7609 O.2       5 UNK        -0.5000 
     47 CA          3.7848  -14.8012  -40.9383 C.3       5 UNK         0.1400 
     48 CB          4.7483  -14.9103  -42.1297 C.3       5 UNK        -0.1800 
     49 N           3.0024  -13.5763  -41.0630 N.am      5 UNK        -0.5000 
     50 C           2.5721  -12.8414  -40.0266 C.2       4 UNK         0.5000 
     51 O           2.9393  -13.0162  -38.8640 O.2       4 UNK        -0.5000 
     52 CA          1.5246  -11.7490  -40.3321 C.3       4 UNK         0.1400 
     53 CB          2.2102  -10.4068  -40.6281 C.3       4 UNK        -0.1800 
     54 N           0.6694  -12.1099  -41.4628 N.am      4 UNK        -0.5000 
     55 C          -0.1823  -13.1433  -41.4711 C.2       3 UNK         0.5000 
     56 O          -0.5178  -13.7425  -40.4486 O.2       3 UNK        -0.5000 
     57 CA         -0.7209  -13.6188  -42.8388 C.3       3 UNK         0.1400 
     58 CB         -2.2491  -13.7798  -42.8218 C.3       3 UNK        -0.1800 
     59 N          -0.3417  -12.8137  -44.0060 N.am      3 UNK        -0.5000 
     60 C           0.8930  -12.6868  -44.5163 C.2       2 UNK         0.5000 
     61 O           1.9079  -13.0699  -43.9323 O.2       2 UNK        -0.5000 
     62 CA          1.0052  -11.9942  -45.8941 C.3       2 UNK         0.1400 
     63 CB          2.2765  -12.3984  -46.6687 C.3       2 UNK        -0.1800 
     64 N          -0.1857  -12.1611  -46.7385 N.am      2 UNK        -0.5000 
     65 C          -0.7409  -13.3143  -47.1448 C.2       1 UNK         0.5000 
     66 O          -0.3014  -14.4297  -46.8653 O.2       1 UNK        -0.5000 
     67 C          -1.6459  -20.5277  -47.8371 C.2       11 UNK         0.5000 
     68 O          -2.2681  -21.1161  -48.7209 O.2       11 UNK        -0.5000 
     69 N          -2.0176  -19.3439  -47.3293 N.am      12 UNK        -0.5000 
     70 CA         -3.2040  -18.5881  -47.7290 C.3       12 UNK         0.1400 
     71 CB         -3.2144  -17.2289  -47.0114 C.3       12 UNK        -0.1800 
     72 C          -4.5161  -19.3497  -47.4685 C.2       12 UNK         0.5000 
     73 O          -5.4096  -19.3218  -48.3149 O.2       12 UNK        -0.5000 
     74 N          -4.5993  -20.0242  -46.3131 N.am      13 UNK        -0.5000 
     75 CA         -5.7306  -20.8650  -45.9246 C.3       13 UNK         0.1400 
     76 CB         -5.6324  -21.1913  -44.4264 C.3       13 UNK        -0.1800 
     77 C          -5.8295  -22.1544  -46.7614 C.2       13 UNK         0.5000 
     78 O          -6.9303  -22.5295  -47.1671 O.2       13 UNK        -0.5000 
     79 N          -4.6847  -22.8089  -46.9992 N.am      14 UNK        -0.5000 
     80 CA         -4.5730  -24.0389  -47.7842 C.3       14 UNK         0.1400 
     81 CB         -3.1847  -24.6523  -47.5550 C.3       14 UNK        -0.1800 
     82 C          -4.8272  -23.8239  -49.2868 C.2       14 UNK         0.5000 
     83 O          -5.4588  -24.6710  -49.9209 O.2       14 UNK        -0.5000 
     84 N          -4.3272  -22.7022  -49.8235 N.am      15 UNK        -0.5000 
     85 CA         -4.4089  -22.2685  -51.2179 C.3       15 UNK         0.1400 
     86 CB         -5.8274  -21.7541  -51.5422 C.3       15 UNK        -0.1800 
     87 C          -3.8832  -23.3483  -52.1812 C.2       15 UNK         0.5000 
     88 O          -2.7009  -23.6824  -52.1100 O.2       15 UNK        -0.5000 
     89 N          -4.7645  -23.9204  -53.0121 N.am      16 UNK        -0.5000 
     90 CA         -4.4613  -24.9676  -53.9919 C.3       16 UNK         0.1400 
     91 CB         -5.7207  -25.2376  -54.8295 C.3       16 UNK        -0.1800 
     92 C          -3.9060  -26.2800  -53.3973 C.2       16 UNK         0.5000 
     93 O          -3.3287  -27.0758  -54.1388 O.2       16 UNK        -0.5000 
     94 N          -4.0744  -26.4924  -52.0841 N.am      17 UNK        -0.5000 
     95 CA         -3.4781  -27.6128  -51.3567 C.3       17 UNK         0.1400 
     96 CB         -4.3073  -27.8927  -50.0937 C.3       17 UNK        -0.1800 
     97 C          -1.9919  -27.3884  -51.0015 C.2       17 UNK         0.5000 
     98 O          -1.3138  -28.3637  -50.6749 O.2       17 UNK        -0.5000 
     99 N          -1.5098  -26.1373  -51.0553 N.am      18 UNK        -0.5000 
    100 CA        -0.1335  -25.7582  -50.7200 C.3       18 UNK         0.1400 
    101 CB        -0.1540  -24.7851  -49.5305 C.3       18 UNK        -0.1800 
    102 C          0.6132  -25.1264  -51.9070 C.2       18 UNK         0.5000 
    103 O          1.8139  -25.3610  -52.0527 O.2       18 UNK        -0.5000 
    104 N         -0.0916  -24.3367  -52.7227 N.am      19 UNK        -0.5000 
    105 CA         0.4413  -23.5785  -53.8491 C.3       19 UNK         0.1400 
    106 CB         0.6415  -22.1138  -53.4045 C.3       19 UNK        -0.1800 
    107 C         -0.4890  -23.7354  -55.0676 C.2       19 UNK         0.5000 
    108 O         -1.0825  -24.7996  -55.2544 O.2       19 UNK        -0.5000 
    109 N         -0.5788  -22.6869  -55.8939 N.am      20 UNK        -0.5000 
    110 CA        -1.4790  -22.5825  -57.0428 C.3       20 UNK         0.1400 
    111 CB        -0.8975  -21.5323  -58.0072 C.3       20 UNK        -0.1800 
    112 C         -2.9131  -22.2125  -56.6079 C.2       20 UNK         0.5000 
    113 O         -3.1975  -22.1095  -55.4133 O.2       20 UNK        -0.5000 
    114 N         -3.7983  -21.9710  -57.5840 N.am      21 UNK        -0.5000 
    115 CA        -5.1721  -21.4910  -57.3896 C.3       21 UNK         0.1400 
    116 CB        -5.9874  -21.8019  -58.6575 C.3       21 UNK        -0.1800 
    117 C         -5.2254  -19.9943  -56.9950 C.2       21 UNK         0.5000 
    118 O         -5.8633  -19.1868  -57.6728 O.2       21 UNK        -0.5000 
    119 N         -4.5262  -19.6550  -55.9093 N.am      22 UNK        -0.5000 
    120 CA        -4.3861  -18.3148  -55.3204 C.3       22 UNK         0.1400 
    121 C         -5.5985  -17.8401  -54.4650 C.2       22 UNK         0.5000 
    122 N         -6.6099  -18.6651  -54.2219 N.am      22 UNK        -0.7600 
    123 O         -5.6280  -16.6942  -54.0247 O.2       22 UNK        -0.5000 
    124 C124       -3.0436  -18.1927  -54.5484 C.3       23 UNK        -0.0398 
    125 S125       -2.8148  -19.5108  -53.3028 S.3       23 UNK        -0.2404 
    126 C126       -2.8902  -18.5900  -51.7373 C.3       23 UNK        -0.0205 
    127 H127       -5.2454  -14.0335  -45.7093 H         1 UNK         0.0600 
    128 H128       -5.6694  -12.3219  -45.5910 H         1 UNK         0.0600 
    129 H129       -4.7526  -13.0969  -44.2981 H         1 UNK         0.0600 
    130 H130       -3.8134  -14.1686  -47.3955 H         1 UNK         0.3000 
    131 H131       -2.1047  -12.1740  -48.3616 H         1 UNK         0.0600 
    132 H132       -3.0711  -14.1932  -49.5990 H         1 UNK         0.0800 
    133 H133       -1.8556  -15.1855  -48.8572 H         1 UNK         0.0800 
    134 H134        1.1801  -14.6362  -51.0714 H         1 UNK         0.0800 
    135 H135        0.8252  -14.8111  -49.3721 H         1 UNK         0.0800 
    136 H136       -1.9931  -16.0630  -51.3272 H         1 UNK         0.1150 
    137 H137       -0.7470  -20.1433  -51.1486 H         1 UNK         0.1150 
    138 H138        1.9646  -17.0382  -49.9801 H         1 UNK         0.1150 
    139 H139        2.2542  -20.0120  -51.2665 H         1 UNK         0.0800 
    140 H140        2.6569  -19.2923  -49.7279 H         1 UNK         0.0800 
    141 H141        1.7553  -20.9233  -47.1476 H         1 UNK         0.0800 
    142 H142        0.9107  -19.5320  -47.7664 H         1 UNK         0.0800 
    143 H143       -0.4461  -22.2561  -47.4687 H         1 UNK         0.0600 
    144 H144        0.3271  -20.6405  -45.2951 H         1 UNK         0.3000 
    145 H145       -2.2559  -21.6851  -43.0249 H         1 UNK         0.0600 
    146 H146       -0.2208  -22.2136  -41.7182 H         1 UNK         0.0600 
    147 H147       -0.4407  -23.3992  -42.9968 H         1 UNK         0.0600 
    148 H148        0.7726  -22.1371  -43.1705 H         1 UNK         0.0600 
    149 H149       -0.1182  -19.8500  -42.6802 H         1 UNK         0.3000 
    150 H150       -1.8604  -16.8938  -43.7568 H         1 UNK         0.0600 
    151 H151       -2.4283  -17.2256  -41.3926 H         1 UNK         0.0600 
    152 H152       -0.9440  -16.2901  -41.4666 H         1 UNK         0.0600 
    153 H153       -0.8858  -17.9983  -41.0660 H         1 UNK         0.0600 
    154 H154        0.8113  -17.1922  -42.9134 H         1 UNK         0.3000 
    155 H155        2.2738  -18.0758  -46.0771 H         1 UNK         0.0600 
    156 H156        3.6295  -16.0756  -45.4819 H         1 UNK         0.0600 
    157 H157        2.3685  -15.5511  -44.3644 H         1 UNK         0.0600 
    158 H158        2.0440  -15.6177  -46.0894 H         1 UNK         0.0600 
    159 H159        3.2826  -17.6563  -43.4004 H         1 UNK         0.3000 
    160 H160        3.1877  -21.0884  -42.4327 H         1 UNK         0.0600 
    161 H161        5.5285  -19.2480  -43.1730 H         1 UNK         0.0600 
    162 H162        5.2514  -20.8593  -43.8237 H         1 UNK         0.0600 
    163 H163        5.6091  -20.6578  -42.1161 H         1 UNK         0.0600 
    164 H164        4.1754  -18.7214  -41.1571 H         1 UNK         0.3000 
    165 H165        1.1355  -17.7230  -39.6092 H         1 UNK         0.0600 
    166 H166        3.5982  -19.0897  -38.3990 H         1 UNK         0.0600 
    167 H167        2.4505  -18.0608  -37.5409 H         1 UNK         0.0600 
    168 H168        1.9324  -19.6122  -38.1797 H         1 UNK         0.0600 
    169 H169        3.7593  -16.7489  -39.2603 H         1 UNK         0.3000 
    170 H170        4.3773  -14.7815  -40.0212 H         1 UNK         0.0600 
    171 H171        5.3158  -15.8409  -42.0931 H         1 UNK         0.0600 
    172 H172        4.2200  -14.8814  -43.0825 H         1 UNK         0.0600 
    173 H173        5.4667  -14.0906  -42.1265 H         1 UNK         0.0600 
    174 H174        2.6101  -13.3986  -41.9822 H         1 UNK         0.3000 
    175 H175        0.8946  -11.6293  -39.4483 H         1 UNK         0.0600 
    176 H176        1.4770   -9.6164  -40.7897 H         1 UNK         0.0600 
    177 H177        2.8408  -10.0989  -39.7931 H         1 UNK         0.0600 
    178 H178        2.8434  -10.4650  -41.5144 H         1 UNK         0.0600 
    179 H179        0.9057  -11.7006  -42.3549 H         1 UNK         0.3000 
    180 H180       -0.2872  -14.6079  -42.9947 H         1 UNK         0.0600 
    181 H181       -2.5945  -14.2888  -43.7212 H         1 UNK         0.0600 
    182 H182       -2.5820  -14.3779  -41.9729 H         1 UNK         0.0600 
    183 H183       -2.7512  -12.8138  -42.7604 H         1 UNK         0.0600 
    184 H184       -1.1085  -12.4254  -44.5420 H         1 UNK         0.3000 
    185 H185        1.0795  -10.9272  -45.6806 H         1 UNK         0.0600 
    186 H186        2.3633  -11.8368  -47.5988 H         1 UNK         0.0600 
    187 H187        3.1760  -12.1973  -46.0858 H         1 UNK         0.0600 
    188 H188        2.2792  -13.4581  -46.9203 H         1 UNK         0.0600 
    189 H189       -0.6695  -11.3037  -46.9689 H         1 UNK         0.3000 
    190 H190       -1.4167  -18.8997  -46.6366 H         1 UNK         0.3000 
    191 H191       -3.1270  -18.4020  -48.8000 H         1 UNK         0.0600 
    192 H192       -4.0284  -16.6023  -47.3766 H         1 UNK         0.0600 
    193 H193       -2.2825  -16.6886  -47.1740 H         1 UNK         0.0600 
    194 H194       -3.3431  -17.3409  -45.9349 H         1 UNK         0.0600 
    195 H195       -3.8366  -19.9475  -45.6482 H         1 UNK         0.3000 
    196 H196       -6.6471  -20.2933  -46.0850 H         1 UNK         0.0600 
    197 H197       -6.4754  -21.8032  -44.1033 H         1 UNK         0.0600 
    198 H198       -5.6396  -20.2823  -43.8246 H         1 UNK         0.0600 
    199 H199       -4.7190  -21.7386  -44.1912 H         1 UNK         0.0600 
    200 H200       -3.8263  -22.4624  -46.5789 H         1 UNK         0.3000 
    201 H201       -5.3214  -24.7460  -47.4205 H         1 UNK         0.0600 
    202 H202       -3.0500  -24.9418  -46.5127 H         1 UNK         0.0600 
    203 H203       -2.3955  -23.9439  -47.8068 H         1 UNK         0.0600 
    204 H204       -3.0341  -25.5440  -48.1631 H         1 UNK         0.0600 
    205 H205       -3.7386  -22.1148  -49.2360 H         1 UNK         0.3000 
    206 H206       -3.7181  -21.4337  -51.3084 H         1 UNK         0.0600 
    207 H207       -6.0948  -20.9269  -50.8841 H         1 UNK         0.0600 
    208 H208       -5.8848  -21.3786  -52.5648 H         1 UNK         0.0600 
    209 H209       -6.5858  -22.5281  -51.4207 H         1 UNK         0.0600 
    210 H210       -5.7250  -23.6149  -52.9676 H         1 UNK         0.3000 
    211 H211       -3.6910  -24.5786  -54.6576 H         1 UNK         0.0600 
    212 H212       -6.5430  -25.6006  -54.2119 H         1 UNK         0.0600 
    213 H213       -5.5278  -25.9893  -55.5960 H         1 UNK         0.0600 
    214 H214       -6.0545  -24.3347  -55.3413 H         1 UNK         0.0600 
    215 H215       -4.5757  -25.8039  -51.5331 H         1 UNK         0.3000 
    216 H216       -3.5275  -28.5051  -51.9845 H         1 UNK         0.0600 
    217 H217       -3.9173  -28.7558  -49.5529 H         1 UNK         0.0600 
    218 H218       -5.3457  -28.1095  -50.3445 H         1 UNK         0.0600 
    219 H219       -4.2999  -27.0473  -49.4078 H         1 UNK         0.0600 
    220 H220       -2.1164  -25.3882  -51.3735 H         1 UNK         0.3000 
    221 H221        0.4439  -26.6344  -50.4187 H         1 UNK         0.0600 
    222 H222       -0.5376  -25.2731  -48.6354 H         1 UNK         0.0600 
    223 H223        0.8501  -24.4294  -49.2959 H         1 UNK         0.0600 
    224 H224       -0.7727  -23.9097  -49.7352 H         1 UNK         0.0600 
    225 H225       -1.0836  -24.1877  -52.5428 H         1 UNK         0.3000 
    226 H226        1.4090  -23.9845  -54.1495 H         1 UNK         0.0600 
    227 H227       -0.3108  -21.6286  -53.1845 H         1 UNK         0.0600 
    228 H228        1.2530  -22.0605  -52.5039 H         1 UNK         0.0600 
    229 H229        1.1527  -21.5256  -54.1669 H         1 UNK         0.0600 
    230 H230       -0.0886  -21.8422  -55.6405 H         1 UNK         0.3000 
    231 H231       -1.5197  -23.5460  -57.5547 H         1 UNK         0.0600 
    232 H232       -1.4606  -21.4876  -58.9397 H         1 UNK         0.0600 
    233 H233        0.1332  -21.7695  -58.2719 H         1 UNK         0.0600 
    234 H234       -0.9079  -20.5338  -57.5676 H         1 UNK         0.0600 
    235 H235       -3.4915  -22.0459  -58.5429 H         1 UNK         0.3000 
    236 H236       -5.6201  -22.0517  -56.5665 H         1 UNK         0.0600 
    237 H237       -5.5919  -21.2791  -59.5293 H         1 UNK         0.0600 
    238 H238       -5.9837  -22.8700  -58.8761 H         1 UNK         0.0600 
    239 H239       -7.0291  -21.5015  -58.5373 H         1 UNK         0.0600 
    240 H240       -4.0225  -20.3963  -55.4276 H         1 UNK         0.3000 
    241 H241       -4.3357  -17.6073  -56.1500 H         1 UNK         0.0600 
    242 H242       -7.3918  -18.3433  -53.6738 H         1 UNK         0.3800 
    243 H243       -6.6019  -19.6032  -54.5857 H         1 UNK         0.3800 
    244 H244       -2.2170  -18.2706  -55.2555 H         1 UNK         0.0800 
    245 H245       -2.9371  -17.2092  -54.0876 H         1 UNK         0.0800 
    246 H246       -3.5759  -17.7465  -51.8311 H         1 UNK         0.0800 
    247 H247       -3.3153  -19.2368  -50.9707 H         1 UNK         0.0800 
@<TRIPOS>BOND
     1    1    2 1    
     2    1  127 1    
     3    1  128 1    
     4    1  129 1    
     5    2    3 2    
     6    2    4 am   BACKBONE|DICT|INTERRES
     7    4    5 1    
     8    4  130 1    
     9    5    6 1    
    10    5   65 1    
    11    5  131 1    
    12    6    7 1    
    13    6  132 1    
    14    6  133 1    
    15    7    8 1    
    16    8    9 1    
    17    8  134 1    
    18    8  135 1    
    19    9   10 ar   
    20    9   14 ar   
    21   10   11 ar   
    22   10  136 1    
    23   11   12 ar   
    24   11  126 1    
    25   12   13 ar   
    26   12  137 1    
    27   13   14 ar   
    28   13   15 1    
    29   14  138 1    
    30   15   16 1    
    31   15  139 1    
    32   15  140 1    
    33   16   17 1    
    34   17   18 1    
    35   17  141 1    
    36   17  142 1    
    37   18   19 1    
    38   18   67 1    
    39   18  143 1    
    40   19   20 am   BACKBONE|DICT|INTERRES
    41   19  144 1    
    42   20   21 2    
    43   20   22 1    
    44   22   23 1    
    45   22   24 1    
    46   22  145 1    
    47   23  146 1    
    48   23  147 1    
    49   23  148 1    
    50   24   25 am   BACKBONE|DICT|INTERRES
    51   24  149 1    
    52   25   26 2    
    53   25   27 1    
    54   27   28 1    
    55   27   29 1    
    56   27  150 1    
    57   28  151 1    
    58   28  152 1    
    59   28  153 1    
    60   29   30 am   BACKBONE|DICT|INTERRES
    61   29  154 1    
    62   30   31 2    
    63   30   32 1    
    64   32   33 1    
    65   32   34 1    
    66   32  155 1    
    67   33  156 1    
    68   33  157 1    
    69   33  158 1    
    70   34   35 am   BACKBONE|DICT|INTERRES
    71   34  159 1    
    72   35   36 2    
    73   35   37 1    
    74   37   38 1    
    75   37   39 1    
    76   37  160 1    
    77   38  161 1    
    78   38  162 1    
    79   38  163 1    
    80   39   40 am   BACKBONE|DICT|INTERRES
    81   39  164 1    
    82   40   41 2    
    83   40   42 1    
    84   42   43 1    
    85   42   44 1    
    86   42  165 1    
    87   43  166 1    
    88   43  167 1    
    89   43  168 1    
    90   44   45 am   BACKBONE|DICT|INTERRES
    91   44  169 1    
    92   45   46 2    
    93   45   47 1    
    94   47   48 1    
    95   47   49 1    
    96   47  170 1    
    97   48  171 1    
    98   48  172 1    
    99   48  173 1    
   100   49   50 am   BACKBONE|DICT|INTERRES
   101   49  174 1    
   102   50   51 2    
   103   50   52 1    
   104   52   53 1    
   105   52   54 1    
   106   52  175 1    
   107   53  176 1    
   108   53  177 1    
   109   53  178 1    
   110   54   55 am   BACKBONE|DICT|INTERRES
   111   54  179 1    
   112   55   56 2    
   113   55   57 1    
   114   57   58 1    
   115   57   59 1    
   116   57  180 1    
   117   58  181 1    
   118   58  182 1    
   119   58  183 1    
   120   59   60 am   BACKBONE|DICT|INTERRES
   121   59  184 1    
   122   60   61 2    
   123   60   62 1    
   124   62   63 1    
   125   62   64 1    
   126   62  185 1    
   127   63  186 1    
   128   63  187 1    
   129   63  188 1    
   130   64   65 am   BACKBONE|DICT|INTERRES
   131   64  189 1    
   132   65   66 2    
   133   67   68 2    
   134   67   69 am   BACKBONE|DICT|INTERRES
   135   69   70 1    
   136   69  190 1    
   137   70   71 1    
   138   70   72 1    
   139   70  191 1    
   140   71  192 1    
   141   71  193 1    
   142   71  194 1    
   143   72   73 2    
   144   72   74 am   BACKBONE|DICT|INTERRES
   145   74   75 1    
   146   74  195 1    
   147   75   76 1    
   148   75   77 1    
   149   75  196 1    
   150   76  197 1    
   151   76  198 1    
   152   76  199 1    
   153   77   78 2    
   154   77   79 am   BACKBONE|DICT|INTERRES
   155   79   80 1    
   156   79  200 1    
   157   80   81 1    
   158   80   82 1    
   159   80  201 1    
   160   81  202 1    
   161   81  203 1    
   162   81  204 1    
   163   82   83 2    
   164   82   84 am   BACKBONE|DICT|INTERRES
   165   84   85 1    
   166   84  205 1    
   167   85   86 1    
   168   85   87 1    
   169   85  206 1    
   170   86  207 1    
   171   86  208 1    
   172   86  209 1    
   173   87   88 2    
   174   87   89 am   BACKBONE|DICT|INTERRES
   175   89   90 1    
   176   89  210 1    
   177   90   91 1    
   178   90   92 1    
   179   90  211 1    
   180   91  212 1    
   181   91  213 1    
   182   91  214 1    
   183   92   93 2    
   184   92   94 am   BACKBONE|DICT|INTERRES
   185   94   95 1    
   186   94  215 1    
   187   95   96 1    
   188   95   97 1    
   189   95  216 1    
   190   96  217 1    
   191   96  218 1    
   192   96  219 1    
   193   97   98 2    
   194   97   99 am   BACKBONE|DICT|INTERRES
   195   99  100 1    
   196   99  220 1    
   197  100  101 1    
   198  100  102 1    
   199  100  221 1    
   200  101  222 1    
   201  101  223 1    
   202  101  224 1    
   203  102  103 2    
   204  102  104 am   BACKBONE|DICT|INTERRES
   205  104  105 1    
   206  104  225 1    
   207  105  106 1    
   208  105  107 1    
   209  105  226 1    
   210  106  227 1    
   211  106  228 1    
   212  106  229 1    
   213  107  108 2    
   214  107  109 am   BACKBONE|DICT|INTERRES
   215  109  110 1    
   216  109  230 1    
   217  110  111 1    
   218  110  112 1    
   219  110  231 1    
   220  111  232 1    
   221  111  233 1    
   222  111  234 1    
   223  112  113 2    
   224  112  114 am   BACKBONE|DICT|INTERRES
   225  114  115 1    
   226  114  235 1    
   227  115  116 1    
   228  115  117 1    
   229  115  236 1    
   230  116  237 1    
   231  116  238 1    
   232  116  239 1    
   233  117  118 2    
   234  117  119 am   BACKBONE|DICT|INTERRES
   235  119  120 1    
   236  119  240 1    
   237  120  121 1    
   238  120  124 1    
   239  120  241 1    
   240  121  122 am   BACKBONE|DICT|INTERRES
   241  121  123 2    
   242  122  242 1    
   243  122  243 1    
   244  124  125 1    
   245  124  244 1    
   246  124  245 1    
   247  125  126 1    
   248  126  246 1    
   249  126  247 1    
@<TRIPOS>SUBSTRUCTURE
     1 UNK         1 GROUP             0       ****    0 ROOT    
