@<TRIPOS>MOLECULE
3R540
247   249    1
SMALL
USER_CHARGES


@<TRIPOS>ATOM
      1 CA          8.8221  -11.4592  -45.9366 C.3       0 UNK        -0.1800 
      2 C           7.6032  -12.3699  -45.8872 C.2       0 UNK         0.5000 
      3 O           7.5316  -13.2536  -45.0332 O.2       0 UNK        -0.5000 
      4 N           6.6472  -12.1590  -46.7958 N.am      1 UNK        -0.5000 
      5 CA          5.3949  -12.9015  -46.9001 C.3       1 UNK         0.1400 
      6 C6          5.5920  -14.2723  -47.5993 C.3       23 UNK        -0.0398 
      7 S7          4.1110  -15.3471  -47.5989 S.3       23 UNK        -0.2404 
      8 C8          3.7426  -15.3752  -49.3786 C.3       23 UNK        -0.0205 
      9 C9          2.6315  -16.3529  -49.7274 C.ar      23 UNK        -0.0193 
     10 C10         1.3410  -15.8897  -49.9965 C.ar      23 UNK        -0.1150 
     11 C11         0.3392  -16.7747  -50.4081 C.ar      23 UNK        -0.0193 
     12 C12         0.6351  -18.1362  -50.5378 C.ar      23 UNK        -0.1150 
     13 C13         1.9197  -18.6140  -50.2569 C.ar      23 UNK        -0.0193 
     14 C14         2.9111  -17.7170  -49.8484 C.ar      23 UNK        -0.1150 
     15 C15         2.2588  -20.0866  -50.4452 C.3       23 UNK        -0.0205 
     16 S16         2.1054  -21.0372  -48.9005 S.3       23 UNK        -0.2404 
     17 C17         0.2961  -21.1665  -48.7553 C.3       23 UNK        -0.0398 
     18 CA         -0.1561  -22.2943  -47.7966 C.3       11 UNK         0.1400 
     19 N           0.1959  -22.0419  -46.3929 N.am      11 UNK        -0.5000 
     20 C           0.0017  -22.9132  -45.3905 C.2       10 UNK         0.5000 
     21 O          -0.4171  -24.0580  -45.5569 O.2       10 UNK        -0.5000 
     22 CA          0.2514  -22.4145  -43.9546 C.3       10 UNK         0.1400 
     23 CB          1.7377  -22.5053  -43.5791 C.3       10 UNK        -0.1800 
     24 N          -0.2447  -21.0546  -43.7394 N.am      10 UNK        -0.5000 
     25 C          -1.5398  -20.7087  -43.7867 C.2       9 UNK         0.5000 
     26 O          -2.4535  -21.5180  -43.9432 O.2       9 UNK        -0.5000 
     27 CA         -1.8699  -19.2057  -43.7034 C.3       9 UNK         0.1400 
     28 CB         -1.9175  -18.7280  -42.2451 C.3       9 UNK        -0.1800 
     29 N          -0.9285  -18.3851  -44.4655 N.am      9 UNK        -0.5000 
     30 C          -0.7689  -18.4592  -45.7945 C.2       8 UNK         0.5000 
     31 O          -1.4604  -19.1704  -46.5228 O.2       8 UNK        -0.5000 
     32 CA          0.3946  -17.6560  -46.4004 C.3       8 UNK         0.1400 
     33 CB         -0.0189  -16.2073  -46.6630 C.3       8 UNK        -0.1800 
     34 N           1.5862  -17.6726  -45.5524 N.am      8 UNK        -0.5000 
     35 C           2.3252  -18.7643  -45.3168 C.2       7 UNK         0.5000 
     36 O           2.0906  -19.8631  -45.8139 O.2       7 UNK        -0.5000 
     37 CA          3.4759  -18.6215  -44.3037 C.3       7 UNK         0.1400 
     38 CB          4.7169  -17.9946  -44.9547 C.3       7 UNK        -0.1800 
     39 N           3.0897  -17.8334  -43.1333 N.am      7 UNK        -0.5000 
     40 C           2.1786  -18.2197  -42.2291 C.2       6 UNK         0.5000 
     41 O           1.6199  -19.3156  -42.2504 O.2       6 UNK        -0.5000 
     42 CA          1.7943  -17.1900  -41.1485 C.3       6 UNK         0.1400 
     43 CB          2.7157  -17.3204  -39.9268 C.3       6 UNK        -0.1800 
     44 N           1.8231  -15.8066  -41.6343 N.am      6 UNK        -0.5000 
     45 C           1.0338  -15.3268  -42.6050 C.2       5 UNK         0.5000 
     46 O           0.1847  -16.0055  -43.1863 O.2       5 UNK        -0.5000 
     47 CA          1.3002  -13.8726  -43.0347 C.3       5 UNK         0.1400 
     48 CB          2.5505  -13.8091  -43.9294 C.3       5 UNK        -0.1800 
     49 N           0.1676  -13.2743  -43.7469 N.am      5 UNK        -0.5000 
     50 C          -0.9793  -12.8958  -43.1627 C.2       4 UNK         0.5000 
     51 O          -1.1925  -13.0293  -41.9561 O.2       4 UNK        -0.5000 
     52 CA         -2.0602  -12.2155  -44.0321 C.3       4 UNK         0.1400 
     53 CB         -2.2746  -10.7615  -43.5785 C.3       4 UNK        -0.1800 
     54 N          -1.7434  -12.2022  -45.4609 N.am      4 UNK        -0.5000 
     55 C          -2.1436  -13.1208  -46.3493 C.2       3 UNK         0.5000 
     56 O          -2.8674  -14.0744  -46.0632 O.2       3 UNK        -0.5000 
     57 CA         -1.6583  -12.9526  -47.8091 C.3       3 UNK         0.1400 
     58 CB         -2.7789  -12.3558  -48.6748 C.3       3 UNK        -0.1800 
     59 N          -0.4407  -12.1475  -47.9975 N.am      3 UNK        -0.5000 
     60 C           0.7379  -12.3831  -47.4091 C.2       2 UNK         0.5000 
     61 O           0.8985  -13.2442  -46.5431 O.2       2 UNK        -0.5000 
     62 CA          1.9298  -11.5040  -47.8132 C.3       2 UNK         0.1400 
     63 CB          1.7977  -10.0830  -47.2370 C.3       2 UNK        -0.1800 
     64 N           3.1111  -12.1581  -47.2697 N.am      2 UNK        -0.5000 
     65 C           4.3843  -11.9929  -47.6233 C.2       1 UNK         0.5000 
     66 O           4.7713  -11.1812  -48.4687 O.2       1 UNK        -0.5000 
     67 C          -1.6661  -22.5607  -47.9630 C.2       11 UNK         0.5000 
     68 O          -2.0381  -23.5488  -48.5941 O.2       11 UNK        -0.5000 
     69 N          -2.5068  -21.7077  -47.3617 N.am      12 UNK        -0.5000 
     70 CA         -3.9641  -21.8443  -47.3609 C.3       12 UNK         0.1400 
     71 CB         -4.5924  -20.6120  -46.6931 C.3       12 UNK        -0.1800 
     72 C          -4.4526  -23.1420  -46.6876 C.2       12 UNK         0.5000 
     73 O          -5.3810  -23.7718  -47.1944 O.2       12 UNK        -0.5000 
     74 N          -3.8038  -23.5304  -45.5804 N.am      13 UNK        -0.5000 
     75 CA         -4.0558  -24.7806  -44.8631 C.3       13 UNK         0.1400 
     76 CB         -3.3536  -24.7407  -43.4974 C.3       13 UNK        -0.1800 
     77 C          -3.6283  -26.0266  -45.6622 C.2       13 UNK         0.5000 
     78 O          -4.3512  -27.0239  -45.6558 O.2       13 UNK        -0.5000 
     79 N          -2.4750  -25.9481  -46.3423 N.am      14 UNK        -0.5000 
     80 CA         -1.9574  -26.9940  -47.2289 C.3       14 UNK         0.1400 
     81 CB         -0.4958  -26.6844  -47.5873 C.3       14 UNK        -0.1800 
     82 C          -2.8017  -27.1707  -48.5057 C.2       14 UNK         0.5000 
     83 O          -2.9286  -28.2942  -48.9946 O.2       14 UNK        -0.5000 
     84 N          -3.3738  -26.0633  -48.9978 N.am      15 UNK        -0.5000 
     85 CA         -4.2310  -25.9468  -50.1749 C.3       15 UNK         0.1400 
     86 CB         -5.5609  -26.7071  -49.9686 C.3       15 UNK        -0.1800 
     87 C          -3.4678  -26.3092  -51.4650 C.2       15 UNK         0.5000 
     88 O          -2.4196  -25.7125  -51.7203 O.2       15 UNK        -0.5000 
     89 N          -4.0070  -27.2395  -52.2680 N.am      16 UNK        -0.5000 
     90 CA         -3.4938  -27.6919  -53.5660 C.3       16 UNK         0.1400 
     91 CB         -2.1837  -28.4917  -53.3849 C.3       16 UNK        -0.1800 
     92 C          -3.3834  -26.5174  -54.5600 C.2       16 UNK         0.5000 
     93 O          -4.4125  -26.0184  -55.0155 O.2       16 UNK        -0.5000 
     94 N          -2.1572  -26.0593  -54.8426 N.am      17 UNK        -0.5000 
     95 CA         -1.8755  -24.8777  -55.6619 C.3       17 UNK         0.1400 
     96 CB         -0.3686  -24.8253  -55.9562 C.3       17 UNK        -0.1800 
     97 C          -2.3452  -23.5546  -55.0197 C.2       17 UNK         0.5000 
     98 O          -2.5846  -22.5873  -55.7429 O.2       17 UNK        -0.5000 
     99 N          -2.4809  -23.5376  -53.6869 N.am      18 UNK        -0.5000 
    100 CA        -2.9256  -22.3965  -52.8882 C.3       18 UNK         0.1400 
    101 CB        -1.8782  -22.1220  -51.7974 C.3       18 UNK        -0.1800 
    102 C         -4.3316  -22.6253  -52.2979 C.2       18 UNK         0.5000 
    103 O         -4.6821  -21.9965  -51.2986 O.2       18 UNK        -0.5000 
    104 N         -5.1395  -23.4939  -52.9291 N.am      19 UNK        -0.5000 
    105 CA        -6.5204  -23.8124  -52.5337 C.3       19 UNK         0.1400 
    106 CB        -7.0434  -24.9702  -53.3960 C.3       19 UNK        -0.1800 
    107 C         -7.4976  -22.6182  -52.5813 C.2       19 UNK         0.5000 
    108 O         -8.5529  -22.6745  -51.9500 O.2       19 UNK        -0.5000 
    109 N         -7.1143  -21.5463  -53.2886 N.am      20 UNK        -0.5000 
    110 CA        -7.7815  -20.2428  -53.2853 C.3       20 UNK         0.1400 
    111 CB        -7.2330  -19.4120  -54.4566 C.3       20 UNK        -0.1800 
    112 C         -7.6245  -19.4677  -51.9571 C.2       20 UNK         0.5000 
    113 O         -8.2795  -18.4380  -51.7882 O.2       20 UNK        -0.5000 
    114 N         -6.7468  -19.9433  -51.0566 N.am      21 UNK        -0.5000 
    115 CA        -6.4596  -19.4087  -49.7203 C.3       21 UNK         0.1400 
    116 CB        -7.6692  -19.6133  -48.7852 C.3       21 UNK        -0.1800 
    117 C         -5.9527  -17.9525  -49.7475 C.2       21 UNK         0.5000 
    118 O         -6.2842  -17.1609  -48.8637 O.2       21 UNK        -0.5000 
    119 N         -5.1786  -17.6329  -50.7928 N.am      22 UNK        -0.5000 
    120 CA        -4.6581  -16.2963  -51.1245 C.3       22 UNK         0.1400 
    121 C         -5.7454  -15.2694  -51.5733 C.2       22 UNK         0.5000 
    122 N         -6.9804  -15.6740  -51.8510 N.am      22 UNK        -0.7600 
    123 O         -5.4583  -14.0833  -51.7093 O.2       22 UNK        -0.5000 
    124 C124       -3.7050  -15.7138  -50.0422 C.3       23 UNK        -0.0398 
    125 S125       -2.3223  -16.8271  -49.6123 S.3       23 UNK        -0.2404 
    126 C126       -1.0425  -16.2455  -50.7657 C.3       23 UNK        -0.0205 
    127 H127        8.9253  -10.9187  -44.9957 H         1 UNK         0.0600 
    128 H128        8.7496  -10.7284  -46.7426 H         1 UNK         0.0600 
    129 H129        9.7251  -12.0493  -46.0932 H         1 UNK         0.0600 
    130 H130        6.7258  -11.4008  -47.4634 H         1 UNK         0.3000 
    131 H131        5.0202  -13.0748  -45.8885 H         1 UNK         0.0600 
    132 H132        6.3784  -14.8298  -47.0892 H         1 UNK         0.0800 
    133 H133        5.9538  -14.1265  -48.6184 H         1 UNK         0.0800 
    134 H134        4.6420  -15.6526  -49.9305 H         1 UNK         0.0800 
    135 H135        3.4801  -14.3677  -49.7053 H         1 UNK         0.0800 
    136 H136        1.1242  -14.8343  -49.9093 H         1 UNK         0.1150 
    137 H137       -0.1340  -18.8197  -50.8690 H         1 UNK         0.1150 
    138 H138        3.9100  -18.0775  -49.6461 H         1 UNK         0.1150 
    139 H139        1.6297  -20.5289  -51.2192 H         1 UNK         0.0800 
    140 H140        3.2840  -20.1783  -50.8068 H         1 UNK         0.0800 
    141 H141       -0.0965  -21.3474  -49.7561 H         1 UNK         0.0800 
    142 H142       -0.1004  -20.2006  -48.4445 H         1 UNK         0.0800 
    143 H143        0.3586  -23.2105  -48.0941 H         1 UNK         0.0600 
    144 H144        0.6201  -21.1427  -46.1846 H         1 UNK         0.3000 
    145 H145       -0.2989  -23.0728  -43.2793 H         1 UNK         0.0600 
    146 H146        1.9026  -22.1973  -42.5465 H         1 UNK         0.0600 
    147 H147        2.3599  -21.8797  -44.2173 H         1 UNK         0.0600 
    148 H148        2.0994  -23.5297  -43.6752 H         1 UNK         0.0600 
    149 H149        0.4482  -20.3389  -43.5475 H         1 UNK         0.3000 
    150 H150       -2.8604  -19.0581  -44.1383 H         1 UNK         0.0600 
    151 H151       -2.6784  -19.2718  -41.6841 H         1 UNK         0.0600 
    152 H152       -2.1620  -17.6672  -42.1842 H         1 UNK         0.0600 
    153 H153       -0.9663  -18.8823  -41.7375 H         1 UNK         0.0600 
    154 H154       -0.3675  -17.7167  -43.9454 H         1 UNK         0.3000 
    155 H155        0.6512  -18.1115  -47.3592 H         1 UNK         0.0600 
    156 H156        0.7444  -15.6942  -47.2452 H         1 UNK         0.0600 
    157 H157       -0.9483  -16.1592  -47.2265 H         1 UNK         0.0600 
    158 H158       -0.1751  -15.6499  -45.7405 H         1 UNK         0.0600 
    159 H159        1.8099  -16.8150  -45.0722 H         1 UNK         0.3000 
    160 H160        3.7423  -19.6255  -43.9662 H         1 UNK         0.0600 
    161 H161        5.5796  -18.0528  -44.2909 H         1 UNK         0.0600 
    162 H162        4.5554  -16.9450  -45.1978 H         1 UNK         0.0600 
    163 H163        4.9811  -18.5114  -45.8784 H         1 UNK         0.0600 
    164 H164        3.5074  -16.9203  -43.0369 H         1 UNK         0.3000 
    165 H165        0.7735  -17.4103  -40.8300 H         1 UNK         0.0600 
    166 H166        2.4016  -16.6546  -39.1227 H         1 UNK         0.0600 
    167 H167        2.6968  -18.3368  -39.5311 H         1 UNK         0.0600 
    168 H168        3.7511  -17.0839  -40.1748 H         1 UNK         0.0600 
    169 H169        2.5021  -15.1942  -41.2055 H         1 UNK         0.3000 
    170 H170        1.4879  -13.2783  -42.1380 H         1 UNK         0.0600 
    171 H171        2.4534  -14.4527  -44.8046 H         1 UNK         0.0600 
    172 H172        2.7358  -12.7923  -44.2759 H         1 UNK         0.0600 
    173 H173        3.4406  -14.1307  -43.3877 H         1 UNK         0.0600 
    174 H174        0.2618  -13.2018  -44.7559 H         1 UNK         0.3000 
    175 H175       -2.9930  -12.7589  -43.8675 H         1 UNK         0.0600 
    176 H176       -1.3694  -10.1650  -43.6986 H         1 UNK         0.0600 
    177 H177       -3.0703  -10.2836  -44.1504 H         1 UNK         0.0600 
    178 H178       -2.5616  -10.7149  -42.5271 H         1 UNK         0.0600 
    179 H179       -1.1412  -11.4594  -45.7833 H         1 UNK         0.3000 
    180 H180       -1.4401  -13.9539  -48.1851 H         1 UNK         0.0600 
    181 H181       -2.5071  -12.3571  -49.7305 H         1 UNK         0.0600 
    182 H182       -3.0036  -11.3285  -48.3857 H         1 UNK         0.0600 
    183 H183       -3.7006  -12.9312  -48.5780 H         1 UNK         0.0600 
    184 H184       -0.5035  -11.4026  -48.6765 H         1 UNK         0.3000 
    185 H185        1.9964  -11.4718  -48.9023 H         1 UNK         0.0600 
    186 H186        1.7191  -10.0975  -46.1490 H         1 UNK         0.0600 
    187 H187        2.6577   -9.4673  -47.5007 H         1 UNK         0.0600 
    188 H188        0.9112   -9.5808  -47.6255 H         1 UNK         0.0600 
    189 H189        2.8639  -12.8969  -46.6200 H         1 UNK         0.3000 
    190 H190       -2.1242  -20.8891  -46.8931 H         1 UNK         0.3000 
    191 H191       -4.2898  -21.8730  -48.4029 H         1 UNK         0.0600 
    192 H192       -4.2830  -20.5160  -45.6527 H         1 UNK         0.0600 
    193 H193       -5.6806  -20.6758  -46.7039 H         1 UNK         0.0600 
    194 H194       -4.3103  -19.6940  -47.2094 H         1 UNK         0.0600 
    195 H195       -3.0979  -22.9143  -45.1886 H         1 UNK         0.3000 
    196 H196       -5.1309  -24.8535  -44.6862 H         1 UNK         0.0600 
    197 H197       -3.7043  -23.9000  -42.8985 H         1 UNK         0.0600 
    198 H198       -2.2726  -24.6480  -43.6022 H         1 UNK         0.0600 
    199 H199       -3.5519  -25.6505  -42.9295 H         1 UNK         0.0600 
    200 H200       -1.9022  -25.1149  -46.2417 H         1 UNK         0.3000 
    201 H201       -1.9796  -27.9397  -46.6835 H         1 UNK         0.0600 
    202 H202        0.1263  -26.6303  -46.6937 H         1 UNK         0.0600 
    203 H203       -0.4039  -25.7357  -48.1168 H         1 UNK         0.0600 
    204 H204       -0.0778  -27.4608  -48.2292 H         1 UNK         0.0600 
    205 H205       -3.0933  -25.1773  -48.5865 H         1 UNK         0.3000 
    206 H206       -4.4707  -24.8862  -50.2544 H         1 UNK         0.0600 
    207 H207       -5.4139  -27.7839  -49.8809 H         1 UNK         0.0600 
    208 H208       -6.0587  -26.3694  -49.0592 H         1 UNK         0.0600 
    209 H209       -6.2530  -26.5316  -50.7922 H         1 UNK         0.0600 
    210 H210       -4.8765  -27.6629  -51.9770 H         1 UNK         0.3000 
    211 H211       -4.2402  -28.3722  -53.9787 H         1 UNK         0.0600 
    212 H212       -1.3922  -27.9012  -52.9228 H         1 UNK         0.0600 
    213 H213       -1.8113  -28.8571  -54.3428 H         1 UNK         0.0600 
    214 H214       -2.3493  -29.3639  -52.7523 H         1 UNK         0.0600 
    215 H215       -1.3657  -26.5032  -54.3996 H         1 UNK         0.3000 
    216 H216       -2.4062  -24.9885  -56.6098 H         1 UNK         0.0600 
    217 H217       -0.1235  -23.9727  -56.5910 H         1 UNK         0.0600 
    218 H218       -0.0366  -25.7230  -56.4780 H         1 UNK         0.0600 
    219 H219        0.2167  -24.7318  -55.0405 H         1 UNK         0.0600 
    220 H220       -2.2909  -24.3879  -53.1624 H         1 UNK         0.3000 
    221 H221       -2.9977  -21.5013  -53.5085 H         1 UNK         0.0600 
    222 H222       -1.7480  -22.9881  -51.1489 H         1 UNK         0.0600 
    223 H223       -0.9085  -21.8862  -52.2358 H         1 UNK         0.0600 
    224 H224       -2.1645  -21.2758  -51.1713 H         1 UNK         0.0600 
    225 H225       -4.7866  -23.9729  -53.7474 H         1 UNK         0.3000 
    226 H226       -6.4959  -24.1474  -51.4955 H         1 UNK         0.0600 
    227 H227       -6.4483  -25.8709  -53.2511 H         1 UNK         0.0600 
    228 H228       -8.0725  -25.2223  -53.1365 H         1 UNK         0.0600 
    229 H229       -7.0231  -24.7210  -54.4576 H         1 UNK         0.0600 
    230 H230       -6.2422  -21.6030  -53.7928 H         1 UNK         0.3000 
    231 H231       -8.8498  -20.4020  -53.4452 H         1 UNK         0.0600 
    232 H232       -7.7322  -18.4440  -54.5194 H         1 UNK         0.0600 
    233 H233       -7.3924  -19.9185  -55.4087 H         1 UNK         0.0600 
    234 H234       -6.1640  -19.2230  -54.3506 H         1 UNK         0.0600 
    235 H235       -6.2080  -20.7689  -51.3010 H         1 UNK         0.3000 
    236 H236       -5.6346  -20.0052  -49.3317 H         1 UNK         0.0600 
    237 H237       -8.5317  -19.0284  -49.1060 H         1 UNK         0.0600 
    238 H238       -7.9672  -20.6613  -48.7532 H         1 UNK         0.0600 
    239 H239       -7.4338  -19.3122  -47.7640 H         1 UNK         0.0600 
    240 H240       -4.9740  -18.3584  -51.4636 H         1 UNK         0.3000 
    241 H241       -4.0556  -16.4481  -52.0205 H         1 UNK         0.0600 
    242 H242       -7.6617  -14.9949  -52.1509 H         1 UNK         0.3800 
    243 H243       -7.2599  -16.6420  -51.7414 H         1 UNK         0.3800 
    244 H244       -4.2561  -15.4931  -49.1272 H         1 UNK         0.0800 
    245 H245       -3.2928  -14.7598  -50.3722 H         1 UNK         0.0800 
    246 H246       -1.3004  -16.5617  -51.7773 H         1 UNK         0.0800 
    247 H247       -1.0325  -15.1546  -50.7759 H         1 UNK         0.0800 
@<TRIPOS>BOND
     1    1    2 1    
     2    1  127 1    
     3    1  128 1    
     4    1  129 1    
     5    2    3 2    
     6    2    4 am   BACKBONE|DICT|INTERRES
     7    4    5 1    
     8    4  130 1    
     9    5    6 1    
    10    5   65 1    
    11    5  131 1    
    12    6    7 1    
    13    6  132 1    
    14    6  133 1    
    15    7    8 1    
    16    8    9 1    
    17    8  134 1    
    18    8  135 1    
    19    9   10 ar   
    20    9   14 ar   
    21   10   11 ar   
    22   10  136 1    
    23   11   12 ar   
    24   11  126 1    
    25   12   13 ar   
    26   12  137 1    
    27   13   14 ar   
    28   13   15 1    
    29   14  138 1    
    30   15   16 1    
    31   15  139 1    
    32   15  140 1    
    33   16   17 1    
    34   17   18 1    
    35   17  141 1    
    36   17  142 1    
    37   18   19 1    
    38   18   67 1    
    39   18  143 1    
    40   19   20 am   BACKBONE|DICT|INTERRES
    41   19  144 1    
    42   20   21 2    
    43   20   22 1    
    44   22   23 1    
    45   22   24 1    
    46   22  145 1    
    47   23  146 1    
    48   23  147 1    
    49   23  148 1    
    50   24   25 am   BACKBONE|DICT|INTERRES
    51   24  149 1    
    52   25   26 2    
    53   25   27 1    
    54   27   28 1    
    55   27   29 1    
    56   27  150 1    
    57   28  151 1    
    58   28  152 1    
    59   28  153 1    
    60   29   30 am   BACKBONE|DICT|INTERRES
    61   29  154 1    
    62   30   31 2    
    63   30   32 1    
    64   32   33 1    
    65   32   34 1    
    66   32  155 1    
    67   33  156 1    
    68   33  157 1    
    69   33  158 1    
    70   34   35 am   BACKBONE|DICT|INTERRES
    71   34  159 1    
    72   35   36 2    
    73   35   37 1    
    74   37   38 1    
    75   37   39 1    
    76   37  160 1    
    77   38  161 1    
    78   38  162 1    
    79   38  163 1    
    80   39   40 am   BACKBONE|DICT|INTERRES
    81   39  164 1    
    82   40   41 2    
    83   40   42 1    
    84   42   43 1    
    85   42   44 1    
    86   42  165 1    
    87   43  166 1    
    88   43  167 1    
    89   43  168 1    
    90   44   45 am   BACKBONE|DICT|INTERRES
    91   44  169 1    
    92   45   46 2    
    93   45   47 1    
    94   47   48 1    
    95   47   49 1    
    96   47  170 1    
    97   48  171 1    
    98   48  172 1    
    99   48  173 1    
   100   49   50 am   BACKBONE|DICT|INTERRES
   101   49  174 1    
   102   50   51 2    
   103   50   52 1    
   104   52   53 1    
   105   52   54 1    
   106   52  175 1    
   107   53  176 1    
   108   53  177 1    
   109   53  178 1    
   110   54   55 am   BACKBONE|DICT|INTERRES
   111   54  179 1    
   112   55   56 2    
   113   55   57 1    
   114   57   58 1    
   115   57   59 1    
   116   57  180 1    
   117   58  181 1    
   118   58  182 1    
   119   58  183 1    
   120   59   60 am   BACKBONE|DICT|INTERRES
   121   59  184 1    
   122   60   61 2    
   123   60   62 1    
   124   62   63 1    
   125   62   64 1    
   126   62  185 1    
   127   63  186 1    
   128   63  187 1    
   129   63  188 1    
   130   64   65 am   BACKBONE|DICT|INTERRES
   131   64  189 1    
   132   65   66 2    
   133   67   68 2    
   134   67   69 am   BACKBONE|DICT|INTERRES
   135   69   70 1    
   136   69  190 1    
   137   70   71 1    
   138   70   72 1    
   139   70  191 1    
   140   71  192 1    
   141   71  193 1    
   142   71  194 1    
   143   72   73 2    
   144   72   74 am   BACKBONE|DICT|INTERRES
   145   74   75 1    
   146   74  195 1    
   147   75   76 1    
   148   75   77 1    
   149   75  196 1    
   150   76  197 1    
   151   76  198 1    
   152   76  199 1    
   153   77   78 2    
   154   77   79 am   BACKBONE|DICT|INTERRES
   155   79   80 1    
   156   79  200 1    
   157   80   81 1    
   158   80   82 1    
   159   80  201 1    
   160   81  202 1    
   161   81  203 1    
   162   81  204 1    
   163   82   83 2    
   164   82   84 am   BACKBONE|DICT|INTERRES
   165   84   85 1    
   166   84  205 1    
   167   85   86 1    
   168   85   87 1    
   169   85  206 1    
   170   86  207 1    
   171   86  208 1    
   172   86  209 1    
   173   87   88 2    
   174   87   89 am   BACKBONE|DICT|INTERRES
   175   89   90 1    
   176   89  210 1    
   177   90   91 1    
   178   90   92 1    
   179   90  211 1    
   180   91  212 1    
   181   91  213 1    
   182   91  214 1    
   183   92   93 2    
   184   92   94 am   BACKBONE|DICT|INTERRES
   185   94   95 1    
   186   94  215 1    
   187   95   96 1    
   188   95   97 1    
   189   95  216 1    
   190   96  217 1    
   191   96  218 1    
   192   96  219 1    
   193   97   98 2    
   194   97   99 am   BACKBONE|DICT|INTERRES
   195   99  100 1    
   196   99  220 1    
   197  100  101 1    
   198  100  102 1    
   199  100  221 1    
   200  101  222 1    
   201  101  223 1    
   202  101  224 1    
   203  102  103 2    
   204  102  104 am   BACKBONE|DICT|INTERRES
   205  104  105 1    
   206  104  225 1    
   207  105  106 1    
   208  105  107 1    
   209  105  226 1    
   210  106  227 1    
   211  106  228 1    
   212  106  229 1    
   213  107  108 2    
   214  107  109 am   BACKBONE|DICT|INTERRES
   215  109  110 1    
   216  109  230 1    
   217  110  111 1    
   218  110  112 1    
   219  110  231 1    
   220  111  232 1    
   221  111  233 1    
   222  111  234 1    
   223  112  113 2    
   224  112  114 am   BACKBONE|DICT|INTERRES
   225  114  115 1    
   226  114  235 1    
   227  115  116 1    
   228  115  117 1    
   229  115  236 1    
   230  116  237 1    
   231  116  238 1    
   232  116  239 1    
   233  117  118 2    
   234  117  119 am   BACKBONE|DICT|INTERRES
   235  119  120 1    
   236  119  240 1    
   237  120  121 1    
   238  120  124 1    
   239  120  241 1    
   240  121  122 am   BACKBONE|DICT|INTERRES
   241  121  123 2    
   242  122  242 1    
   243  122  243 1    
   244  124  125 1    
   245  124  244 1    
   246  124  245 1    
   247  125  126 1    
   248  126  246 1    
   249  126  247 1    
@<TRIPOS>SUBSTRUCTURE
     1 UNK         1 GROUP             0       ****    0 ROOT    
