@<TRIPOS>MOLECULE
3R540
247   249    1
SMALL
USER_CHARGES


@<TRIPOS>ATOM
      1 CA          3.4296  -16.3108  -48.2097 C.3       0 UNK        -0.1800 
      2 C           2.7208  -15.0818  -47.6655 C.2       0 UNK         0.5000 
      3 O           3.3478  -14.2482  -47.0138 O.2       0 UNK        -0.5000 
      4 N           1.4218  -14.9455  -47.9616 N.am      1 UNK        -0.5000 
      5 CA          0.5495  -13.8511  -47.5036 C.3       1 UNK         0.1400 
      6 C6         -0.9485  -14.1981  -47.6737 C.3       23 UNK        -0.0398 
      7 S7         -1.4299  -15.6520  -46.6838 S.3       23 UNK        -0.2404 
      8 C8         -2.1960  -16.7172  -47.9457 C.3       23 UNK        -0.0205 
      9 C9         -1.1929  -17.3544  -48.8983 C.ar      23 UNK        -0.0193 
     10 C10        -1.3871  -17.2561  -50.2786 C.ar      23 UNK        -0.1150 
     11 C11        -0.5229  -17.9037  -51.1644 C.ar      23 UNK        -0.0193 
     12 C12         0.5498  -18.6421  -50.6585 C.ar      23 UNK        -0.1150 
     13 C13         0.7460  -18.7764  -49.2823 C.ar      23 UNK        -0.0193 
     14 C14        -0.1219  -18.1094  -48.4069 C.ar      23 UNK        -0.1150 
     15 C15         1.8930  -19.6643  -48.7952 C.3       23 UNK        -0.0205 
     16 S16         1.6499  -20.4159  -47.1519 S.3       23 UNK        -0.2404 
     17 C17         0.1147  -21.3684  -47.4049 C.3       23 UNK        -0.0398 
     18 CA          0.1626  -22.7494  -46.7191 C.3       11 UNK         0.1400 
     19 N           0.2518  -22.6259  -45.2607 N.am      11 UNK        -0.5000 
     20 C           0.4604  -23.6372  -44.4072 C.2       10 UNK         0.5000 
     21 O           0.5157  -24.8189  -44.7467 O.2       10 UNK        -0.5000 
     22 CA          0.6175  -23.2622  -42.9261 C.3       10 UNK         0.1400 
     23 CB          2.0045  -22.6555  -42.6607 C.3       10 UNK        -0.1800 
     24 N          -0.4143  -22.3095  -42.5250 N.am      10 UNK        -0.5000 
     25 C          -1.6067  -22.6558  -42.0229 C.2       9 UNK         0.5000 
     26 O          -1.9300  -23.8156  -41.7640 O.2       9 UNK        -0.5000 
     27 CA         -2.6195  -21.5204  -41.7734 C.3       9 UNK         0.1400 
     28 CB         -2.5128  -21.0122  -40.3276 C.3       9 UNK        -0.1800 
     29 N          -2.4756  -20.3846  -42.6850 N.am      9 UNK        -0.5000 
     30 C          -2.6543  -20.4363  -44.0122 C.2       8 UNK         0.5000 
     31 O          -2.9393  -21.4602  -44.6303 O.2       8 UNK        -0.5000 
     32 CA         -2.4297  -19.1268  -44.7874 C.3       8 UNK         0.1400 
     33 CB         -3.7047  -18.2702  -44.7328 C.3       8 UNK        -0.1800 
     34 N          -1.2946  -18.3262  -44.3217 N.am      8 UNK        -0.5000 
     35 C          -0.0477  -18.7563  -44.0742 C.2       7 UNK         0.5000 
     36 O           0.3039  -19.9334  -44.1582 O.2       7 UNK        -0.5000 
     37 CA          0.9750  -17.6962  -43.6250 C.3       7 UNK         0.1400 
     38 CB          1.8226  -17.2323  -44.8177 C.3       7 UNK        -0.1800 
     39 N           0.3754  -16.5221  -42.9852 N.am      7 UNK        -0.5000 
     40 C          -0.3036  -16.5263  -41.8307 C.2       6 UNK         0.5000 
     41 O          -0.5410  -17.5487  -41.1843 O.2       6 UNK        -0.5000 
     42 CA         -0.7650  -15.1479  -41.3141 C.3       6 UNK         0.1400 
     43 CB         -1.6074  -15.2472  -40.0294 C.3       6 UNK        -0.1800 
     44 N           0.3793  -14.2693  -41.0620 N.am      6 UNK        -0.5000 
     45 C           1.0372  -13.5689  -41.9932 C.2       5 UNK         0.5000 
     46 O           0.7380  -13.5733  -43.1903 O.2       5 UNK        -0.5000 
     47 CA          2.2549  -12.7709  -41.5110 C.3       5 UNK         0.1400 
     48 CB          3.5297  -13.6301  -41.5734 C.3       5 UNK        -0.1800 
     49 N           2.4178  -11.5918  -42.3525 N.am      5 UNK        -0.5000 
     50 C           2.9478  -10.4263  -41.9703 C.2       4 UNK         0.5000 
     51 O           3.4023  -10.2264  -40.8419 O.2       4 UNK        -0.5000 
     52 CA          2.9929   -9.3099  -43.0372 C.3       4 UNK         0.1400 
     53 CB          3.5065   -7.9711  -42.4761 C.3       4 UNK        -0.1800 
     54 N           3.8227   -9.6846  -44.1845 N.am      4 UNK        -0.5000 
     55 C           3.4470  -10.5061  -45.1711 C.2       3 UNK         0.5000 
     56 O           2.3377  -11.0438  -45.2190 O.2       3 UNK        -0.5000 
     57 CA          4.5010  -10.7990  -46.2537 C.3       3 UNK         0.1400 
     58 CB          5.5001  -11.8563  -45.7567 C.3       3 UNK        -0.1800 
     59 N           3.8562  -11.2913  -47.4685 N.am      3 UNK        -0.5000 
     60 C           3.3381  -10.5083  -48.4265 C.2       2 UNK         0.5000 
     61 O           3.4882   -9.2861  -48.4634 O.2       2 UNK        -0.5000 
     62 CA          2.4955  -11.1981  -49.5212 C.3       2 UNK         0.1400 
     63 CB          3.3631  -11.5248  -50.7461 C.3       2 UNK        -0.1800 
     64 N           1.8625  -12.4276  -49.0443 N.am      2 UNK        -0.5000 
     65 C           0.8760  -12.4765  -48.1374 C.2       1 UNK         0.5000 
     66 O           0.2424  -11.4813  -47.7830 O.2       1 UNK        -0.5000 
     67 C          -1.0114  -23.6336  -47.1875 C.2       11 UNK         0.5000 
     68 O          -0.8555  -24.3491  -48.1755 O.2       11 UNK        -0.5000 
     69 N          -2.1354  -23.6201  -46.4544 N.am      12 UNK        -0.5000 
     70 CA         -3.3277  -24.4322  -46.7242 C.3       12 UNK         0.1400 
     71 CB         -4.4682  -23.9751  -45.8018 C.3       12 UNK        -0.1800 
     72 C          -3.1198  -25.9584  -46.6150 C.2       12 UNK         0.5000 
     73 O          -3.9831  -26.7109  -47.0684 O.2       12 UNK        -0.5000 
     74 N          -1.9944  -26.4018  -46.0340 N.am      13 UNK        -0.5000 
     75 CA         -1.5716  -27.8047  -46.0311 C.3       13 UNK         0.1400 
     76 CB         -0.5115  -28.0090  -44.9383 C.3       13 UNK        -0.1800 
     77 C          -1.0323  -28.2710  -47.4013 C.2       13 UNK         0.5000 
     78 O          -0.9624  -29.4777  -47.6398 O.2       13 UNK        -0.5000 
     79 N          -0.6611  -27.3206  -48.2676 N.am      14 UNK        -0.5000 
     80 CA         -0.2160  -27.5320  -49.6411 C.3       14 UNK         0.1400 
     81 CB          1.1376  -26.8189  -49.8167 C.3       14 UNK        -0.1800 
     82 C          -1.2706  -26.9771  -50.6176 C.2       14 UNK         0.5000 
     83 O          -2.3305  -26.5059  -50.1971 O.2       14 UNK        -0.5000 
     84 N          -0.9595  -27.0178  -51.9192 N.am      15 UNK        -0.5000 
     85 CA         -1.7567  -26.4208  -52.9941 C.3       15 UNK         0.1400 
     86 CB         -1.4325  -27.1458  -54.3128 C.3       15 UNK        -0.1800 
     87 C          -1.5269  -24.8952  -53.0776 C.2       15 UNK         0.5000 
     88 O          -1.0580  -24.3884  -54.0982 O.2       15 UNK        -0.5000 
     89 N          -1.8374  -24.1959  -51.9837 N.am      16 UNK        -0.5000 
     90 CA         -1.6813  -22.7597  -51.7987 C.3       16 UNK         0.1400 
     91 CB         -0.2506  -22.4630  -51.3151 C.3       16 UNK        -0.1800 
     92 C          -2.7286  -22.2730  -50.7872 C.2       16 UNK         0.5000 
     93 O          -3.3399  -23.0978  -50.1049 O.2       16 UNK        -0.5000 
     94 N          -2.9199  -20.9477  -50.7119 N.am      17 UNK        -0.5000 
     95 CA         -3.8236  -20.2152  -49.8125 C.3       17 UNK         0.1400 
     96 CB         -3.3510  -20.3240  -48.3503 C.3       17 UNK        -0.1800 
     97 C          -5.3051  -20.6079  -49.9694 C.2       17 UNK         0.5000 
     98 O          -6.0557  -19.9012  -50.6418 O.2       17 UNK        -0.5000 
     99 N          -5.6882  -21.7481  -49.3805 N.am      18 UNK        -0.5000 
    100 CA        -7.0064  -22.3743  -49.4956 C.3       18 UNK         0.1400 
    101 CB        -7.0685  -23.5807  -48.5473 C.3       18 UNK        -0.1800 
    102 C         -7.3508  -22.7967  -50.9374 C.2       18 UNK         0.5000 
    103 O         -8.5299  -22.8553  -51.2886 O.2       18 UNK        -0.5000 
    104 N         -6.3203  -23.0250  -51.7642 N.am      19 UNK        -0.5000 
    105 CA        -6.3983  -23.2552  -53.2078 C.3       19 UNK         0.1400 
    106 CB        -5.0810  -23.9053  -53.6682 C.3       19 UNK        -0.1800 
    107 C         -6.7230  -21.9611  -53.9919 C.2       19 UNK         0.5000 
    108 O         -5.9662  -21.5705  -54.8831 O.2       19 UNK        -0.5000 
    109 N         -7.8338  -21.3059  -53.6261 N.am      20 UNK        -0.5000 
    110 CA        -8.4149  -20.1022  -54.2329 C.3       20 UNK         0.1400 
    111 CB        -9.0256  -20.4526  -55.6059 C.3       20 UNK        -0.1800 
    112 C         -7.4444  -18.9017  -54.3004 C.2       20 UNK         0.5000 
    113 O         -7.4048  -18.2030  -55.3145 O.2       20 UNK        -0.5000 
    114 N         -6.6680  -18.6974  -53.2239 N.am      21 UNK        -0.5000 
    115 CA        -5.6018  -17.6967  -53.0872 C.3       21 UNK         0.1400 
    116 CB        -6.1722  -16.2628  -53.1072 C.3       21 UNK        -0.1800 
    117 C         -4.4544  -17.9168  -54.0956 C.2       21 UNK         0.5000 
    118 O         -3.9233  -16.9538  -54.6513 O.2       21 UNK        -0.5000 
    119 N         -4.0991  -19.1927  -54.2974 N.am      22 UNK        -0.5000 
    120 CA        -3.0987  -19.6830  -55.2597 C.3       22 UNK         0.1400 
    121 C         -3.5861  -19.5552  -56.7306 C.2       22 UNK         0.5000 
    122 N         -4.7866  -20.0335  -57.0301 N.am      22 UNK        -0.7600 
    123 O         -2.8901  -19.0378  -57.6010 O.2       22 UNK        -0.5000 
    124 C124       -1.6651  -19.1288  -55.0234 C.3       23 UNK        -0.0398 
    125 S125       -1.0679  -19.5012  -53.3425 S.3       23 UNK        -0.2404 
    126 C126       -0.7656  -17.8396  -52.6649 C.3       23 UNK        -0.0205 
    127 H127        4.4472  -16.0605  -48.5096 H         1 UNK         0.0600 
    128 H128        2.9118  -16.7105  -49.0813 H         1 UNK         0.0600 
    129 H129        3.4781  -17.0852  -47.4445 H         1 UNK         0.0600 
    130 H130        0.9597  -15.6678  -48.4967 H         1 UNK         0.3000 
    131 H131        0.7342  -13.7248  -46.4339 H         1 UNK         0.0600 
    132 H132       -1.5793  -13.3699  -47.3459 H         1 UNK         0.0800 
    133 H133       -1.1841  -14.3621  -48.7265 H         1 UNK         0.0800 
    134 H134       -2.7406  -17.5165  -47.4466 H         1 UNK         0.0800 
    135 H135       -2.9442  -16.1390  -48.4901 H         1 UNK         0.0800 
    136 H136       -2.2267  -16.6951  -50.6644 H         1 UNK         0.1150 
    137 H137        1.2130  -19.1487  -51.3460 H         1 UNK         0.1150 
    138 H138        0.0108  -18.1964  -47.3383 H         1 UNK         0.1150 
    139 H139        2.0614  -20.4724  -49.5090 H         1 UNK         0.0800 
    140 H140        2.8123  -19.0807  -48.7771 H         1 UNK         0.0800 
    141 H141       -0.0652  -21.4723  -48.4760 H         1 UNK         0.0800 
    142 H142       -0.7121  -20.7837  -47.0052 H         1 UNK         0.0800 
    143 H143        1.0736  -23.2534  -47.0495 H         1 UNK         0.0600 
    144 H144        0.2467  -21.6768  -44.8958 H         1 UNK         0.3000 
    145 H145        0.5334  -24.1760  -42.3338 H         1 UNK         0.0600 
    146 H146        2.1361  -22.4248  -41.6035 H         1 UNK         0.0600 
    147 H147        2.7944  -23.3529  -42.9424 H         1 UNK         0.0600 
    148 H148        2.1625  -21.7358  -43.2252 H         1 UNK         0.0600 
    149 H149       -0.2518  -21.3398  -42.7719 H         1 UNK         0.3000 
    150 H150       -3.6185  -21.9371  -41.9179 H         1 UNK         0.0600 
    151 H151       -3.2873  -20.2766  -40.1096 H         1 UNK         0.0600 
    152 H152       -1.5448  -20.5469  -40.1364 H         1 UNK         0.0600 
    153 H153       -2.6321  -21.8295  -39.6151 H         1 UNK         0.0600 
    154 H154       -2.1979  -19.5047  -42.2726 H         1 UNK         0.3000 
    155 H155       -2.2295  -19.3861  -45.8266 H         1 UNK         0.0600 
    156 H156       -3.5960  -17.3431  -45.2934 H         1 UNK         0.0600 
    157 H157       -3.9646  -18.0035  -43.7076 H         1 UNK         0.0600 
    158 H158       -4.5537  -18.8081  -45.1569 H         1 UNK         0.0600 
    159 H159       -1.4631  -17.3358  -44.2253 H         1 UNK         0.3000 
    160 H160        1.6367  -18.1703  -42.8975 H         1 UNK         0.0600 
    161 H161        1.2090  -16.7549  -45.5815 H         1 UNK         0.0600 
    162 H162        2.3333  -18.0745  -45.2856 H         1 UNK         0.0600 
    163 H163        2.5878  -16.5196  -44.5092 H         1 UNK         0.0600 
    164 H164        0.5385  -15.6246  -43.4294 H         1 UNK         0.3000 
    165 H165       -1.3947  -14.7043  -42.0885 H         1 UNK         0.0600 
    166 H166       -1.9628  -14.2657  -39.7149 H         1 UNK         0.0600 
    167 H167       -2.4864  -15.8740  -40.1855 H         1 UNK         0.0600 
    168 H168       -1.0382  -15.6778  -39.2046 H         1 UNK         0.0600 
    169 H169        0.7146  -14.2458  -40.1095 H         1 UNK         0.3000 
    170 H170        2.0754  -12.4603  -40.4794 H         1 UNK         0.0600 
    171 H171        3.4286  -14.5282  -40.9628 H         1 UNK         0.0600 
    172 H172        3.7478  -13.9482  -42.5940 H         1 UNK         0.0600 
    173 H173        4.3951  -13.0809  -41.2023 H         1 UNK         0.0600 
    174 H174        2.0657  -11.6851  -43.3026 H         1 UNK         0.3000 
    175 H175        1.9681   -9.1501  -43.3794 H         1 UNK         0.0600 
    176 H176        4.5363   -8.0482  -42.1250 H         1 UNK         0.0600 
    177 H177        3.4680   -7.1866  -43.2321 H         1 UNK         0.0600 
    178 H178        2.8957   -7.6390  -41.6357 H         1 UNK         0.0600 
    179 H179        4.7623   -9.3145  -44.1899 H         1 UNK         0.3000 
    180 H180        5.0467   -9.8795  -46.4754 H         1 UNK         0.0600 
    181 H181        6.2281  -12.1058  -46.5289 H         1 UNK         0.0600 
    182 H182        4.9979  -12.7777  -45.4593 H         1 UNK         0.0600 
    183 H183        6.0560  -11.4946  -44.8910 H         1 UNK         0.0600 
    184 H184        3.6290  -12.2805  -47.4681 H         1 UNK         0.3000 
    185 H185        1.7123  -10.5023  -49.8293 H         1 UNK         0.0600 
    186 H186        2.7663  -11.9598  -51.5480 H         1 UNK         0.0600 
    187 H187        3.8321  -10.6235  -51.1431 H         1 UNK         0.0600 
    188 H188        4.1596  -12.2280  -50.4995 H         1 UNK         0.0600 
    189 H189        2.3176  -13.2949  -49.2873 H         1 UNK         0.3000 
    190 H190       -2.2037  -22.9788  -45.6692 H         1 UNK         0.3000 
    191 H191       -3.6315  -24.2374  -47.7537 H         1 UNK         0.0600 
    192 H192       -5.3661  -24.5753  -45.9535 H         1 UNK         0.0600 
    193 H193       -4.7393  -22.9376  -45.9979 H         1 UNK         0.0600 
    194 H194       -4.1902  -24.0584  -44.7504 H         1 UNK         0.0600 
    195 H195       -1.3279  -25.7284  -45.6757 H         1 UNK         0.3000 
    196 H196       -2.4344  -28.4272  -45.7854 H         1 UNK         0.0600 
    197 H197        0.4057  -27.4632  -45.1613 H         1 UNK         0.0600 
    198 H198       -0.8739  -27.6755  -43.9657 H         1 UNK         0.0600 
    199 H199       -0.2483  -29.0632  -44.8439 H         1 UNK         0.0600 
    200 H200       -0.8318  -26.3484  -48.0281 H         1 UNK         0.3000 
    201 H201       -0.0886  -28.5959  -49.8497 H         1 UNK         0.0600 
    202 H202        1.0381  -25.7372  -49.7150 H         1 UNK         0.0600 
    203 H203        1.5724  -27.0193  -50.7962 H         1 UNK         0.0600 
    204 H204        1.8588  -27.1575  -49.0726 H         1 UNK         0.0600 
    205 H205       -0.0653  -27.3986  -52.1928 H         1 UNK         0.3000 
    206 H206       -2.8169  -26.5782  -52.7840 H         1 UNK         0.0600 
    207 H207       -1.6516  -28.2112  -54.2405 H         1 UNK         0.0600 
    208 H208       -2.0300  -26.7482  -55.1342 H         1 UNK         0.0600 
    209 H209       -0.3822  -27.0370  -54.5863 H         1 UNK         0.0600 
    210 H210       -2.2369  -24.6812  -51.1833 H         1 UNK         0.3000 
    211 H211       -1.8683  -22.2528  -52.7467 H         1 UNK         0.0600 
    212 H212       -0.1177  -21.4061  -51.0868 H         1 UNK         0.0600 
    213 H213        0.4829  -22.7225  -52.0784 H         1 UNK         0.0600 
    214 H214       -0.0075  -23.0278  -50.4149 H         1 UNK         0.0600 
    215 H215       -2.3751  -20.3619  -51.3320 H         1 UNK         0.3000 
    216 H216       -3.7516  -19.1646  -50.0983 H         1 UNK         0.0600 
    217 H217       -4.0243  -19.7904  -47.6785 H         1 UNK         0.0600 
    218 H218       -3.2887  -21.3549  -48.0017 H         1 UNK         0.0600 
    219 H219       -2.3656  -19.8789  -48.2428 H         1 UNK         0.0600 
    220 H220       -4.9595  -22.3098  -48.9581 H         1 UNK         0.3000 
    221 H221       -7.7547  -21.6449  -49.1794 H         1 UNK         0.0600 
    222 H222       -6.9341  -23.2712  -47.5109 H         1 UNK         0.0600 
    223 H223       -6.2989  -24.3177  -48.7816 H         1 UNK         0.0600 
    224 H224       -8.0354  -24.0814  -48.6119 H         1 UNK         0.0600 
    225 H225       -5.3921  -22.9596  -51.3699 H         1 UNK         0.3000 
    226 H226       -7.2068  -23.9625  -53.4029 H         1 UNK         0.0600 
    227 H227       -4.2329  -23.2341  -53.5305 H         1 UNK         0.0600 
    228 H228       -4.8778  -24.8224  -53.1150 H         1 UNK         0.0600 
    229 H229       -5.1224  -24.1674  -54.7261 H         1 UNK         0.0600 
    230 H230       -8.3559  -21.7033  -52.8503 H         1 UNK         0.3000 
    231 H231       -9.2310  -19.7929  -53.5785 H         1 UNK         0.0600 
    232 H232       -8.2587  -20.7368  -56.3274 H         1 UNK         0.0600 
    233 H233       -9.5704  -19.6045  -56.0224 H         1 UNK         0.0600 
    234 H234       -9.7312  -21.2794  -55.5241 H         1 UNK         0.0600 
    235 H235       -6.7618  -19.3214  -52.4279 H         1 UNK         0.3000 
    236 H236       -5.1612  -17.8507  -52.1017 H         1 UNK         0.0600 
    237 H237       -5.3997  -15.5336  -52.8602 H         1 UNK         0.0600 
    238 H238       -6.5705  -15.9949  -54.0860 H         1 UNK         0.0600 
    239 H239       -6.9717  -16.1470  -52.3755 H         1 UNK         0.0600 
    240 H240       -4.6588  -19.9106  -53.8606 H         1 UNK         0.3000 
    241 H241       -3.0397  -20.7590  -55.0886 H         1 UNK         0.0600 
    242 H242       -5.3391  -20.5027  -56.3164 H         1 UNK         0.3800 
    243 H243       -5.1350  -19.9630  -57.9724 H         1 UNK         0.3800 
    244 H244       -1.6207  -18.0561  -55.2139 H         1 UNK         0.0800 
    245 H245       -0.9660  -19.5860  -55.7253 H         1 UNK         0.0800 
    246 H246        0.1020  -17.3975  -53.1564 H         1 UNK         0.0800 
    247 H247       -1.6175  -17.1960  -52.8893 H         1 UNK         0.0800 
@<TRIPOS>BOND
     1    1    2 1    
     2    1  127 1    
     3    1  128 1    
     4    1  129 1    
     5    2    3 2    
     6    2    4 am   BACKBONE|DICT|INTERRES
     7    4    5 1    
     8    4  130 1    
     9    5    6 1    
    10    5   65 1    
    11    5  131 1    
    12    6    7 1    
    13    6  132 1    
    14    6  133 1    
    15    7    8 1    
    16    8    9 1    
    17    8  134 1    
    18    8  135 1    
    19    9   10 ar   
    20    9   14 ar   
    21   10   11 ar   
    22   10  136 1    
    23   11   12 ar   
    24   11  126 1    
    25   12   13 ar   
    26   12  137 1    
    27   13   14 ar   
    28   13   15 1    
    29   14  138 1    
    30   15   16 1    
    31   15  139 1    
    32   15  140 1    
    33   16   17 1    
    34   17   18 1    
    35   17  141 1    
    36   17  142 1    
    37   18   19 1    
    38   18   67 1    
    39   18  143 1    
    40   19   20 am   BACKBONE|DICT|INTERRES
    41   19  144 1    
    42   20   21 2    
    43   20   22 1    
    44   22   23 1    
    45   22   24 1    
    46   22  145 1    
    47   23  146 1    
    48   23  147 1    
    49   23  148 1    
    50   24   25 am   BACKBONE|DICT|INTERRES
    51   24  149 1    
    52   25   26 2    
    53   25   27 1    
    54   27   28 1    
    55   27   29 1    
    56   27  150 1    
    57   28  151 1    
    58   28  152 1    
    59   28  153 1    
    60   29   30 am   BACKBONE|DICT|INTERRES
    61   29  154 1    
    62   30   31 2    
    63   30   32 1    
    64   32   33 1    
    65   32   34 1    
    66   32  155 1    
    67   33  156 1    
    68   33  157 1    
    69   33  158 1    
    70   34   35 am   BACKBONE|DICT|INTERRES
    71   34  159 1    
    72   35   36 2    
    73   35   37 1    
    74   37   38 1    
    75   37   39 1    
    76   37  160 1    
    77   38  161 1    
    78   38  162 1    
    79   38  163 1    
    80   39   40 am   BACKBONE|DICT|INTERRES
    81   39  164 1    
    82   40   41 2    
    83   40   42 1    
    84   42   43 1    
    85   42   44 1    
    86   42  165 1    
    87   43  166 1    
    88   43  167 1    
    89   43  168 1    
    90   44   45 am   BACKBONE|DICT|INTERRES
    91   44  169 1    
    92   45   46 2    
    93   45   47 1    
    94   47   48 1    
    95   47   49 1    
    96   47  170 1    
    97   48  171 1    
    98   48  172 1    
    99   48  173 1    
   100   49   50 am   BACKBONE|DICT|INTERRES
   101   49  174 1    
   102   50   51 2    
   103   50   52 1    
   104   52   53 1    
   105   52   54 1    
   106   52  175 1    
   107   53  176 1    
   108   53  177 1    
   109   53  178 1    
   110   54   55 am   BACKBONE|DICT|INTERRES
   111   54  179 1    
   112   55   56 2    
   113   55   57 1    
   114   57   58 1    
   115   57   59 1    
   116   57  180 1    
   117   58  181 1    
   118   58  182 1    
   119   58  183 1    
   120   59   60 am   BACKBONE|DICT|INTERRES
   121   59  184 1    
   122   60   61 2    
   123   60   62 1    
   124   62   63 1    
   125   62   64 1    
   126   62  185 1    
   127   63  186 1    
   128   63  187 1    
   129   63  188 1    
   130   64   65 am   BACKBONE|DICT|INTERRES
   131   64  189 1    
   132   65   66 2    
   133   67   68 2    
   134   67   69 am   BACKBONE|DICT|INTERRES
   135   69   70 1    
   136   69  190 1    
   137   70   71 1    
   138   70   72 1    
   139   70  191 1    
   140   71  192 1    
   141   71  193 1    
   142   71  194 1    
   143   72   73 2    
   144   72   74 am   BACKBONE|DICT|INTERRES
   145   74   75 1    
   146   74  195 1    
   147   75   76 1    
   148   75   77 1    
   149   75  196 1    
   150   76  197 1    
   151   76  198 1    
   152   76  199 1    
   153   77   78 2    
   154   77   79 am   BACKBONE|DICT|INTERRES
   155   79   80 1    
   156   79  200 1    
   157   80   81 1    
   158   80   82 1    
   159   80  201 1    
   160   81  202 1    
   161   81  203 1    
   162   81  204 1    
   163   82   83 2    
   164   82   84 am   BACKBONE|DICT|INTERRES
   165   84   85 1    
   166   84  205 1    
   167   85   86 1    
   168   85   87 1    
   169   85  206 1    
   170   86  207 1    
   171   86  208 1    
   172   86  209 1    
   173   87   88 2    
   174   87   89 am   BACKBONE|DICT|INTERRES
   175   89   90 1    
   176   89  210 1    
   177   90   91 1    
   178   90   92 1    
   179   90  211 1    
   180   91  212 1    
   181   91  213 1    
   182   91  214 1    
   183   92   93 2    
   184   92   94 am   BACKBONE|DICT|INTERRES
   185   94   95 1    
   186   94  215 1    
   187   95   96 1    
   188   95   97 1    
   189   95  216 1    
   190   96  217 1    
   191   96  218 1    
   192   96  219 1    
   193   97   98 2    
   194   97   99 am   BACKBONE|DICT|INTERRES
   195   99  100 1    
   196   99  220 1    
   197  100  101 1    
   198  100  102 1    
   199  100  221 1    
   200  101  222 1    
   201  101  223 1    
   202  101  224 1    
   203  102  103 2    
   204  102  104 am   BACKBONE|DICT|INTERRES
   205  104  105 1    
   206  104  225 1    
   207  105  106 1    
   208  105  107 1    
   209  105  226 1    
   210  106  227 1    
   211  106  228 1    
   212  106  229 1    
   213  107  108 2    
   214  107  109 am   BACKBONE|DICT|INTERRES
   215  109  110 1    
   216  109  230 1    
   217  110  111 1    
   218  110  112 1    
   219  110  231 1    
   220  111  232 1    
   221  111  233 1    
   222  111  234 1    
   223  112  113 2    
   224  112  114 am   BACKBONE|DICT|INTERRES
   225  114  115 1    
   226  114  235 1    
   227  115  116 1    
   228  115  117 1    
   229  115  236 1    
   230  116  237 1    
   231  116  238 1    
   232  116  239 1    
   233  117  118 2    
   234  117  119 am   BACKBONE|DICT|INTERRES
   235  119  120 1    
   236  119  240 1    
   237  120  121 1    
   238  120  124 1    
   239  120  241 1    
   240  121  122 am   BACKBONE|DICT|INTERRES
   241  121  123 2    
   242  122  242 1    
   243  122  243 1    
   244  124  125 1    
   245  124  244 1    
   246  124  245 1    
   247  125  126 1    
   248  126  246 1    
   249  126  247 1    
@<TRIPOS>SUBSTRUCTURE
     1 UNK         1 GROUP             0       ****    0 ROOT    
