@<TRIPOS>MOLECULE
3R540
247   249    1
SMALL
USER_CHARGES


@<TRIPOS>ATOM
      1 CA         -3.4647   -7.0260  -48.1810 C.3       0 UNK        -0.1800 
      2 C          -2.8085   -8.3039  -47.6785 C.2       0 UNK         0.5000 
      3 O          -2.1479   -8.2883  -46.6389 O.2       0 UNK        -0.5000 
      4 N          -2.9973   -9.4167  -48.3990 N.am      1 UNK        -0.5000 
      5 CA         -2.4522  -10.7463  -48.0933 C.3       1 UNK         0.1400 
      6 C6         -2.2921  -11.5866  -49.3883 C.3       23 UNK        -0.0398 
      7 S7         -0.9848  -12.8553  -49.2651 S.3       23 UNK        -0.2404 
      8 C8         -1.9522  -14.3740  -49.5187 C.3       23 UNK        -0.0205 
      9 C9         -1.0521  -15.5909  -49.6588 C.ar      23 UNK        -0.0193 
     10 C10        -0.4315  -15.8620  -50.8820 C.ar      23 UNK        -0.1150 
     11 C11         0.3845  -16.9866  -51.0302 C.ar      23 UNK        -0.0193 
     12 C12         0.5811  -17.8341  -49.9389 C.ar      23 UNK        -0.1150 
     13 C13        -0.0828  -17.6146  -48.7297 C.ar      23 UNK        -0.0193 
     14 C14        -0.8762  -16.4711  -48.5863 C.ar      23 UNK        -0.1150 
     15 C15         0.0357  -18.6237  -47.5937 C.3       23 UNK        -0.0205 
     16 S16        -0.1201  -20.3500  -48.1666 S.3       23 UNK        -0.2404 
     17 C17         0.2549  -21.2511  -46.6276 C.3       23 UNK        -0.0398 
     18 CA         -0.6744  -22.4538  -46.3417 C.3       11 UNK         0.1400 
     19 N          -0.2015  -23.1869  -45.1657 N.am      11 UNK        -0.5000 
     20 C          -0.7002  -24.3461  -44.7123 C.2       10 UNK         0.5000 
     21 O          -1.6055  -24.9664  -45.2659 O.2       10 UNK        -0.5000 
     22 CA         -0.1251  -24.8751  -43.3844 C.3       10 UNK         0.1400 
     23 CB          1.0745  -25.7960  -43.6507 C.3       10 UNK        -0.1800 
     24 N           0.2827  -23.8119  -42.4643 N.am      10 UNK        -0.5000 
     25 C          -0.5105  -22.8393  -41.9903 C.2       9 UNK         0.5000 
     26 O          -1.7145  -22.7595  -42.2367 O.2       9 UNK        -0.5000 
     27 CA          0.1663  -21.7455  -41.1417 C.3       9 UNK         0.1400 
     28 CB         -0.0700  -22.0053  -39.6468 C.3       9 UNK        -0.1800 
     29 N           1.6084  -21.6220  -41.3883 N.am      9 UNK        -0.5000 
     30 C           2.1539  -21.1948  -42.5349 C.2       8 UNK         0.5000 
     31 O           1.5001  -20.8609  -43.5259 O.2       8 UNK        -0.5000 
     32 CA          3.6839  -21.1892  -42.6069 C.3       8 UNK         0.1400 
     33 CB          4.1966  -22.4169  -43.3791 C.3       8 UNK        -0.1800 
     34 N           4.1156  -19.9673  -43.2745 N.am      8 UNK        -0.5000 
     35 C           5.2712  -19.3327  -43.0440 C.2       7 UNK         0.5000 
     36 O           6.1272  -19.7463  -42.2591 O.2       7 UNK        -0.5000 
     37 CA          5.4931  -18.0073  -43.8028 C.3       7 UNK         0.1400 
     38 CB          6.9662  -17.5465  -43.8104 C.3       7 UNK        -0.1800 
     39 N           4.9361  -18.0126  -45.1595 N.am      7 UNK        -0.5000 
     40 C           5.3145  -18.7754  -46.1988 C.2       6 UNK         0.5000 
     41 O           6.2127  -19.6156  -46.1391 O.2       6 UNK        -0.5000 
     42 CA          4.5601  -18.5869  -47.5347 C.3       6 UNK         0.1400 
     43 CB          3.6972  -19.8220  -47.8348 C.3       6 UNK        -0.1800 
     44 N           3.6999  -17.4020  -47.5634 N.am      6 UNK        -0.5000 
     45 C           4.1250  -16.1338  -47.6421 C.2       5 UNK         0.5000 
     46 O           5.3036  -15.8167  -47.8037 O.2       5 UNK        -0.5000 
     47 CA          3.0561  -15.0341  -47.4707 C.3       5 UNK         0.1400 
     48 CB          2.6147  -14.4975  -48.8397 C.3       5 UNK        -0.1800 
     49 N           1.8686  -15.4553  -46.7148 N.am      5 UNK        -0.5000 
     50 C           1.8703  -15.8651  -45.4388 C.2       4 UNK         0.5000 
     51 O           2.8903  -15.9644  -44.7558 O.2       4 UNK        -0.5000 
     52 CA          0.5094  -16.2327  -44.8215 C.3       4 UNK         0.1400 
     53 CB          0.5942  -17.5265  -43.9923 C.3       4 UNK        -0.1800 
     54 N           0.0247  -15.1462  -43.9764 N.am      4 UNK        -0.5000 
     55 C          -0.4763  -13.9983  -44.4461 C.2       3 UNK         0.5000 
     56 O          -0.6355  -13.7631  -45.6465 O.2       3 UNK        -0.5000 
     57 CA         -0.8200  -12.9254  -43.3993 C.3       3 UNK         0.1400 
     58 CB          0.4260  -12.0928  -43.0591 C.3       3 UNK        -0.1800 
     59 N          -1.8548  -12.0317  -43.9102 N.am      3 UNK        -0.5000 
     60 C          -3.1703  -12.2776  -43.8666 C.2       2 UNK         0.5000 
     61 O          -3.6725  -13.2295  -43.2676 O.2       2 UNK        -0.5000 
     62 CA         -4.0735  -11.2968  -44.6365 C.3       2 UNK         0.1400 
     63 CB         -4.4856  -10.1190  -43.7402 C.3       2 UNK        -0.1800 
     64 N          -3.4137  -10.7785  -45.8355 N.am      2 UNK        -0.5000 
     65 C          -3.2753  -11.4504  -46.9859 C.2       1 UNK         0.5000 
     66 O          -3.7938  -12.5494  -47.1887 O.2       1 UNK        -0.5000 
     67 C          -2.1487  -22.0257  -46.1862 C.2       11 UNK         0.5000 
     68 O          -2.9519  -22.2484  -47.0943 O.2       11 UNK        -0.5000 
     69 N          -2.4773  -21.4553  -45.0192 N.am      12 UNK        -0.5000 
     70 CA         -3.8281  -21.0303  -44.6627 C.3       12 UNK         0.1400 
     71 CB         -3.7642  -20.0927  -43.4474 C.3       12 UNK        -0.1800 
     72 C          -4.7571  -22.2259  -44.3924 C.2       12 UNK         0.5000 
     73 O          -5.9109  -22.1992  -44.8196 O.2       12 UNK        -0.5000 
     74 N          -4.2320  -23.2604  -43.7192 N.am      13 UNK        -0.5000 
     75 CA         -4.9531  -24.4918  -43.3887 C.3       13 UNK         0.1400 
     76 CB         -4.1074  -25.3405  -42.4282 C.3       13 UNK        -0.1800 
     77 C          -5.3543  -25.3105  -44.6306 C.2       13 UNK         0.5000 
     78 O          -6.4846  -25.7949  -44.6981 O.2       13 UNK        -0.5000 
     79 N          -4.4356  -25.4294  -45.5994 N.am      14 UNK        -0.5000 
     80 CA         -4.6678  -26.0951  -46.8840 C.3       14 UNK         0.1400 
     81 CB         -3.3125  -26.4862  -47.4946 C.3       14 UNK        -0.1800 
     82 C          -5.4611  -25.2294  -47.8820 C.2       14 UNK         0.5000 
     83 O          -5.9485  -25.7627  -48.8792 O.2       14 UNK        -0.5000 
     84 N          -5.5468  -23.9176  -47.6127 N.am      15 UNK        -0.5000 
     85 CA         -6.1087  -22.8641  -48.4635 C.3       15 UNK         0.1400 
     86 CB         -7.6271  -23.0515  -48.6580 C.3       15 UNK        -0.1800 
     87 C          -5.3384  -22.7146  -49.7923 C.2       15 UNK         0.5000 
     88 O          -5.9351  -22.4296  -50.8328 O.2       15 UNK        -0.5000 
     89 N          -4.0097  -22.8870  -49.7267 N.am      16 UNK        -0.5000 
     90 CA         -3.0907  -22.8135  -50.8648 C.3       16 UNK         0.1400 
     91 CB         -1.6935  -23.2730  -50.4247 C.3       16 UNK        -0.1800 
     92 C          -3.0293  -21.4129  -51.4971 C.2       16 UNK         0.5000 
     93 O          -2.8088  -21.3014  -52.7029 O.2       16 UNK        -0.5000 
     94 N          -3.2723  -20.3849  -50.6744 N.am      17 UNK        -0.5000 
     95 CA         -3.4171  -18.9873  -51.0711 C.3       17 UNK         0.1400 
     96 CB         -3.5816  -18.1424  -49.7995 C.3       17 UNK        -0.1800 
     97 C          -4.6214  -18.7655  -52.0045 C.2       17 UNK         0.5000 
     98 O          -4.4893  -18.0995  -53.0308 O.2       17 UNK        -0.5000 
     99 N          -5.7721  -19.3418  -51.6278 N.am      18 UNK        -0.5000 
    100 CA        -7.0355  -19.2420  -52.3589 C.3       18 UNK         0.1400 
    101 CB        -8.1943  -19.6172  -51.4227 C.3       18 UNK        -0.1800 
    102 C         -7.0470  -20.1236  -53.6177 C.2       18 UNK         0.5000 
    103 O         -7.5819  -19.7103  -54.6469 O.2       18 UNK        -0.5000 
    104 N         -6.4341  -21.3109  -53.5187 N.am      19 UNK        -0.5000 
    105 CA        -6.2614  -22.2555  -54.6233 C.3       19 UNK         0.1400 
    106 CB        -5.8535  -23.6183  -54.0417 C.3       19 UNK        -0.1800 
    107 C         -5.2267  -21.7962  -55.6711 C.2       19 UNK         0.5000 
    108 O         -5.2119  -22.3425  -56.7746 O.2       19 UNK        -0.5000 
    109 N         -4.3669  -20.8352  -55.2959 N.am      20 UNK        -0.5000 
    110 CA        -3.1941  -20.3447  -56.0302 C.3       20 UNK         0.1400 
    111 CB        -3.6038  -19.6516  -57.3459 C.3       20 UNK        -0.1800 
    112 C         -2.1229  -21.4405  -56.2253 C.2       20 UNK         0.5000 
    113 O         -1.3795  -21.4249  -57.2078 O.2       20 UNK        -0.5000 
    114 N         -2.0600  -22.3700  -55.2639 N.am      21 UNK        -0.5000 
    115 CA        -1.1116  -23.4807  -55.2081 C.3       21 UNK         0.1400 
    116 CB        -1.7442  -24.6211  -54.3952 C.3       21 UNK        -0.1800 
    117 C          0.2395  -23.0618  -54.5987 C.2       21 UNK         0.5000 
    118 O          1.2100  -23.8119  -54.7069 O.2       21 UNK        -0.5000 
    119 N          0.2789  -21.8799  -53.9704 N.am      22 UNK        -0.5000 
    120 CA         1.4683  -21.2697  -53.3620 C.3       22 UNK         0.1400 
    121 C          2.5815  -20.8152  -54.3556 C.2       22 UNK         0.5000 
    122 N          2.3365  -20.7684  -55.6599 N.am      22 UNK        -0.7600 
    123 O          3.6930  -20.5098  -53.9323 O.2       22 UNK        -0.5000 
    124 C124        1.0674  -20.1395  -52.3821 C.3       23 UNK        -0.0398 
    125 S125        0.2235  -18.7235  -53.1829 S.3       23 UNK        -0.2404 
    126 C126        1.0310  -17.3028  -52.3712 C.3       23 UNK        -0.0205 
    127 H127       -4.1591   -6.6424  -47.4336 H         1 UNK         0.0600 
    128 H128       -4.0170   -7.1904  -49.1064 H         1 UNK         0.0600 
    129 H129       -2.7076   -6.2644  -48.3675 H         1 UNK         0.0600 
    130 H130       -3.5837   -9.3687  -49.2204 H         1 UNK         0.3000 
    131 H131       -1.4517  -10.5963  -47.6808 H         1 UNK         0.0600 
    132 H132       -3.2403  -12.0285  -49.6990 H         1 UNK         0.0800 
    133 H133       -1.9942  -10.9366  -50.2123 H         1 UNK         0.0800 
    134 H134       -2.5635  -14.2737  -50.4168 H         1 UNK         0.0800 
    135 H135       -2.6442  -14.5049  -48.6855 H         1 UNK         0.0800 
    136 H136       -0.5894  -15.1966  -51.7191 H         1 UNK         0.1150 
    137 H137        1.2148  -18.7004  -50.0423 H         1 UNK         0.1150 
    138 H138       -1.3922  -16.2812  -47.6559 H         1 UNK         0.1150 
    139 H139       -0.7360  -18.4446  -46.8436 H         1 UNK         0.0800 
    140 H140        0.9979  -18.4924  -47.1021 H         1 UNK         0.0800 
    141 H141        0.2351  -20.5540  -45.7891 H         1 UNK         0.0800 
    142 H142        1.2845  -21.6027  -46.7003 H         1 UNK         0.0800 
    143 H143       -0.6203  -23.1369  -47.1919 H         1 UNK         0.0600 
    144 H144        0.5175  -22.7322  -44.6188 H         1 UNK         0.3000 
    145 H145       -0.9021  -25.4601  -42.8911 H         1 UNK         0.0600 
    146 H146        0.7986  -26.6127  -44.3194 H         1 UNK         0.0600 
    147 H147        1.4410  -26.2444  -42.7271 H         1 UNK         0.0600 
    148 H148        1.9018  -25.2569  -44.1144 H         1 UNK         0.0600 
    149 H149        1.2549  -23.7982  -42.1958 H         1 UNK         0.3000 
    150 H150       -0.3041  -20.7951  -41.4032 H         1 UNK         0.0600 
    151 H151        0.3952  -22.9366  -39.3210 H         1 UNK         0.0600 
    152 H152       -1.1361  -22.0762  -39.4264 H         1 UNK         0.0600 
    153 H153        0.3327  -21.1963  -39.0370 H         1 UNK         0.0600 
    154 H154        2.2151  -21.8844  -40.6244 H         1 UNK         0.3000 
    155 H155        4.0807  -21.2114  -41.5895 H         1 UNK         0.0600 
    156 H156        3.8286  -22.4276  -44.4061 H         1 UNK         0.0600 
    157 H157        3.8746  -23.3438  -42.9029 H         1 UNK         0.0600 
    158 H158        5.2860  -22.4324  -43.4160 H         1 UNK         0.0600 
    159 H159        3.4387  -19.5642  -43.9081 H         1 UNK         0.3000 
    160 H160        4.9250  -17.2556  -43.2530 H         1 UNK         0.0600 
    161 H161        7.6203  -18.2813  -44.2805 H         1 UNK         0.0600 
    162 H162        7.3313  -17.3878  -42.7951 H         1 UNK         0.0600 
    163 H163        7.0807  -16.6038  -44.3456 H         1 UNK         0.0600 
    164 H164        4.1894  -17.3400  -45.3023 H         1 UNK         0.3000 
    165 H165        5.3076  -18.4887  -48.3245 H         1 UNK         0.0600 
    166 H166        4.3117  -20.7198  -47.9110 H         1 UNK         0.0600 
    167 H167        2.9665  -19.9941  -47.0453 H         1 UNK         0.0600 
    168 H168        3.1608  -19.7162  -48.7779 H         1 UNK         0.0600 
    169 H169        2.7102  -17.5572  -47.4594 H         1 UNK         0.3000 
    170 H170        3.5217  -14.2152  -46.9187 H         1 UNK         0.0600 
    171 H171        1.9241  -13.6614  -48.7317 H         1 UNK         0.0600 
    172 H172        2.1207  -15.2673  -49.4317 H         1 UNK         0.0600 
    173 H173        3.4691  -14.1393  -49.4152 H         1 UNK         0.0600 
    174 H174        0.9822  -15.3435  -47.1884 H         1 UNK         0.3000 
    175 H175       -0.2107  -16.3982  -45.6233 H         1 UNK         0.0600 
    176 H176        0.9844  -18.3506  -44.5897 H         1 UNK         0.0600 
    177 H177        1.2487  -17.4146  -43.1269 H         1 UNK         0.0600 
    178 H178       -0.3888  -17.8283  -43.6302 H         1 UNK         0.0600 
    179 H179        0.1649  -15.2537  -42.9822 H         1 UNK         0.3000 
    180 H180       -1.1759  -13.4143  -42.4898 H         1 UNK         0.0600 
    181 H181        0.8289  -11.5914  -43.9402 H         1 UNK         0.0600 
    182 H182        1.2177  -12.7211  -42.6491 H         1 UNK         0.0600 
    183 H183        0.1990  -11.3302  -42.3138 H         1 UNK         0.0600 
    184 H184       -1.5363  -11.2585  -44.4745 H         1 UNK         0.3000 
    185 H185       -4.9777  -11.8329  -44.9328 H         1 UNK         0.0600 
    186 H186       -4.9958  -10.4716  -42.8428 H         1 UNK         0.0600 
    187 H187       -3.6224   -9.5342  -43.4197 H         1 UNK         0.0600 
    188 H188       -5.1698   -9.4488  -44.2608 H         1 UNK         0.0600 
    189 H189       -2.9894   -9.8579  -45.7752 H         1 UNK         0.3000 
    190 H190       -1.7735  -21.3723  -44.3000 H         1 UNK         0.3000 
    191 H191       -4.2425  -20.4680  -45.5025 H         1 UNK         0.0600 
    192 H192       -3.1495  -19.2171  -43.6572 H         1 UNK         0.0600 
    193 H193       -4.7591  -19.7348  -43.1797 H         1 UNK         0.0600 
    194 H194       -3.3490  -20.5916  -42.5711 H         1 UNK         0.0600 
    195 H195       -3.2852  -23.1742  -43.3620 H         1 UNK         0.3000 
    196 H196       -5.8696  -24.2063  -42.8682 H         1 UNK         0.0600 
    197 H197       -4.6638  -26.2156  -42.0905 H         1 UNK         0.0600 
    198 H198       -3.8219  -24.7728  -41.5423 H         1 UNK         0.0600 
    199 H199       -3.1969  -25.6984  -42.9071 H         1 UNK         0.0600 
    200 H200       -3.5013  -25.0564  -45.4489 H         1 UNK         0.3000 
    201 H201       -5.2397  -27.0088  -46.7093 H         1 UNK         0.0600 
    202 H202       -3.4459  -27.0362  -48.4270 H         1 UNK         0.0600 
    203 H203       -2.7443  -27.1256  -46.8188 H         1 UNK         0.0600 
    204 H204       -2.7045  -25.6079  -47.7164 H         1 UNK         0.0600 
    205 H205       -5.0980  -23.5918  -46.7675 H         1 UNK         0.3000 
    206 H206       -5.9600  -21.9295  -47.9209 H         1 UNK         0.0600 
    207 H207       -8.1341  -23.1723  -47.7006 H         1 UNK         0.0600 
    208 H208       -8.0671  -22.1837  -49.1496 H         1 UNK         0.0600 
    209 H209       -7.8547  -23.9232  -49.2720 H         1 UNK         0.0600 
    210 H210       -3.5936  -23.0166  -48.8095 H         1 UNK         0.3000 
    211 H211       -3.4531  -23.5039  -51.6276 H         1 UNK         0.0600 
    212 H212       -0.9838  -23.2235  -51.2518 H         1 UNK         0.0600 
    213 H213       -1.7113  -24.3039  -50.0709 H         1 UNK         0.0600 
    214 H214       -1.3028  -22.6504  -49.6206 H         1 UNK         0.0600 
    215 H215       -3.4100  -20.5930  -49.6965 H         1 UNK         0.3000 
    216 H216       -2.5053  -18.6803  -51.5880 H         1 UNK         0.0600 
    217 H217       -2.7836  -18.3478  -49.0885 H         1 UNK         0.0600 
    218 H218       -4.5255  -18.3440  -49.2917 H         1 UNK         0.0600 
    219 H219       -3.5558  -17.0779  -50.0338 H         1 UNK         0.0600 
    220 H220       -5.7760  -19.9190  -50.8001 H         1 UNK         0.3000 
    221 H221       -7.1732  -18.2050  -52.6728 H         1 UNK         0.0600 
    222 H222       -8.1171  -20.6492  -51.0794 H         1 UNK         0.0600 
    223 H223       -8.2186  -18.9713  -50.5449 H         1 UNK         0.0600 
    224 H224       -9.1540  -19.5122  -51.9302 H         1 UNK         0.0600 
    225 H225       -6.0854  -21.6037  -52.6102 H         1 UNK         0.3000 
    226 H226       -7.2205  -22.3708  -55.1323 H         1 UNK         0.0600 
    227 H227       -6.5891  -23.9779  -53.3217 H         1 UNK         0.0600 
    228 H228       -5.7707  -24.3712  -54.8266 H         1 UNK         0.0600 
    229 H229       -4.8891  -23.5647  -53.5365 H         1 UNK         0.0600 
    230 H230       -4.4583  -20.4795  -54.3537 H         1 UNK         0.3000 
    231 H231       -2.7365  -19.5891  -55.3897 H         1 UNK         0.0600 
    232 H232       -3.9955  -20.3606  -58.0755 H         1 UNK         0.0600 
    233 H233       -2.7501  -19.1516  -57.8045 H         1 UNK         0.0600 
    234 H234       -4.3669  -18.8934  -57.1699 H         1 UNK         0.0600 
    235 H235       -2.6442  -22.2326  -54.4457 H         1 UNK         0.3000 
    236 H236       -0.9231  -23.8425  -56.2209 H         1 UNK         0.0600 
    237 H237       -1.9348  -24.3228  -53.3646 H         1 UNK         0.0600 
    238 H238       -2.6906  -24.9395  -54.8329 H         1 UNK         0.0600 
    239 H239       -1.0890  -25.4927  -54.3686 H         1 UNK         0.0600 
    240 H240       -0.5704  -21.3346  -53.9206 H         1 UNK         0.3000 
    241 H241        1.9331  -22.0518  -52.7586 H         1 UNK         0.0600 
    242 H242        1.4273  -21.0115  -56.0200 H         1 UNK         0.3800 
    243 H243        3.0656  -20.4776  -56.2920 H         1 UNK         0.3800 
    244 H244        0.4025  -20.5358  -51.6128 H         1 UNK         0.0800 
    245 H245        1.9568  -19.7936  -51.8545 H         1 UNK         0.0800 
    246 H246        2.0974  -17.4910  -52.2403 H         1 UNK         0.0800 
    247 H247        0.9570  -16.4405  -53.0353 H         1 UNK         0.0800 
@<TRIPOS>BOND
     1    1    2 1    
     2    1  127 1    
     3    1  128 1    
     4    1  129 1    
     5    2    3 2    
     6    2    4 am   BACKBONE|DICT|INTERRES
     7    4    5 1    
     8    4  130 1    
     9    5    6 1    
    10    5   65 1    
    11    5  131 1    
    12    6    7 1    
    13    6  132 1    
    14    6  133 1    
    15    7    8 1    
    16    8    9 1    
    17    8  134 1    
    18    8  135 1    
    19    9   10 ar   
    20    9   14 ar   
    21   10   11 ar   
    22   10  136 1    
    23   11   12 ar   
    24   11  126 1    
    25   12   13 ar   
    26   12  137 1    
    27   13   14 ar   
    28   13   15 1    
    29   14  138 1    
    30   15   16 1    
    31   15  139 1    
    32   15  140 1    
    33   16   17 1    
    34   17   18 1    
    35   17  141 1    
    36   17  142 1    
    37   18   19 1    
    38   18   67 1    
    39   18  143 1    
    40   19   20 am   BACKBONE|DICT|INTERRES
    41   19  144 1    
    42   20   21 2    
    43   20   22 1    
    44   22   23 1    
    45   22   24 1    
    46   22  145 1    
    47   23  146 1    
    48   23  147 1    
    49   23  148 1    
    50   24   25 am   BACKBONE|DICT|INTERRES
    51   24  149 1    
    52   25   26 2    
    53   25   27 1    
    54   27   28 1    
    55   27   29 1    
    56   27  150 1    
    57   28  151 1    
    58   28  152 1    
    59   28  153 1    
    60   29   30 am   BACKBONE|DICT|INTERRES
    61   29  154 1    
    62   30   31 2    
    63   30   32 1    
    64   32   33 1    
    65   32   34 1    
    66   32  155 1    
    67   33  156 1    
    68   33  157 1    
    69   33  158 1    
    70   34   35 am   BACKBONE|DICT|INTERRES
    71   34  159 1    
    72   35   36 2    
    73   35   37 1    
    74   37   38 1    
    75   37   39 1    
    76   37  160 1    
    77   38  161 1    
    78   38  162 1    
    79   38  163 1    
    80   39   40 am   BACKBONE|DICT|INTERRES
    81   39  164 1    
    82   40   41 2    
    83   40   42 1    
    84   42   43 1    
    85   42   44 1    
    86   42  165 1    
    87   43  166 1    
    88   43  167 1    
    89   43  168 1    
    90   44   45 am   BACKBONE|DICT|INTERRES
    91   44  169 1    
    92   45   46 2    
    93   45   47 1    
    94   47   48 1    
    95   47   49 1    
    96   47  170 1    
    97   48  171 1    
    98   48  172 1    
    99   48  173 1    
   100   49   50 am   BACKBONE|DICT|INTERRES
   101   49  174 1    
   102   50   51 2    
   103   50   52 1    
   104   52   53 1    
   105   52   54 1    
   106   52  175 1    
   107   53  176 1    
   108   53  177 1    
   109   53  178 1    
   110   54   55 am   BACKBONE|DICT|INTERRES
   111   54  179 1    
   112   55   56 2    
   113   55   57 1    
   114   57   58 1    
   115   57   59 1    
   116   57  180 1    
   117   58  181 1    
   118   58  182 1    
   119   58  183 1    
   120   59   60 am   BACKBONE|DICT|INTERRES
   121   59  184 1    
   122   60   61 2    
   123   60   62 1    
   124   62   63 1    
   125   62   64 1    
   126   62  185 1    
   127   63  186 1    
   128   63  187 1    
   129   63  188 1    
   130   64   65 am   BACKBONE|DICT|INTERRES
   131   64  189 1    
   132   65   66 2    
   133   67   68 2    
   134   67   69 am   BACKBONE|DICT|INTERRES
   135   69   70 1    
   136   69  190 1    
   137   70   71 1    
   138   70   72 1    
   139   70  191 1    
   140   71  192 1    
   141   71  193 1    
   142   71  194 1    
   143   72   73 2    
   144   72   74 am   BACKBONE|DICT|INTERRES
   145   74   75 1    
   146   74  195 1    
   147   75   76 1    
   148   75   77 1    
   149   75  196 1    
   150   76  197 1    
   151   76  198 1    
   152   76  199 1    
   153   77   78 2    
   154   77   79 am   BACKBONE|DICT|INTERRES
   155   79   80 1    
   156   79  200 1    
   157   80   81 1    
   158   80   82 1    
   159   80  201 1    
   160   81  202 1    
   161   81  203 1    
   162   81  204 1    
   163   82   83 2    
   164   82   84 am   BACKBONE|DICT|INTERRES
   165   84   85 1    
   166   84  205 1    
   167   85   86 1    
   168   85   87 1    
   169   85  206 1    
   170   86  207 1    
   171   86  208 1    
   172   86  209 1    
   173   87   88 2    
   174   87   89 am   BACKBONE|DICT|INTERRES
   175   89   90 1    
   176   89  210 1    
   177   90   91 1    
   178   90   92 1    
   179   90  211 1    
   180   91  212 1    
   181   91  213 1    
   182   91  214 1    
   183   92   93 2    
   184   92   94 am   BACKBONE|DICT|INTERRES
   185   94   95 1    
   186   94  215 1    
   187   95   96 1    
   188   95   97 1    
   189   95  216 1    
   190   96  217 1    
   191   96  218 1    
   192   96  219 1    
   193   97   98 2    
   194   97   99 am   BACKBONE|DICT|INTERRES
   195   99  100 1    
   196   99  220 1    
   197  100  101 1    
   198  100  102 1    
   199  100  221 1    
   200  101  222 1    
   201  101  223 1    
   202  101  224 1    
   203  102  103 2    
   204  102  104 am   BACKBONE|DICT|INTERRES
   205  104  105 1    
   206  104  225 1    
   207  105  106 1    
   208  105  107 1    
   209  105  226 1    
   210  106  227 1    
   211  106  228 1    
   212  106  229 1    
   213  107  108 2    
   214  107  109 am   BACKBONE|DICT|INTERRES
   215  109  110 1    
   216  109  230 1    
   217  110  111 1    
   218  110  112 1    
   219  110  231 1    
   220  111  232 1    
   221  111  233 1    
   222  111  234 1    
   223  112  113 2    
   224  112  114 am   BACKBONE|DICT|INTERRES
   225  114  115 1    
   226  114  235 1    
   227  115  116 1    
   228  115  117 1    
   229  115  236 1    
   230  116  237 1    
   231  116  238 1    
   232  116  239 1    
   233  117  118 2    
   234  117  119 am   BACKBONE|DICT|INTERRES
   235  119  120 1    
   236  119  240 1    
   237  120  121 1    
   238  120  124 1    
   239  120  241 1    
   240  121  122 am   BACKBONE|DICT|INTERRES
   241  121  123 2    
   242  122  242 1    
   243  122  243 1    
   244  124  125 1    
   245  124  244 1    
   246  124  245 1    
   247  125  126 1    
   248  126  246 1    
   249  126  247 1    
@<TRIPOS>SUBSTRUCTURE
     1 UNK         1 GROUP             0       ****    0 ROOT    
