@<TRIPOS>MOLECULE
3R540
247   249    1
SMALL
USER_CHARGES


@<TRIPOS>ATOM
      1 CA          7.1847   -9.8056  -45.6698 C.3       0 UNK        -0.1800 
      2 C           5.8706  -10.5561  -45.5175 C.2       0 UNK         0.5000 
      3 O           5.2310  -10.4592  -44.4721 O.2       0 UNK        -0.5000 
      4 N           5.4537  -11.2837  -46.5621 N.am      1 UNK        -0.5000 
      5 CA          4.2466  -12.1261  -46.6261 C.3       1 UNK         0.1400 
      6 C6          4.2054  -12.8876  -47.9741 C.3       23 UNK        -0.0398 
      7 S7          3.2059  -14.4136  -47.9599 S.3       23 UNK        -0.2404 
      8 C8          3.8639  -15.1881  -49.4691 C.3       23 UNK        -0.0205 
      9 C9          2.9245  -16.2337  -50.0469 C.ar      23 UNK        -0.0193 
     10 C10         1.7471  -15.8341  -50.6840 C.ar      23 UNK        -0.1150 
     11 C11         0.9081  -16.7756  -51.2852 C.ar      23 UNK        -0.0193 
     12 C12         1.2548  -18.1300  -51.2470 C.ar      23 UNK        -0.1150 
     13 C13         2.4373  -18.5410  -50.6223 C.ar      23 UNK        -0.0193 
     14 C14         3.2608  -17.5896  -50.0123 C.ar      23 UNK        -0.1150 
     15 C15         2.8620  -20.0020  -50.6543 C.3       23 UNK        -0.0205 
     16 S16         2.4356  -20.8773  -49.1198 S.3       23 UNK        -0.2404 
     17 C17         0.6412  -21.0986  -49.3345 C.3       23 UNK        -0.0398 
     18 CA          0.0901  -22.2344  -48.4407 C.3       11 UNK         0.1400 
     19 N           0.1054  -21.8975  -47.0118 N.am      11 UNK        -0.5000 
     20 C          -0.2431  -22.7370  -46.0244 C.2       10 UNK         0.5000 
     21 O          -0.5658  -23.9111  -46.2028 O.2       10 UNK        -0.5000 
     22 CA         -0.2957  -22.1615  -44.5995 C.3       10 UNK         0.1400 
     23 CB          1.1038  -22.1331  -43.9677 C.3       10 UNK        -0.1800 
     24 N          -0.9048  -20.8316  -44.5489 N.am      10 UNK        -0.5000 
     25 C          -2.1784  -20.5696  -44.8791 C.2       9 UNK         0.5000 
     26 O          -2.9837  -21.4326  -45.2248 O.2       9 UNK        -0.5000 
     27 CA         -2.6236  -19.0966  -44.8639 C.3       9 UNK         0.1400 
     28 CB         -2.9398  -18.6360  -43.4341 C.3       9 UNK        -0.1800 
     29 N          -1.6363  -18.2018  -45.4652 N.am      9 UNK        -0.5000 
     30 C          -1.2468  -18.2488  -46.7476 C.2       8 UNK         0.5000 
     31 O          -1.7158  -19.0287  -47.5790 O.2       8 UNK        -0.5000 
     32 CA         -0.1043  -17.2954  -47.1471 C.3       8 UNK         0.1400 
     33 CB         -0.6287  -15.8684  -47.3687 C.3       8 UNK        -0.1800 
     34 N           0.9685  -17.2587  -46.1526 N.am      8 UNK        -0.5000 
     35 C           1.7111  -18.3114  -45.7852 C.2       7 UNK         0.5000 
     36 O           1.5915  -19.4379  -46.2637 O.2       7 UNK        -0.5000 
     37 CA          2.7055  -18.0741  -44.6363 C.3       7 UNK         0.1400 
     38 CB          3.9197  -17.2638  -45.1166 C.3       7 UNK        -0.1800 
     39 N           2.0705  -17.3984  -43.5025 N.am      7 UNK        -0.5000 
     40 C           1.1237  -17.9583  -42.7312 C.2       6 UNK         0.5000 
     41 O           0.7341  -19.1159  -42.8690 O.2       6 UNK        -0.5000 
     42 CA          0.4658  -17.0804  -41.6476 C.3       6 UNK         0.1400 
     43 CB          1.2257  -17.2087  -40.3194 C.3       6 UNK        -0.1800 
     44 N           0.3830  -15.6695  -42.0160 N.am      6 UNK        -0.5000 
     45 C          -0.2398  -15.1815  -43.0976 C.2       5 UNK         0.5000 
     46 O          -0.9353  -15.8663  -43.8477 O.2       5 UNK        -0.5000 
     47 CA         -0.0020  -13.6940  -43.4258 C.3       5 UNK         0.1400 
     48 CB         -1.2380  -12.8553  -43.0705 C.3       5 UNK        -0.1800 
     49 N           1.1724  -13.1116  -42.7666 N.am      5 UNK        -0.5000 
     50 C           2.4439  -13.5035  -42.9279 C.2       4 UNK         0.5000 
     51 O           2.7748  -14.4659  -43.6231 O.2       4 UNK        -0.5000 
     52 CA          3.5069  -12.6901  -42.1632 C.3       4 UNK         0.1400 
     53 CB          4.9384  -13.1895  -42.4297 C.3       4 UNK        -0.1800 
     54 N           3.4334  -11.2694  -42.4982 N.am      4 UNK        -0.5000 
     55 C           2.5650  -10.3820  -41.9962 C.2       3 UNK         0.5000 
     56 O           1.7096  -10.6663  -41.1569 O.2       3 UNK        -0.5000 
     57 CA          2.6353   -8.9581  -42.5682 C.3       3 UNK         0.1400 
     58 CB          3.8753   -8.2149  -42.0460 C.3       3 UNK        -0.1800 
     59 N           2.6729   -9.0046  -44.0287 N.am      3 UNK        -0.5000 
     60 C           1.5945   -8.9289  -44.8209 C.2       2 UNK         0.5000 
     61 O           0.4540   -8.7177  -44.4069 O.2       2 UNK        -0.5000 
     62 CA          1.8220   -9.1293  -46.3335 C.3       2 UNK         0.1400 
     63 CB          2.0787   -7.7806  -47.0227 C.3       2 UNK        -0.1800 
     64 N           2.9306  -10.0375  -46.6332 N.am      2 UNK        -0.5000 
     65 C           2.9284  -11.3533  -46.3725 C.2       1 UNK         0.5000 
     66 O           1.9486  -11.9470  -45.9239 O.2       1 UNK        -0.5000 
     67 C          -1.3124  -22.6601  -48.9145 C.2       11 UNK         0.5000 
     68 O          -1.4327  -23.6867  -49.5825 O.2       11 UNK        -0.5000 
     69 N          -2.3437  -21.8973  -48.5234 N.am      12 UNK        -0.5000 
     70 CA         -3.7433  -22.2248  -48.7880 C.3       12 UNK         0.1400 
     71 CB         -4.6411  -21.0515  -48.3636 C.3       12 UNK        -0.1800 
     72 C          -4.1771  -23.5291  -48.0948 C.2       12 UNK         0.5000 
     73 O          -4.7066  -24.4199  -48.7589 O.2       12 UNK        -0.5000 
     74 N          -3.9236  -23.6273  -46.7818 N.am      13 UNK        -0.5000 
     75 CA         -4.3074  -24.7544  -45.9293 C.3       13 UNK         0.1400 
     76 CB         -3.9531  -24.4413  -44.4684 C.3       13 UNK        -0.1800 
     77 C          -3.6925  -26.0984  -46.3551 C.2       13 UNK         0.5000 
     78 O          -4.3935  -27.1107  -46.3368 O.2       13 UNK        -0.5000 
     79 N          -2.4195  -26.0835  -46.7756 N.am      14 UNK        -0.5000 
     80 CA         -1.6800  -27.2548  -47.2586 C.3       14 UNK         0.1400 
     81 CB         -0.2177  -26.8582  -47.5123 C.3       14 UNK        -0.1800 
     82 C          -2.2823  -27.9041  -48.5211 C.2       14 UNK         0.5000 
     83 O          -2.0926  -29.1023  -48.7337 O.2       14 UNK        -0.5000 
     84 N          -3.0043  -27.1097  -49.3190 N.am      15 UNK        -0.5000 
     85 CA         -3.7039  -27.5297  -50.5313 C.3       15 UNK         0.1400 
     86 CB         -3.2730  -26.5912  -51.6661 C.3       15 UNK        -0.1800 
     87 C          -5.2355  -27.5219  -50.3475 C.2       15 UNK         0.5000 
     88 O          -5.9598  -27.6309  -51.3381 O.2       15 UNK        -0.5000 
     89 N          -5.7118  -27.3611  -49.1010 N.am      16 UNK        -0.5000 
     90 CA         -7.1196  -27.2819  -48.6841 C.3       16 UNK         0.1400 
     91 CB         -7.7862  -28.6671  -48.8088 C.3       16 UNK        -0.1800 
     92 C          -7.9244  -26.1712  -49.4002 C.2       16 UNK         0.5000 
     93 O          -9.1327  -26.3118  -49.5948 O.2       16 UNK        -0.5000 
     94 N          -7.2238  -25.1026  -49.8071 N.am      17 UNK        -0.5000 
     95 CA         -7.6757  -23.9638  -50.6114 C.3       17 UNK         0.1400 
     96 CB         -8.6993  -23.1161  -49.8303 C.3       17 UNK        -0.1800 
     97 C          -8.1642  -24.3243  -52.0344 C.2       17 UNK         0.5000 
     98 O          -8.7539  -23.4712  -52.6997 O.2       17 UNK        -0.5000 
     99 N          -7.8957  -25.5533  -52.5020 N.am      18 UNK        -0.5000 
    100 CA        -8.2153  -26.0130  -53.8582 C.3       18 UNK         0.1400 
    101 CB        -8.3168  -27.5459  -53.8559 C.3       18 UNK        -0.1800 
    102 C         -7.1759  -25.5404  -54.8941 C.2       18 UNK         0.5000 
    103 O         -7.4707  -25.5041  -56.0893 O.2       18 UNK        -0.5000 
    104 N         -5.9865  -25.1793  -54.4086 N.am      19 UNK        -0.5000 
    105 CA        -4.8598  -24.6059  -55.1291 C.3       19 UNK         0.1400 
    106 CB        -4.0501  -25.7283  -55.8058 C.3       19 UNK        -0.1800 
    107 C         -4.0216  -23.8248  -54.1031 C.2       19 UNK         0.5000 
    108 O         -4.3976  -23.7750  -52.9284 O.2       19 UNK        -0.5000 
    109 N         -2.9139  -23.2211  -54.5559 N.am      20 UNK        -0.5000 
    110 CA        -1.8465  -22.5549  -53.7850 C.3       20 UNK         0.1400 
    111 CB        -1.1097  -23.5779  -52.9018 C.3       20 UNK        -0.1800 
    112 C         -2.2446  -21.3047  -52.9659 C.2       20 UNK         0.5000 
    113 O         -1.3656  -20.5114  -52.6257 O.2       20 UNK        -0.5000 
    114 N         -3.5393  -21.1320  -52.6799 N.am      21 UNK        -0.5000 
    115 CA        -4.1399  -19.9584  -52.0555 C.3       21 UNK         0.1400 
    116 CB        -5.6202  -20.2576  -51.7700 C.3       21 UNK        -0.1800 
    117 C         -3.9990  -18.7039  -52.9367 C.2       21 UNK         0.5000 
    118 O         -3.9734  -18.8056  -54.1662 O.2       21 UNK        -0.5000 
    119 N         -3.9159  -17.5430  -52.2826 N.am      22 UNK        -0.5000 
    120 CA        -3.6019  -16.2500  -52.9125 C.3       22 UNK         0.1400 
    121 C         -4.7768  -15.5833  -53.6874 C.2       22 UNK         0.5000 
    122 N         -5.9972  -16.1013  -53.6250 N.am      22 UNK        -0.7600 
    123 O         -4.5750  -14.5781  -54.3633 O.2       22 UNK        -0.5000 
    124 C124       -2.9698  -15.2561  -51.9018 C.3       23 UNK        -0.0398 
    125 S125       -1.6903  -15.9893  -50.8230 S.3       23 UNK        -0.2404 
    126 C126       -0.3503  -16.3151  -52.0033 C.3       23 UNK        -0.0205 
    127 H127        7.0215   -8.7356  -45.5418 H         1 UNK         0.0600 
    128 H128        7.8933  -10.1364  -44.9107 H         1 UNK         0.0600 
    129 H129        7.6342   -9.9676  -46.6497 H         1 UNK         0.0600 
    130 H130        6.0294  -11.2962  -47.3921 H         1 UNK         0.3000 
    131 H131        4.3414  -12.8591  -45.8221 H         1 UNK         0.0600 
    132 H132        3.8574  -12.2397  -48.7811 H         1 UNK         0.0800 
    133 H133        5.2186  -13.1849  -48.2499 H         1 UNK         0.0800 
    134 H134        4.0342  -14.4234  -50.2286 H         1 UNK         0.0800 
    135 H135        4.8399  -15.6230  -49.2484 H         1 UNK         0.0800 
    136 H136        1.4888  -14.7850  -50.7213 H         1 UNK         0.1150 
    137 H137        0.6155  -18.8612  -51.7224 H         1 UNK         0.1150 
    138 H138        4.1791  -17.9048  -49.5368 H         1 UNK         0.1150 
    139 H139        2.4200  -20.5138  -51.5107 H         1 UNK         0.0800 
    140 H140        3.9421  -20.0596  -50.7973 H         1 UNK         0.0800 
    141 H141        0.4534  -21.3165  -50.3879 H         1 UNK         0.0800 
    142 H142        0.1400  -20.1531  -49.1239 H         1 UNK         0.0800 
    143 H143        0.7360  -23.1062  -48.5671 H         1 UNK         0.0600 
    144 H144        0.4176  -20.9609  -46.7705 H         1 UNK         0.3000 
    145 H145       -0.9166  -22.8291  -43.9991 H         1 UNK         0.0600 
    146 H146        1.0558  -21.8383  -42.9196 H         1 UNK         0.0600 
    147 H147        1.5694  -23.1187  -44.0057 H         1 UNK         0.0600 
    148 H148        1.7665  -21.4370  -44.4816 H         1 UNK         0.0600 
    149 H149       -0.3085  -20.0752  -44.2274 H         1 UNK         0.3000 
    150 H150       -3.5388  -19.0203  -45.4546 H         1 UNK         0.0600 
    151 H151       -3.7282  -19.2479  -42.9941 H         1 UNK         0.0600 
    152 H152       -3.2818  -17.6010  -43.4176 H         1 UNK         0.0600 
    153 H153       -2.0673  -18.7119  -42.7862 H         1 UNK         0.0600 
    154 H154       -1.2325  -17.4916  -44.8606 H         1 UNK         0.3000 
    155 H155        0.3158  -17.6579  -48.0881 H         1 UNK         0.0600 
    156 H156        0.1107  -15.2559  -47.8852 H         1 UNK         0.0600 
    157 H157       -0.8780  -15.3733  -46.4310 H         1 UNK         0.0600 
    158 H158       -1.5333  -15.8713  -47.9755 H         1 UNK         0.0600 
    159 H159        1.1191  -16.3785  -45.6826 H         1 UNK         0.3000 
    160 H160        3.0628  -19.0481  -44.2951 H         1 UNK         0.0600 
    161 H161        3.6328  -16.2711  -45.4649 H         1 UNK         0.0600 
    162 H162        4.4210  -17.7674  -45.9441 H         1 UNK         0.0600 
    163 H163        4.6511  -17.1382  -44.3183 H         1 UNK         0.0600 
    164 H164        2.3150  -16.4231  -43.3623 H         1 UNK         0.3000 
    165 H165       -0.5521  -17.4427  -41.4957 H         1 UNK         0.0600 
    166 H166        2.2462  -16.8323  -40.4015 H         1 UNK         0.0600 
    167 H167        0.7260  -16.6567  -39.5232 H         1 UNK         0.0600 
    168 H168        1.2845  -18.2511  -40.0030 H         1 UNK         0.0600 
    169 H169        0.9251  -15.0258  -41.4598 H         1 UNK         0.3000 
    170 H170        0.1603  -13.6267  -44.5034 H         1 UNK         0.0600 
    171 H171       -2.1288  -13.2401  -43.5690 H         1 UNK         0.0600 
    172 H172       -1.4322  -12.8610  -41.9973 H         1 UNK         0.0600 
    173 H173       -1.1132  -11.8187  -43.3848 H         1 UNK         0.0600 
    174 H174        1.0078  -12.3057  -42.1734 H         1 UNK         0.3000 
    175 H175        3.3058  -12.8133  -41.0971 H         1 UNK         0.0600 
    176 H176        5.0499  -14.2342  -42.1370 H         1 UNK         0.0600 
    177 H177        5.6689  -12.6134  -41.8617 H         1 UNK         0.0600 
    178 H178        5.2019  -13.1140  -43.4851 H         1 UNK         0.0600 
    179 H179        4.0907  -10.9527  -43.2092 H         1 UNK         0.3000 
    180 H180        1.7512   -8.4123  -42.2315 H         1 UNK         0.0600 
    181 H181        4.8022   -8.7024  -42.3504 H         1 UNK         0.0600 
    182 H182        3.8711   -8.1684  -40.9563 H         1 UNK         0.0600 
    183 H183        3.9015   -7.1896  -42.4151 H         1 UNK         0.0600 
    184 H184        3.5653   -9.2449  -44.4440 H         1 UNK         0.3000 
    185 H185        0.9087   -9.5583  -46.7514 H         1 UNK         0.0600 
    186 H186        2.1671   -7.8995  -48.1027 H         1 UNK         0.0600 
    187 H187        1.2574   -7.0864  -46.8396 H         1 UNK         0.0600 
    188 H188        2.9933   -7.3101  -46.6594 H         1 UNK         0.0600 
    189 H189        3.7740   -9.6224  -47.0011 H         1 UNK         0.3000 
    190 H190       -2.1594  -21.0575  -47.9847 H         1 UNK         0.3000 
    191 H191       -3.8541  -22.3677  -49.8653 H         1 UNK         0.0600 
    192 H192       -4.3606  -20.1309  -48.8739 H         1 UNK         0.0600 
    193 H193       -5.6857  -21.2544  -48.6032 H         1 UNK         0.0600 
    194 H194       -4.5833  -20.8613  -47.2920 H         1 UNK         0.0600 
    195 H195       -3.4867  -22.8385  -46.3088 H         1 UNK         0.3000 
    196 H196       -5.3923  -24.8566  -45.9989 H         1 UNK         0.0600 
    197 H197       -4.2461  -25.2594  -43.8093 H         1 UNK         0.0600 
    198 H198       -4.4672  -23.5449  -44.1214 H         1 UNK         0.0600 
    199 H199       -2.8818  -24.2835  -44.3418 H         1 UNK         0.0600 
    200 H200       -1.8981  -25.2113  -46.7276 H         1 UNK         0.3000 
    201 H201       -1.6980  -28.0067  -46.4673 H         1 UNK         0.0600 
    202 H202        0.2621  -26.5162  -46.5953 H         1 UNK         0.0600 
    203 H203       -0.1430  -26.0568  -48.2489 H         1 UNK         0.0600 
    204 H204        0.3618  -27.7041  -47.8842 H         1 UNK         0.0600 
    205 H205       -3.1168  -26.1371  -49.0588 H         1 UNK         0.3000 
    206 H206       -3.4260  -28.5483  -50.8078 H         1 UNK         0.0600 
    207 H207       -2.2042  -26.6749  -51.8629 H         1 UNK         0.0600 
    208 H208       -3.7941  -26.8136  -52.5976 H         1 UNK         0.0600 
    209 H209       -3.4806  -25.5552  -51.4019 H         1 UNK         0.0600 
    210 H210       -5.0392  -27.2680  -48.3486 H         1 UNK         0.3000 
    211 H211       -7.1080  -27.0120  -47.6273 H         1 UNK         0.0600 
    212 H212       -7.8808  -28.9766  -49.8502 H         1 UNK         0.0600 
    213 H213       -8.7871  -28.6629  -48.3756 H         1 UNK         0.0600 
    214 H214       -7.2111  -29.4294  -48.2831 H         1 UNK         0.0600 
    215 H215       -6.2398  -25.0675  -49.5458 H         1 UNK         0.3000 
    216 H216       -6.7877  -23.3477  -50.7585 H         1 UNK         0.0600 
    217 H217       -8.3167  -22.8463  -48.8459 H         1 UNK         0.0600 
    218 H218       -9.6418  -23.6462  -49.6917 H         1 UNK         0.0600 
    219 H219       -8.9214  -22.1862  -50.3551 H         1 UNK         0.0600 
    220 H220       -7.3872  -26.2052  -51.9137 H         1 UNK         0.3000 
    221 H221       -9.1866  -25.6094  -54.1515 H         1 UNK         0.0600 
    222 H222       -7.3613  -28.0128  -53.6147 H         1 UNK         0.0600 
    223 H223       -9.0523  -27.8922  -53.1294 H         1 UNK         0.0600 
    224 H224       -8.6245  -27.9174  -54.8341 H         1 UNK         0.0600 
    225 H225       -5.8564  -25.1788  -53.4040 H         1 UNK         0.3000 
    226 H226       -5.2273  -23.9035  -55.8796 H         1 UNK         0.0600 
    227 H227       -4.6711  -26.3062  -56.4904 H         1 UNK         0.0600 
    228 H228       -3.2218  -25.3254  -56.3890 H         1 UNK         0.0600 
    229 H229       -3.6319  -26.4189  -55.0727 H         1 UNK         0.0600 
    230 H230       -2.7332  -23.2743  -55.5487 H         1 UNK         0.3000 
    231 H231       -1.1323  -22.1985  -54.5288 H         1 UNK         0.0600 
    232 H232       -0.2784  -23.1150  -52.3685 H         1 UNK         0.0600 
    233 H233       -0.7007  -24.3933  -53.4981 H         1 UNK         0.0600 
    234 H234       -1.7732  -24.0115  -52.1551 H         1 UNK         0.0600 
    235 H235       -4.1642  -21.8898  -52.9301 H         1 UNK         0.3000 
    236 H236       -3.6195  -19.7840  -51.1119 H         1 UNK         0.0600 
    237 H237       -6.0919  -19.4319  -51.2362 H         1 UNK         0.0600 
    238 H238       -6.1819  -20.4193  -52.6911 H         1 UNK         0.0600 
    239 H239       -5.7326  -21.1488  -51.1536 H         1 UNK         0.0600 
    240 H240       -3.9541  -17.5376  -51.2738 H         1 UNK         0.3000 
    241 H241       -2.8432  -16.4474  -53.6721 H         1 UNK         0.0600 
    242 H242       -6.1725  -16.9314  -53.0823 H         1 UNK         0.3800 
    243 H243       -6.7500  -15.6646  -54.1337 H         1 UNK         0.3800 
    244 H244       -2.5351  -14.4033  -52.4260 H         1 UNK         0.0800 
    245 H245       -3.7419  -14.8457  -51.2487 H         1 UNK         0.0800 
    246 H246       -0.1368  -15.4113  -52.5758 H         1 UNK         0.0800 
    247 H247       -0.6742  -17.0714  -52.7200 H         1 UNK         0.0800 
@<TRIPOS>BOND
     1    1    2 1    
     2    1  127 1    
     3    1  128 1    
     4    1  129 1    
     5    2    3 2    
     6    2    4 am   BACKBONE|DICT|INTERRES
     7    4    5 1    
     8    4  130 1    
     9    5    6 1    
    10    5   65 1    
    11    5  131 1    
    12    6    7 1    
    13    6  132 1    
    14    6  133 1    
    15    7    8 1    
    16    8    9 1    
    17    8  134 1    
    18    8  135 1    
    19    9   10 ar   
    20    9   14 ar   
    21   10   11 ar   
    22   10  136 1    
    23   11   12 ar   
    24   11  126 1    
    25   12   13 ar   
    26   12  137 1    
    27   13   14 ar   
    28   13   15 1    
    29   14  138 1    
    30   15   16 1    
    31   15  139 1    
    32   15  140 1    
    33   16   17 1    
    34   17   18 1    
    35   17  141 1    
    36   17  142 1    
    37   18   19 1    
    38   18   67 1    
    39   18  143 1    
    40   19   20 am   BACKBONE|DICT|INTERRES
    41   19  144 1    
    42   20   21 2    
    43   20   22 1    
    44   22   23 1    
    45   22   24 1    
    46   22  145 1    
    47   23  146 1    
    48   23  147 1    
    49   23  148 1    
    50   24   25 am   BACKBONE|DICT|INTERRES
    51   24  149 1    
    52   25   26 2    
    53   25   27 1    
    54   27   28 1    
    55   27   29 1    
    56   27  150 1    
    57   28  151 1    
    58   28  152 1    
    59   28  153 1    
    60   29   30 am   BACKBONE|DICT|INTERRES
    61   29  154 1    
    62   30   31 2    
    63   30   32 1    
    64   32   33 1    
    65   32   34 1    
    66   32  155 1    
    67   33  156 1    
    68   33  157 1    
    69   33  158 1    
    70   34   35 am   BACKBONE|DICT|INTERRES
    71   34  159 1    
    72   35   36 2    
    73   35   37 1    
    74   37   38 1    
    75   37   39 1    
    76   37  160 1    
    77   38  161 1    
    78   38  162 1    
    79   38  163 1    
    80   39   40 am   BACKBONE|DICT|INTERRES
    81   39  164 1    
    82   40   41 2    
    83   40   42 1    
    84   42   43 1    
    85   42   44 1    
    86   42  165 1    
    87   43  166 1    
    88   43  167 1    
    89   43  168 1    
    90   44   45 am   BACKBONE|DICT|INTERRES
    91   44  169 1    
    92   45   46 2    
    93   45   47 1    
    94   47   48 1    
    95   47   49 1    
    96   47  170 1    
    97   48  171 1    
    98   48  172 1    
    99   48  173 1    
   100   49   50 am   BACKBONE|DICT|INTERRES
   101   49  174 1    
   102   50   51 2    
   103   50   52 1    
   104   52   53 1    
   105   52   54 1    
   106   52  175 1    
   107   53  176 1    
   108   53  177 1    
   109   53  178 1    
   110   54   55 am   BACKBONE|DICT|INTERRES
   111   54  179 1    
   112   55   56 2    
   113   55   57 1    
   114   57   58 1    
   115   57   59 1    
   116   57  180 1    
   117   58  181 1    
   118   58  182 1    
   119   58  183 1    
   120   59   60 am   BACKBONE|DICT|INTERRES
   121   59  184 1    
   122   60   61 2    
   123   60   62 1    
   124   62   63 1    
   125   62   64 1    
   126   62  185 1    
   127   63  186 1    
   128   63  187 1    
   129   63  188 1    
   130   64   65 am   BACKBONE|DICT|INTERRES
   131   64  189 1    
   132   65   66 2    
   133   67   68 2    
   134   67   69 am   BACKBONE|DICT|INTERRES
   135   69   70 1    
   136   69  190 1    
   137   70   71 1    
   138   70   72 1    
   139   70  191 1    
   140   71  192 1    
   141   71  193 1    
   142   71  194 1    
   143   72   73 2    
   144   72   74 am   BACKBONE|DICT|INTERRES
   145   74   75 1    
   146   74  195 1    
   147   75   76 1    
   148   75   77 1    
   149   75  196 1    
   150   76  197 1    
   151   76  198 1    
   152   76  199 1    
   153   77   78 2    
   154   77   79 am   BACKBONE|DICT|INTERRES
   155   79   80 1    
   156   79  200 1    
   157   80   81 1    
   158   80   82 1    
   159   80  201 1    
   160   81  202 1    
   161   81  203 1    
   162   81  204 1    
   163   82   83 2    
   164   82   84 am   BACKBONE|DICT|INTERRES
   165   84   85 1    
   166   84  205 1    
   167   85   86 1    
   168   85   87 1    
   169   85  206 1    
   170   86  207 1    
   171   86  208 1    
   172   86  209 1    
   173   87   88 2    
   174   87   89 am   BACKBONE|DICT|INTERRES
   175   89   90 1    
   176   89  210 1    
   177   90   91 1    
   178   90   92 1    
   179   90  211 1    
   180   91  212 1    
   181   91  213 1    
   182   91  214 1    
   183   92   93 2    
   184   92   94 am   BACKBONE|DICT|INTERRES
   185   94   95 1    
   186   94  215 1    
   187   95   96 1    
   188   95   97 1    
   189   95  216 1    
   190   96  217 1    
   191   96  218 1    
   192   96  219 1    
   193   97   98 2    
   194   97   99 am   BACKBONE|DICT|INTERRES
   195   99  100 1    
   196   99  220 1    
   197  100  101 1    
   198  100  102 1    
   199  100  221 1    
   200  101  222 1    
   201  101  223 1    
   202  101  224 1    
   203  102  103 2    
   204  102  104 am   BACKBONE|DICT|INTERRES
   205  104  105 1    
   206  104  225 1    
   207  105  106 1    
   208  105  107 1    
   209  105  226 1    
   210  106  227 1    
   211  106  228 1    
   212  106  229 1    
   213  107  108 2    
   214  107  109 am   BACKBONE|DICT|INTERRES
   215  109  110 1    
   216  109  230 1    
   217  110  111 1    
   218  110  112 1    
   219  110  231 1    
   220  111  232 1    
   221  111  233 1    
   222  111  234 1    
   223  112  113 2    
   224  112  114 am   BACKBONE|DICT|INTERRES
   225  114  115 1    
   226  114  235 1    
   227  115  116 1    
   228  115  117 1    
   229  115  236 1    
   230  116  237 1    
   231  116  238 1    
   232  116  239 1    
   233  117  118 2    
   234  117  119 am   BACKBONE|DICT|INTERRES
   235  119  120 1    
   236  119  240 1    
   237  120  121 1    
   238  120  124 1    
   239  120  241 1    
   240  121  122 am   BACKBONE|DICT|INTERRES
   241  121  123 2    
   242  122  242 1    
   243  122  243 1    
   244  124  125 1    
   245  124  244 1    
   246  124  245 1    
   247  125  126 1    
   248  126  246 1    
   249  126  247 1    
@<TRIPOS>SUBSTRUCTURE
     1 UNK         1 GROUP             0       ****    0 ROOT    
