@<TRIPOS>MOLECULE
3R540
247   249    1
SMALL
USER_CHARGES


@<TRIPOS>ATOM
      1 CA         -1.3498  -13.4240  -41.2974 C.3       0 UNK        -0.1800 
      2 C          -1.1921  -12.8930  -42.7147 C.2       0 UNK         0.5000 
      3 O          -1.3758  -11.6979  -42.9490 O.2       0 UNK        -0.5000 
      4 N          -0.8382  -13.7692  -43.6621 N.am      1 UNK        -0.5000 
      5 CA         -0.6451  -13.4660  -45.0854 C.3       1 UNK         0.1400 
      6 C6         -0.8154  -14.7274  -45.9664 C.3       23 UNK        -0.0398 
      7 S7         -2.4486  -15.5263  -45.8208 S.3       23 UNK        -0.2404 
      8 C8         -3.0021  -15.5608  -47.5628 C.3       23 UNK        -0.0205 
      9 C9         -2.0908  -16.2929  -48.5539 C.ar      23 UNK        -0.0193 
     10 C10        -2.3175  -16.1008  -49.9192 C.ar      23 UNK        -0.1150 
     11 C11        -1.5171  -16.7322  -50.8727 C.ar      23 UNK        -0.0193 
     12 C12        -0.4790  -17.5674  -50.4567 C.ar      23 UNK        -0.1150 
     13 C13        -0.2339  -17.7826  -49.0994 C.ar      23 UNK        -0.0193 
     14 C14        -1.0483  -17.1424  -48.1555 C.ar      23 UNK        -0.1150 
     15 C15         0.9326  -18.6927  -48.7065 C.3       23 UNK        -0.0205 
     16 S16         0.8422  -19.4159  -47.0324 S.3       23 UNK        -0.2404 
     17 C17        -0.7280  -20.3375  -47.1256 C.3       23 UNK        -0.0398 
     18 CA         -0.5819  -21.8391  -46.8036 C.3       11 UNK         0.1400 
     19 N           0.0163  -22.0795  -45.4859 N.am      11 UNK        -0.5000 
     20 C           0.3887  -23.2820  -45.0265 C.2       10 UNK         0.5000 
     21 O           0.2991  -24.3209  -45.6787 O.2       10 UNK        -0.5000 
     22 CA          0.8826  -23.3444  -43.5727 C.3       10 UNK         0.1400 
     23 CB          2.3672  -22.9623  -43.4745 C.3       10 UNK        -0.1800 
     24 N           0.0802  -22.4872  -42.6999 N.am      10 UNK        -0.5000 
     25 C          -1.1814  -22.7635  -42.3383 C.2       9 UNK         0.5000 
     26 O          -1.7762  -23.7864  -42.6752 O.2       9 UNK        -0.5000 
     27 CA         -1.9202  -21.7075  -41.4960 C.3       9 UNK         0.1400 
     28 CB         -1.6256  -21.9069  -40.0021 C.3       9 UNK        -0.1800 
     29 N          -1.5861  -20.3352  -41.8753 N.am      9 UNK        -0.5000 
     30 C          -1.8648  -19.7813  -43.0638 C.2       8 UNK         0.5000 
     31 O          -2.4629  -20.3643  -43.9674 O.2       8 UNK        -0.5000 
     32 CA         -1.3418  -18.3507  -43.2929 C.3       8 UNK         0.1400 
     33 CB         -2.3459  -17.3311  -42.7349 C.3       8 UNK        -0.1800 
     34 N          -0.0256  -18.0963  -42.6974 N.am      8 UNK        -0.5000 
     35 C           1.0874  -18.8112  -42.9068 C.2       7 UNK         0.5000 
     36 O           1.1269  -19.8061  -43.6318 O.2       7 UNK        -0.5000 
     37 CA          2.3524  -18.3393  -42.1601 C.3       7 UNK         0.1400 
     38 CB          3.4944  -19.3682  -42.2379 C.3       7 UNK        -0.1800 
     39 N           2.8498  -17.0572  -42.6561 N.am      7 UNK        -0.5000 
     40 C           2.2982  -15.8535  -42.4682 C.2       6 UNK         0.5000 
     41 O           1.2517  -15.6749  -41.8433 O.2       6 UNK        -0.5000 
     42 CA          3.0106  -14.6440  -43.1048 C.3       6 UNK         0.1400 
     43 CB          4.1641  -14.1345  -42.2208 C.3       6 UNK        -0.1800 
     44 N           3.4324  -14.8538  -44.4999 N.am      6 UNK        -0.5000 
     45 C           4.3874  -15.6690  -44.9730 C.2       5 UNK         0.5000 
     46 O           5.1118  -16.3489  -44.2450 O.2       5 UNK        -0.5000 
     47 CA          4.5471  -15.8054  -46.4987 C.3       5 UNK         0.1400 
     48 CB          4.2704  -17.2619  -46.9256 C.3       5 UNK        -0.1800 
     49 N           3.6991  -14.8974  -47.2810 N.am      5 UNK        -0.5000 
     50 C           3.9350  -14.5793  -48.5618 C.2       4 UNK         0.5000 
     51 O           4.9556  -14.9026  -49.1712 O.2       4 UNK        -0.5000 
     52 CA          2.8439  -13.7879  -49.2976 C.3       4 UNK         0.1400 
     53 CB          1.5476  -14.6095  -49.4055 C.3       4 UNK        -0.1800 
     54 N           2.5650  -12.5190  -48.6291 N.am      4 UNK        -0.5000 
     55 C           2.9666  -11.3197  -49.0741 C.2       3 UNK         0.5000 
     56 O           3.6586  -11.1618  -50.0810 O.2       3 UNK        -0.5000 
     57 CA          2.5038  -10.0742  -48.2896 C.3       3 UNK         0.1400 
     58 CB          1.3353   -9.3901  -49.0166 C.3       3 UNK        -0.1800 
     59 N           2.0914  -10.3687  -46.9177 N.am      3 UNK        -0.5000 
     60 C           2.9340  -10.6228  -45.9092 C.2       2 UNK         0.5000 
     61 O           4.1599  -10.5822  -46.0147 O.2       2 UNK        -0.5000 
     62 CA          2.3014  -11.0148  -44.5600 C.3       2 UNK         0.1400 
     63 CB          2.1646   -9.7853  -43.6503 C.3       2 UNK        -0.1800 
     64 N           0.9968  -11.6827  -44.6553 N.am      2 UNK        -0.5000 
     65 C           0.7400  -12.8210  -45.3122 C.2       1 UNK         0.5000 
     66 O           1.5754  -13.3903  -46.0205 O.2       1 UNK        -0.5000 
     67 C          -1.9508  -22.5347  -46.9568 C.2       11 UNK         0.5000 
     68 O          -2.2631  -23.0290  -48.0417 O.2       11 UNK        -0.5000 
     69 N          -2.7380  -22.5598  -45.8724 N.am      12 UNK        -0.5000 
     70 CA         -4.0120  -23.2680  -45.7832 C.3       12 UNK         0.1400 
     71 CB         -4.7929  -22.7747  -44.5569 C.3       12 UNK        -0.1800 
     72 C          -3.8246  -24.7945  -45.7413 C.2       12 UNK         0.5000 
     73 O          -4.5481  -25.5033  -46.4390 O.2       12 UNK        -0.5000 
     74 N          -2.8408  -25.2761  -44.9659 N.am      13 UNK        -0.5000 
     75 CA         -2.4799  -26.6948  -44.8615 C.3       13 UNK         0.1400 
     76 CB         -1.4659  -26.8913  -43.7249 C.3       13 UNK        -0.1800 
     77 C          -1.9364  -27.2772  -46.1801 C.2       13 UNK         0.5000 
     78 O          -2.2656  -28.4118  -46.5269 O.2       13 UNK        -0.5000 
     79 N          -1.1538  -26.4728  -46.9123 N.am      14 UNK        -0.5000 
     80 CA         -0.6716  -26.7658  -48.2647 C.3       14 UNK         0.1400 
     81 CB          0.4810  -25.8030  -48.5931 C.3       14 UNK        -0.1800 
     82 C          -1.7712  -26.6616  -49.3430 C.2       14 UNK         0.5000 
     83 O          -1.5425  -27.0828  -50.4768 O.2       14 UNK        -0.5000 
     84 N          -2.9216  -26.0760  -48.9786 N.am      15 UNK        -0.5000 
     85 CA         -4.1072  -25.7875  -49.7906 C.3       15 UNK         0.1400 
     86 CB         -4.7153  -27.0742  -50.3832 C.3       15 UNK        -0.1800 
     87 C          -3.8975  -24.6954  -50.8576 C.2       15 UNK         0.5000 
     88 O          -4.8065  -24.4507  -51.6501 O.2       15 UNK        -0.5000 
     89 N          -2.7404  -24.0213  -50.8398 N.am      16 UNK        -0.5000 
     90 CA         -2.3674  -22.9585  -51.7706 C.3       16 UNK         0.1400 
     91 CB         -0.8926  -22.5863  -51.5548 C.3       16 UNK        -0.1800 
     92 C          -3.2693  -21.7236  -51.6310 C.2       16 UNK         0.5000 
     93 O          -3.7618  -21.2153  -52.6387 O.2       16 UNK        -0.5000 
     94 N          -3.5028  -21.3014  -50.3805 N.am      17 UNK        -0.5000 
     95 CA         -4.4062  -20.1971  -50.0517 C.3       17 UNK         0.1400 
     96 CB         -4.0669  -19.6469  -48.6584 C.3       17 UNK        -0.1800 
     97 C          -5.8870  -20.6090  -50.1222 C.2       17 UNK         0.5000 
     98 O          -6.7339  -19.7657  -50.4150 O.2       17 UNK        -0.5000 
     99 N          -6.1729  -21.8928  -49.8587 N.am      18 UNK        -0.5000 
    100 CA        -7.5213  -22.4623  -49.8767 C.3       18 UNK         0.1400 
    101 CB        -7.5144  -23.8324  -49.1806 C.3       18 UNK        -0.1800 
    102 C         -8.0831  -22.5737  -51.3045 C.2       18 UNK         0.5000 
    103 O         -9.2276  -22.1858  -51.5412 O.2       18 UNK        -0.5000 
    104 N         -7.2583  -23.0772  -52.2328 N.am      19 UNK        -0.5000 
    105 CA        -7.5817  -23.1800  -53.6562 C.3       19 UNK         0.1400 
    106 CB        -6.6848  -24.2544  -54.2916 C.3       19 UNK        -0.1800 
    107 C         -7.4142  -21.8450  -54.4060 C.2       19 UNK         0.5000 
    108 O         -7.9483  -21.7107  -55.5075 O.2       19 UNK        -0.5000 
    109 N         -6.6580  -20.9067  -53.8132 N.am      20 UNK        -0.5000 
    110 CA        -6.1888  -19.6432  -54.3911 C.3       20 UNK         0.1400 
    111 CB        -7.3606  -18.6762  -54.6560 C.3       20 UNK        -0.1800 
    112 C         -5.3091  -19.9064  -55.6299 C.2       20 UNK         0.5000 
    113 O         -5.5811  -19.3960  -56.7180 O.2       20 UNK        -0.5000 
    114 N         -4.2923  -20.7537  -55.4275 N.am      21 UNK        -0.5000 
    115 CA        -3.3892  -21.2776  -56.4510 C.3       21 UNK         0.1400 
    116 CB        -2.4767  -22.3574  -55.8430 C.3       21 UNK        -0.1800 
    117 C         -2.5846  -20.2232  -57.2491 C.2       21 UNK         0.5000 
    118 O         -2.5344  -20.3454  -58.4722 O.2       21 UNK        -0.5000 
    119 N         -1.9674  -19.1957  -56.6477 N.am      22 UNK        -0.5000 
    120 CA        -1.7576  -18.9257  -55.2208 C.3       22 UNK         0.1400 
    121 C         -0.2408  -18.7459  -54.9479 C.2       22 UNK         0.5000 
    122 N          0.2604  -19.2432  -53.8260 N.am      22 UNK        -0.7600 
    123 O          0.4813  -18.1371  -55.7349 O.2       22 UNK        -0.5000 
    124 C124       -2.5664  -17.6804  -54.7722 C.3       23 UNK        -0.0398 
    125 S125       -2.9552  -17.7277  -52.9931 S.3       23 UNK        -0.2404 
    126 C126       -1.7657  -16.5124  -52.3534 C.3       23 UNK        -0.0205 
    127 H127       -2.3386  -13.1768  -40.9112 H         1 UNK         0.0600 
    128 H128       -0.6029  -12.9734  -40.6438 H         1 UNK         0.0600 
    129 H129       -1.2299  -14.5068  -41.2541 H         1 UNK         0.0600 
    130 H130       -0.6677  -14.7279  -43.3957 H         1 UNK         0.3000 
    131 H131       -1.3962  -12.7372  -45.3974 H         1 UNK         0.0600 
    132 H132       -0.6544  -14.4619  -47.0118 H         1 UNK         0.0800 
    133 H133       -0.0584  -15.4745  -45.7197 H         1 UNK         0.0800 
    134 H134       -3.9872  -16.0276  -47.5965 H         1 UNK         0.0800 
    135 H135       -3.1380  -14.5302  -47.8942 H         1 UNK         0.0800 
    136 H136       -3.1217  -15.4555  -50.2440 H         1 UNK         0.1150 
    137 H137        0.1445  -18.0495  -51.1960 H         1 UNK         0.1150 
    138 H138       -0.8650  -17.3068  -47.1062 H         1 UNK         0.1150 
    139 H139        1.0185  -19.5106  -49.4237 H         1 UNK         0.0800 
    140 H140        1.8553  -18.1167  -48.7837 H         1 UNK         0.0800 
    141 H141       -1.1361  -20.2266  -48.1304 H         1 UNK         0.0800 
    142 H142       -1.4391  -19.8589  -46.4503 H         1 UNK         0.0800 
    143 H143        0.0860  -22.2788  -47.5475 H         1 UNK         0.0600 
    144 H144        0.1689  -21.2660  -44.8998 H         1 UNK         0.3000 
    145 H145        0.7809  -24.3747  -43.2260 H         1 UNK         0.0600 
    146 H146        2.9822  -23.6571  -44.0476 H         1 UNK         0.0600 
    147 H147        2.7168  -22.9937  -42.4426 H         1 UNK         0.0600 
    148 H148        2.5599  -21.9633  -43.8652 H         1 UNK         0.0600 
    149 H149        0.4720  -21.5840  -42.4699 H         1 UNK         0.3000 
    150 H150       -2.9914  -21.8479  -41.6547 H         1 UNK         0.0600 
    151 H151       -0.5702  -21.7518  -39.7745 H         1 UNK         0.0600 
    152 H152       -1.8848  -22.9181  -39.6852 H         1 UNK         0.0600 
    153 H153       -2.2068  -21.2172  -39.3898 H         1 UNK         0.0600 
    154 H154       -1.0869  -19.7818  -41.1949 H         1 UNK         0.3000 
    155 H155       -1.2500  -18.1980  -44.3702 H         1 UNK         0.0600 
    156 H156       -2.4745  -17.4385  -41.6572 H         1 UNK         0.0600 
    157 H157       -3.3257  -17.4556  -43.1981 H         1 UNK         0.0600 
    158 H158       -2.0249  -16.3094  -42.9303 H         1 UNK         0.0600 
    159 H159        0.0659  -17.2634  -42.1255 H         1 UNK         0.3000 
    160 H160        2.0842  -18.2200  -41.1085 H         1 UNK         0.0600 
    161 H161        3.8285  -19.5215  -43.2650 H         1 UNK         0.0600 
    162 H162        3.1782  -20.3354  -41.8455 H         1 UNK         0.0600 
    163 H163        4.3551  -19.0469  -41.6511 H         1 UNK         0.0600 
    164 H164        3.7088  -17.0840  -43.1983 H         1 UNK         0.3000 
    165 H165        2.2693  -13.8467  -43.1338 H         1 UNK         0.0600 
    166 H166        4.6311  -13.2499  -42.6536 H         1 UNK         0.0600 
    167 H167        3.7985  -13.8578  -41.2312 H         1 UNK         0.0600 
    168 H168        4.9389  -14.8879  -42.0787 H         1 UNK         0.0600 
    169 H169        2.8729  -14.3397  -45.1722 H         1 UNK         0.3000 
    170 H170        5.5926  -15.5728  -46.7114 H         1 UNK         0.0600 
    171 H171        4.4607  -17.4159  -47.9876 H         1 UNK         0.0600 
    172 H172        3.2354  -17.5403  -46.7266 H         1 UNK         0.0600 
    173 H173        4.9070  -17.9629  -46.3844 H         1 UNK         0.0600 
    174 H174        2.8494  -14.5551  -46.8470 H         1 UNK         0.3000 
    175 H175        3.1961  -13.6096  -50.3159 H         1 UNK         0.0600 
    176 H176        1.7247  -15.5411  -49.9440 H         1 UNK         0.0600 
    177 H177        1.1446  -14.8724  -48.4284 H         1 UNK         0.0600 
    178 H178        0.7759  -14.0642  -49.9488 H         1 UNK         0.0600 
    179 H179        2.0619  -12.5739  -47.7513 H         1 UNK         0.3000 
    180 H180        3.3418   -9.3744  -48.2596 H         1 UNK         0.0600 
    181 H181        0.4613  -10.0402  -49.0744 H         1 UNK         0.0600 
    182 H182        1.6126   -9.1216  -50.0369 H         1 UNK         0.0600 
    183 H183        1.0389   -8.4713  -48.5102 H         1 UNK         0.0600 
    184 H184        1.0993  -10.4173  -46.7384 H         1 UNK         0.3000 
    185 H185        2.9905  -11.7120  -44.0808 H         1 UNK         0.0600 
    186 H186        3.1221   -9.2764  -43.5312 H         1 UNK         0.0600 
    187 H187        1.4559   -9.0627  -44.0568 H         1 UNK         0.0600 
    188 H188        1.8222  -10.0678  -42.6545 H         1 UNK         0.0600 
    189 H189        0.2546  -11.3132  -44.0691 H         1 UNK         0.3000 
    190 H190       -2.4486  -22.0406  -45.0494 H         1 UNK         0.3000 
    191 H191       -4.5974  -23.0275  -46.6735 H         1 UNK         0.0600 
    192 H192       -4.9787  -21.7019  -44.6151 H         1 UNK         0.0600 
    193 H193       -5.7620  -23.2701  -44.4858 H         1 UNK         0.0600 
    194 H194       -4.2546  -22.9698  -43.6292 H         1 UNK         0.0600 
    195 H195       -2.3241  -24.6353  -44.3714 H         1 UNK         0.3000 
    196 H196       -3.3853  -27.2489  -44.6054 H         1 UNK         0.0600 
    197 H197       -1.1992  -27.9433  -43.6164 H         1 UNK         0.0600 
    198 H198       -1.8746  -26.5604  -42.7701 H         1 UNK         0.0600 
    199 H199       -0.5455  -26.3364  -43.9067 H         1 UNK         0.0600 
    200 H200       -0.8561  -25.5872  -46.5101 H         1 UNK         0.3000 
    201 H201       -0.2859  -27.7870  -48.2832 H         1 UNK         0.0600 
    202 H202        0.8953  -26.0061  -49.5814 H         1 UNK         0.0600 
    203 H203        1.2944  -25.9027  -47.8742 H         1 UNK         0.0600 
    204 H204        0.1507  -24.7634  -48.5817 H         1 UNK         0.0600 
    205 H205       -2.9960  -25.7733  -48.0160 H         1 UNK         0.3000 
    206 H206       -4.8369  -25.3771  -49.0936 H         1 UNK         0.0600 
    207 H207       -4.8728  -27.8271  -49.6108 H         1 UNK         0.0600 
    208 H208       -5.6846  -26.8731  -50.8410 H         1 UNK         0.0600 
    209 H209       -4.0779  -27.5089  -51.1534 H         1 UNK         0.0600 
    210 H210       -2.0906  -24.2245  -50.0936 H         1 UNK         0.3000 
    211 H211       -2.4813  -23.3446  -52.7856 H         1 UNK         0.0600 
    212 H212       -0.7120  -22.2096  -50.5469 H         1 UNK         0.0600 
    213 H213       -0.5780  -21.8144  -52.2575 H         1 UNK         0.0600 
    214 H214       -0.2436  -23.4484  -51.7098 H         1 UNK         0.0600 
    215 H215       -3.0756  -21.8042  -49.6114 H         1 UNK         0.3000 
    216 H216       -4.2561  -19.3918  -50.7740 H         1 UNK         0.0600 
    217 H217       -4.7767  -18.8752  -48.3575 H         1 UNK         0.0600 
    218 H218       -3.0824  -19.1836  -48.6562 H         1 UNK         0.0600 
    219 H219       -4.0842  -20.4257  -47.8954 H         1 UNK         0.0600 
    220 H220       -5.4118  -22.5205  -49.6536 H         1 UNK         0.3000 
    221 H221       -8.1757  -21.7988  -49.3071 H         1 UNK         0.0600 
    222 H222       -6.9498  -24.5720  -49.7475 H         1 UNK         0.0600 
    223 H223       -7.0846  -23.7707  -48.1805 H         1 UNK         0.0600 
    224 H224       -8.5301  -24.2151  -49.0746 H         1 UNK         0.0600 
    225 H225       -6.3441  -23.4279  -51.9556 H         1 UNK         0.3000 
    226 H226       -8.6216  -23.4960  -53.7626 H         1 UNK         0.0600 
    227 H227       -6.9403  -24.4076  -55.3408 H         1 UNK         0.0600 
    228 H228       -5.6312  -23.9742  -54.2484 H         1 UNK         0.0600 
    229 H229       -6.7971  -25.2134  -53.7854 H         1 UNK         0.0600 
    230 H230       -6.2498  -21.1464  -52.9208 H         1 UNK         0.3000 
    231 H231       -5.5459  -19.1815  -53.6408 H         1 UNK         0.0600 
    232 H232       -8.0330  -19.0473  -55.4297 H         1 UNK         0.0600 
    233 H233       -6.9920  -17.7036  -54.9837 H         1 UNK         0.0600 
    234 H234       -7.9467  -18.5140  -53.7514 H         1 UNK         0.0600 
    235 H235       -4.1345  -21.0754  -54.4755 H         1 UNK         0.3000 
    236 H236       -4.0288  -21.7832  -57.1776 H         1 UNK         0.0600 
    237 H237       -1.8470  -21.9711  -55.0426 H         1 UNK         0.0600 
    238 H238       -3.0646  -23.1790  -55.4333 H         1 UNK         0.0600 
    239 H239       -1.8165  -22.7805  -56.6011 H         1 UNK         0.0600 
    240 H240       -1.4391  -18.5703  -57.2394 H         1 UNK         0.3000 
    241 H241       -2.0793  -19.7813  -54.6318 H         1 UNK         0.0600 
    242 H242       -0.3209  -19.7170  -53.1550 H         1 UNK         0.3800 
    243 H243        1.2453  -19.1315  -53.6432 H         1 UNK         0.3800 
    244 H244       -3.5215  -17.6431  -55.2963 H         1 UNK         0.0800 
    245 H245       -2.0605  -16.7495  -55.0357 H         1 UNK         0.0800 
    246 H246       -0.8220  -16.5870  -52.8955 H         1 UNK         0.0800 
    247 H247       -2.1444  -15.5049  -52.5315 H         1 UNK         0.0800 
@<TRIPOS>BOND
     1    1    2 1    
     2    1  127 1    
     3    1  128 1    
     4    1  129 1    
     5    2    3 2    
     6    2    4 am   BACKBONE|DICT|INTERRES
     7    4    5 1    
     8    4  130 1    
     9    5    6 1    
    10    5   65 1    
    11    5  131 1    
    12    6    7 1    
    13    6  132 1    
    14    6  133 1    
    15    7    8 1    
    16    8    9 1    
    17    8  134 1    
    18    8  135 1    
    19    9   10 ar   
    20    9   14 ar   
    21   10   11 ar   
    22   10  136 1    
    23   11   12 ar   
    24   11  126 1    
    25   12   13 ar   
    26   12  137 1    
    27   13   14 ar   
    28   13   15 1    
    29   14  138 1    
    30   15   16 1    
    31   15  139 1    
    32   15  140 1    
    33   16   17 1    
    34   17   18 1    
    35   17  141 1    
    36   17  142 1    
    37   18   19 1    
    38   18   67 1    
    39   18  143 1    
    40   19   20 am   BACKBONE|DICT|INTERRES
    41   19  144 1    
    42   20   21 2    
    43   20   22 1    
    44   22   23 1    
    45   22   24 1    
    46   22  145 1    
    47   23  146 1    
    48   23  147 1    
    49   23  148 1    
    50   24   25 am   BACKBONE|DICT|INTERRES
    51   24  149 1    
    52   25   26 2    
    53   25   27 1    
    54   27   28 1    
    55   27   29 1    
    56   27  150 1    
    57   28  151 1    
    58   28  152 1    
    59   28  153 1    
    60   29   30 am   BACKBONE|DICT|INTERRES
    61   29  154 1    
    62   30   31 2    
    63   30   32 1    
    64   32   33 1    
    65   32   34 1    
    66   32  155 1    
    67   33  156 1    
    68   33  157 1    
    69   33  158 1    
    70   34   35 am   BACKBONE|DICT|INTERRES
    71   34  159 1    
    72   35   36 2    
    73   35   37 1    
    74   37   38 1    
    75   37   39 1    
    76   37  160 1    
    77   38  161 1    
    78   38  162 1    
    79   38  163 1    
    80   39   40 am   BACKBONE|DICT|INTERRES
    81   39  164 1    
    82   40   41 2    
    83   40   42 1    
    84   42   43 1    
    85   42   44 1    
    86   42  165 1    
    87   43  166 1    
    88   43  167 1    
    89   43  168 1    
    90   44   45 am   BACKBONE|DICT|INTERRES
    91   44  169 1    
    92   45   46 2    
    93   45   47 1    
    94   47   48 1    
    95   47   49 1    
    96   47  170 1    
    97   48  171 1    
    98   48  172 1    
    99   48  173 1    
   100   49   50 am   BACKBONE|DICT|INTERRES
   101   49  174 1    
   102   50   51 2    
   103   50   52 1    
   104   52   53 1    
   105   52   54 1    
   106   52  175 1    
   107   53  176 1    
   108   53  177 1    
   109   53  178 1    
   110   54   55 am   BACKBONE|DICT|INTERRES
   111   54  179 1    
   112   55   56 2    
   113   55   57 1    
   114   57   58 1    
   115   57   59 1    
   116   57  180 1    
   117   58  181 1    
   118   58  182 1    
   119   58  183 1    
   120   59   60 am   BACKBONE|DICT|INTERRES
   121   59  184 1    
   122   60   61 2    
   123   60   62 1    
   124   62   63 1    
   125   62   64 1    
   126   62  185 1    
   127   63  186 1    
   128   63  187 1    
   129   63  188 1    
   130   64   65 am   BACKBONE|DICT|INTERRES
   131   64  189 1    
   132   65   66 2    
   133   67   68 2    
   134   67   69 am   BACKBONE|DICT|INTERRES
   135   69   70 1    
   136   69  190 1    
   137   70   71 1    
   138   70   72 1    
   139   70  191 1    
   140   71  192 1    
   141   71  193 1    
   142   71  194 1    
   143   72   73 2    
   144   72   74 am   BACKBONE|DICT|INTERRES
   145   74   75 1    
   146   74  195 1    
   147   75   76 1    
   148   75   77 1    
   149   75  196 1    
   150   76  197 1    
   151   76  198 1    
   152   76  199 1    
   153   77   78 2    
   154   77   79 am   BACKBONE|DICT|INTERRES
   155   79   80 1    
   156   79  200 1    
   157   80   81 1    
   158   80   82 1    
   159   80  201 1    
   160   81  202 1    
   161   81  203 1    
   162   81  204 1    
   163   82   83 2    
   164   82   84 am   BACKBONE|DICT|INTERRES
   165   84   85 1    
   166   84  205 1    
   167   85   86 1    
   168   85   87 1    
   169   85  206 1    
   170   86  207 1    
   171   86  208 1    
   172   86  209 1    
   173   87   88 2    
   174   87   89 am   BACKBONE|DICT|INTERRES
   175   89   90 1    
   176   89  210 1    
   177   90   91 1    
   178   90   92 1    
   179   90  211 1    
   180   91  212 1    
   181   91  213 1    
   182   91  214 1    
   183   92   93 2    
   184   92   94 am   BACKBONE|DICT|INTERRES
   185   94   95 1    
   186   94  215 1    
   187   95   96 1    
   188   95   97 1    
   189   95  216 1    
   190   96  217 1    
   191   96  218 1    
   192   96  219 1    
   193   97   98 2    
   194   97   99 am   BACKBONE|DICT|INTERRES
   195   99  100 1    
   196   99  220 1    
   197  100  101 1    
   198  100  102 1    
   199  100  221 1    
   200  101  222 1    
   201  101  223 1    
   202  101  224 1    
   203  102  103 2    
   204  102  104 am   BACKBONE|DICT|INTERRES
   205  104  105 1    
   206  104  225 1    
   207  105  106 1    
   208  105  107 1    
   209  105  226 1    
   210  106  227 1    
   211  106  228 1    
   212  106  229 1    
   213  107  108 2    
   214  107  109 am   BACKBONE|DICT|INTERRES
   215  109  110 1    
   216  109  230 1    
   217  110  111 1    
   218  110  112 1    
   219  110  231 1    
   220  111  232 1    
   221  111  233 1    
   222  111  234 1    
   223  112  113 2    
   224  112  114 am   BACKBONE|DICT|INTERRES
   225  114  115 1    
   226  114  235 1    
   227  115  116 1    
   228  115  117 1    
   229  115  236 1    
   230  116  237 1    
   231  116  238 1    
   232  116  239 1    
   233  117  118 2    
   234  117  119 am   BACKBONE|DICT|INTERRES
   235  119  120 1    
   236  119  240 1    
   237  120  121 1    
   238  120  124 1    
   239  120  241 1    
   240  121  122 am   BACKBONE|DICT|INTERRES
   241  121  123 2    
   242  122  242 1    
   243  122  243 1    
   244  124  125 1    
   245  124  244 1    
   246  124  245 1    
   247  125  126 1    
   248  126  246 1    
   249  126  247 1    
@<TRIPOS>SUBSTRUCTURE
     1 UNK         1 GROUP             0       ****    0 ROOT    
