@<TRIPOS>MOLECULE
3R540
247   249    1
SMALL
USER_CHARGES


@<TRIPOS>ATOM
      1 CA         -7.0052  -13.4573  -44.9029 C.3       0 UNK        -0.1800 
      2 C          -5.7285  -12.6677  -44.6495 C.2       0 UNK         0.5000 
      3 O          -5.7211  -11.7605  -43.8170 O.2       0 UNK        -0.5000 
      4 N          -4.6539  -13.0048  -45.3704 N.am      1 UNK        -0.5000 
      5 CA         -3.3144  -12.4339  -45.2118 C.3       1 UNK         0.1400 
      6 C6         -2.4253  -12.6698  -46.4635 C.3       23 UNK        -0.0398 
      7 S7         -2.4241  -14.3858  -47.1013 S.3       23 UNK        -0.2404 
      8 C8         -3.5750  -14.2003  -48.4983 C.3       23 UNK        -0.0205 
      9 C9         -4.0046  -15.5360  -49.0846 C.ar      23 UNK        -0.0193 
     10 C10        -3.6502  -15.8761  -50.3928 C.ar      23 UNK        -0.1150 
     11 C11        -4.1225  -17.0563  -50.9746 C.ar      23 UNK        -0.0193 
     12 C12        -4.9427  -17.9069  -50.2233 C.ar      23 UNK        -0.1150 
     13 C13        -5.2736  -17.5995  -48.8991 C.ar      23 UNK        -0.0193 
     14 C14        -4.8065  -16.4066  -48.3398 C.ar      23 UNK        -0.1150 
     15 C15        -6.1753  -18.5238  -48.0859 C.3       23 UNK        -0.0205 
     16 S16        -5.5583  -20.2373  -47.9736 S.3       23 UNK        -0.2404 
     17 C17        -4.0854  -20.0472  -46.9158 C.3       23 UNK        -0.0398 
     18 CA         -3.5190  -21.4192  -46.4616 C.3       11 UNK         0.1400 
     19 N          -2.0548  -21.4376  -46.3665 N.am      11 UNK        -0.5000 
     20 C          -1.3273  -22.5567  -46.2313 C.2       10 UNK         0.5000 
     21 O          -1.8213  -23.6838  -46.2573 O.2       10 UNK        -0.5000 
     22 CA          0.1883  -22.4038  -45.9970 C.3       10 UNK         0.1400 
     23 CB          0.9389  -22.1583  -47.3109 C.3       10 UNK        -0.1800 
     24 N           0.5141  -21.3398  -45.0504 N.am      10 UNK        -0.5000 
     25 C           0.1475  -21.3330  -43.7625 C.2       9 UNK         0.5000 
     26 O          -0.4575  -22.2538  -43.2202 O.2       9 UNK        -0.5000 
     27 CA          0.4570  -20.0625  -42.9576 C.3       9 UNK         0.1400 
     28 CB          1.8553  -20.1310  -42.3259 C.3       9 UNK        -0.1800 
     29 N           0.3286  -18.8548  -43.7719 N.am      9 UNK        -0.5000 
     30 C          -0.8380  -18.3826  -44.2303 C.2       8 UNK         0.5000 
     31 O          -1.9248  -18.9346  -44.0428 O.2       8 UNK        -0.5000 
     32 CA         -0.7657  -17.0806  -45.0435 C.3       8 UNK         0.1400 
     33 CB         -0.2149  -15.9281  -44.1885 C.3       8 UNK        -0.1800 
     34 N           0.0337  -17.1782  -46.2641 N.am      8 UNK        -0.5000 
     35 C          -0.1784  -18.0191  -47.2840 C.2       7 UNK         0.5000 
     36 O          -0.9556  -18.9691  -47.2436 O.2       7 UNK        -0.5000 
     37 CA          0.6303  -17.7627  -48.5628 C.3       7 UNK         0.1400 
     38 CB          0.3725  -16.3544  -49.1261 C.3       7 UNK        -0.1800 
     39 N           2.0484  -17.9355  -48.2832 N.am      7 UNK        -0.5000 
     40 C           2.7706  -19.0019  -48.6526 C.2       6 UNK         0.5000 
     41 O           2.3621  -19.8769  -49.4163 O.2       6 UNK        -0.5000 
     42 CA          4.1869  -19.1330  -48.0544 C.3       6 UNK         0.1400 
     43 CB          5.2433  -18.6782  -49.0729 C.3       6 UNK        -0.1800 
     44 N           4.3802  -18.3872  -46.8077 N.am      6 UNK        -0.5000 
     45 C           3.7014  -18.5870  -45.6691 C.2       5 UNK         0.5000 
     46 O           2.8462  -19.4603  -45.5230 O.2       5 UNK        -0.5000 
     47 CA          3.9726  -17.5946  -44.5216 C.3       5 UNK         0.1400 
     48 CB          5.0771  -18.1299  -43.5991 C.3       5 UNK        -0.1800 
     49 N           4.3264  -16.2399  -44.9643 N.am      5 UNK        -0.5000 
     50 C           3.5680  -15.4526  -45.7390 C.2       4 UNK         0.5000 
     51 O           2.4926  -15.8033  -46.2289 O.2       4 UNK        -0.5000 
     52 CA          4.1198  -14.0484  -46.0352 C.3       4 UNK         0.1400 
     53 CB          5.1459  -14.1227  -47.1763 C.3       4 UNK        -0.1800 
     54 N           3.0565  -13.1206  -46.4306 N.am      4 UNK        -0.5000 
     55 C           2.1245  -12.5470  -45.6559 C.2       3 UNK         0.5000 
     56 O           1.2292  -11.8552  -46.1456 O.2       3 UNK        -0.5000 
     57 CA          2.1764  -12.7041  -44.1221 C.3       3 UNK         0.1400 
     58 CB          3.1666  -11.7039  -43.4936 C.3       3 UNK        -0.1800 
     59 N           0.8387  -12.4476  -43.6015 N.am      3 UNK        -0.5000 
     60 C           0.3602  -12.8226  -42.4099 C.2       2 UNK         0.5000 
     61 O           1.0099  -13.4691  -41.5878 O.2       2 UNK        -0.5000 
     62 CA         -1.0830  -12.4015  -42.0718 C.3       2 UNK         0.1400 
     63 CB         -1.0735  -11.1764  -41.1436 C.3       2 UNK        -0.1800 
     64 N          -1.8644  -12.0782  -43.2693 N.am      2 UNK        -0.5000 
     65 C          -2.6444  -12.9499  -43.9210 C.2       1 UNK         0.5000 
     66 O          -2.8357  -14.1100  -43.5498 O.2       1 UNK        -0.5000 
     67 C          -4.1783  -21.9257  -45.1618 C.2       11 UNK         0.5000 
     68 O          -5.0778  -22.7644  -45.2290 O.2       11 UNK        -0.5000 
     69 N          -3.6723  -21.4697  -44.0051 N.am      12 UNK        -0.5000 
     70 CA         -4.1119  -21.9074  -42.6754 C.3       12 UNK         0.1400 
     71 CB         -3.4408  -21.0368  -41.6028 C.3       12 UNK        -0.1800 
     72 C          -3.8565  -23.4055  -42.4043 C.2       12 UNK         0.5000 
     73 O          -4.6871  -24.0598  -41.7736 O.2       12 UNK        -0.5000 
     74 N          -2.7361  -23.9288  -42.9196 N.am      13 UNK        -0.5000 
     75 CA         -2.3426  -25.3397  -42.8678 C.3       13 UNK         0.1400 
     76 CB         -0.8250  -25.4384  -43.0958 C.3       13 UNK        -0.1800 
     77 C          -3.0977  -26.2405  -43.8689 C.2       13 UNK         0.5000 
     78 O          -2.8539  -27.4478  -43.8831 O.2       13 UNK        -0.5000 
     79 N          -3.9847  -25.6532  -44.6857 N.am      14 UNK        -0.5000 
     80 CA         -4.8154  -26.2941  -45.7087 C.3       14 UNK         0.1400 
     81 CB         -5.7501  -27.3608  -45.0993 C.3       14 UNK        -0.1800 
     82 C          -4.0194  -26.8057  -46.9282 C.2       14 UNK         0.5000 
     83 O          -4.4879  -27.7023  -47.6312 O.2       14 UNK        -0.5000 
     84 N          -2.8654  -26.1809  -47.2070 N.am      15 UNK        -0.5000 
     85 CA         -2.1232  -26.3237  -48.4655 C.3       15 UNK         0.1400 
     86 CB         -0.6203  -26.1423  -48.1951 C.3       15 UNK        -0.1800 
     87 C          -2.6210  -25.3273  -49.5366 C.2       15 UNK         0.5000 
     88 O          -2.0777  -25.2987  -50.6432 O.2       15 UNK        -0.5000 
     89 N          -3.6331  -24.5181  -49.1806 N.am      16 UNK        -0.5000 
     90 CA         -4.3533  -23.5519  -50.0131 C.3       16 UNK         0.1400 
     91 CB         -5.1952  -24.2877  -51.0763 C.3       16 UNK        -0.1800 
     92 C          -3.4281  -22.4831  -50.6207 C.2       16 UNK         0.5000 
     93 O          -3.5820  -22.1412  -51.7919 O.2       16 UNK        -0.5000 
     94 N          -2.4603  -22.0072  -49.8209 N.am      17 UNK        -0.5000 
     95 CA         -1.4134  -21.0520  -50.2000 C.3       17 UNK         0.1400 
     96 CB         -2.0194  -19.6722  -50.5019 C.3       17 UNK        -0.1800 
     97 C          -0.5458  -21.5845  -51.3549 C.2       17 UNK         0.5000 
     98 O          -0.4132  -20.9226  -52.3853 O.2       17 UNK        -0.5000 
     99 N          -0.0289  -22.8087  -51.1685 N.am      18 UNK        -0.5000 
    100 CA         0.7823  -23.5740  -52.1202 C.3       18 UNK         0.1400 
    101 CB         2.1728  -22.9256  -52.2851 C.3       18 UNK        -0.1800 
    102 C          0.0489  -23.8016  -53.4589 C.2       18 UNK         0.5000 
    103 O          0.6141  -23.5575  -54.5265 O.2       18 UNK        -0.5000 
    104 N         -1.2120  -24.2488  -53.3554 N.am      19 UNK        -0.5000 
    105 CA        -2.1664  -24.4584  -54.4481 C.3       19 UNK         0.1400 
    106 CB        -1.7163  -25.6221  -55.3565 C.3       19 UNK        -0.1800 
    107 C         -2.4736  -23.1581  -55.2238 C.2       19 UNK         0.5000 
    108 O         -2.3274  -23.1094  -56.4468 O.2       19 UNK        -0.5000 
    109 N         -2.9138  -22.1366  -54.4776 N.am      20 UNK        -0.5000 
    110 CA        -3.3720  -20.8215  -54.9249 C.3       20 UNK         0.1400 
    111 CB        -4.6754  -20.9458  -55.7407 C.3       20 UNK        -0.1800 
    112 C         -2.2832  -19.9984  -55.6389 C.2       20 UNK         0.5000 
    113 O         -2.5189  -19.4696  -56.7283 O.2       20 UNK        -0.5000 
    114 N         -1.1160  -19.8580  -54.9927 N.am      21 UNK        -0.5000 
    115 CA         0.0221  -19.0705  -55.4858 C.3       21 UNK         0.1400 
    116 CB         1.2320  -19.2928  -54.5661 C.3       21 UNK        -0.1800 
    117 C         -0.2665  -17.5611  -55.6435 C.2       21 UNK         0.5000 
    118 O          0.4578  -16.8825  -56.3729 O.2       21 UNK        -0.5000 
    119 N         -1.3234  -17.0684  -54.9833 N.am      22 UNK        -0.5000 
    120 CA        -1.8797  -15.7188  -55.1632 C.3       22 UNK         0.1400 
    121 C         -2.6323  -15.4969  -56.5118 C.2       22 UNK         0.5000 
    122 N         -2.9265  -16.5282  -57.2973 N.am      22 UNK        -0.7600 
    123 O         -2.9423  -14.3605  -56.8590 O.2       22 UNK        -0.5000 
    124 C124       -2.7232  -15.2775  -53.9360 C.3       23 UNK        -0.0398 
    125 S125       -4.2457  -16.2599  -53.6643 S.3       23 UNK        -0.2404 
    126 C126       -3.7151  -17.4470  -52.3917 C.3       23 UNK        -0.0205 
    127 H127       -7.3233  -13.9589  -43.9890 H         1 UNK         0.0600 
    128 H128       -6.8674  -14.2141  -45.6758 H         1 UNK         0.0600 
    129 H129       -7.8039  -12.7877  -45.2218 H         1 UNK         0.0600 
    130 H130       -4.7028  -13.7954  -45.9955 H         1 UNK         0.3000 
    131 H131       -3.4339  -11.3534  -45.1041 H         1 UNK         0.0600 
    132 H132       -2.7522  -12.0013  -47.2609 H         1 UNK         0.0800 
    133 H133       -1.3929  -12.3805  -46.2643 H         1 UNK         0.0800 
    134 H134       -3.1031  -13.5786  -49.2608 H         1 UNK         0.0800 
    135 H135       -4.4667  -13.6617  -48.1755 H         1 UNK         0.0800 
    136 H136       -3.0228  -15.2092  -50.9644 H         1 UNK         0.1150 
    137 H137       -5.3092  -18.8254  -50.6600 H         1 UNK         0.1150 
    138 H138       -5.0789  -16.1435  -47.3276 H         1 UNK         0.1150 
    139 H139       -6.3251  -18.1356  -47.0773 H         1 UNK         0.0800 
    140 H140       -7.1602  -18.5411  -48.5542 H         1 UNK         0.0800 
    141 H141       -4.3040  -19.3935  -46.0692 H         1 UNK         0.0800 
    142 H142       -3.3557  -19.5125  -47.5185 H         1 UNK         0.0800 
    143 H143       -3.7679  -22.1512  -47.2316 H         1 UNK         0.0600 
    144 H144       -1.5858  -20.5346  -46.3930 H         1 UNK         0.3000 
    145 H145        0.5464  -23.3461  -45.5777 H         1 UNK         0.0600 
    146 H146        2.0162  -22.2440  -47.1671 H         1 UNK         0.0600 
    147 H147        0.6545  -22.8782  -48.0784 H         1 UNK         0.0600 
    148 H148        0.7415  -21.1591  -47.6947 H         1 UNK         0.0600 
    149 H149        1.0559  -20.5568  -45.3991 H         1 UNK         0.3000 
    150 H150       -0.2712  -19.9960  -42.1468 H         1 UNK         0.0600 
    151 H151        1.9171  -20.9604  -41.6203 H         1 UNK         0.0600 
    152 H152        2.0891  -19.2192  -41.7762 H         1 UNK         0.0600 
    153 H153        2.6335  -20.2859  -43.0718 H         1 UNK         0.0600 
    154 H154        1.1815  -18.3907  -44.0416 H         1 UNK         0.3000 
    155 H155       -1.7856  -16.8264  -45.3385 H         1 UNK         0.0600 
    156 H156        0.8355  -16.0693  -43.9334 H         1 UNK         0.0600 
    157 H157       -0.7683  -15.8332  -43.2537 H         1 UNK         0.0600 
    158 H158       -0.3015  -14.9784  -44.7163 H         1 UNK         0.0600 
    159 H159        0.7710  -16.4857  -46.3622 H         1 UNK         0.3000 
    160 H160        0.3023  -18.4841  -49.3100 H         1 UNK         0.0600 
    161 H161        0.8801  -16.2176  -50.0809 H         1 UNK         0.0600 
    162 H162        0.7178  -15.5705  -48.4509 H         1 UNK         0.0600 
    163 H163       -0.6928  -16.1941  -49.2983 H         1 UNK         0.0600 
    164 H164        2.4527  -17.2785  -47.6257 H         1 UNK         0.3000 
    165 H165        4.3493  -20.1906  -47.8368 H         1 UNK         0.0600 
    166 H166        6.2528  -18.8475  -48.6978 H         1 UNK         0.0600 
    167 H167        5.1487  -19.2320  -50.0080 H         1 UNK         0.0600 
    168 H168        5.1441  -17.6176  -49.3078 H         1 UNK         0.0600 
    169 H169        5.0560  -17.6383  -46.8319 H         1 UNK         0.3000 
    170 H170        3.0542  -17.5153  -43.9377 H         1 UNK         0.0600 
    171 H171        4.8402  -19.1328  -43.2418 H         1 UNK         0.0600 
    172 H172        6.0383  -18.1840  -44.1118 H         1 UNK         0.0600 
    173 H173        5.1995  -17.4957  -42.7209 H         1 UNK         0.0600 
    174 H174        5.2055  -15.8808  -44.6196 H         1 UNK         0.3000 
    175 H175        4.6230  -13.6731  -45.1439 H         1 UNK         0.0600 
    176 H176        4.7017  -14.5111  -48.0941 H         1 UNK         0.0600 
    177 H177        5.5616  -13.1391  -47.3966 H         1 UNK         0.0600 
    178 H178        5.9816  -14.7734  -46.9159 H         1 UNK         0.0600 
    179 H179        2.9643  -12.9914  -47.4265 H         1 UNK         0.3000 
    180 H180        2.4576  -13.7240  -43.8598 H         1 UNK         0.0600 
    181 H181        2.8647  -10.6732  -43.6837 H         1 UNK         0.0600 
    182 H182        4.1732  -11.8241  -43.8926 H         1 UNK         0.0600 
    183 H183        3.2320  -11.8368  -42.4136 H         1 UNK         0.0600 
    184 H184        0.2407  -11.9558  -44.2523 H         1 UNK         0.3000 
    185 H185       -1.5501  -13.2285  -41.5327 H         1 UNK         0.0600 
    186 H186       -0.5213  -11.3853  -40.2263 H         1 UNK         0.0600 
    187 H187       -0.6058  -10.3130  -41.6186 H         1 UNK         0.0600 
    188 H188       -2.0859  -10.8938  -40.8545 H         1 UNK         0.0600 
    189 H189       -1.7843  -11.1319  -43.6137 H         1 UNK         0.3000 
    190 H190       -2.9377  -20.7699  -44.0345 H         1 UNK         0.3000 
    191 H191       -5.1898  -21.7432  -42.6167 H         1 UNK         0.0600 
    192 H192       -3.8043  -21.2957  -40.6076 H         1 UNK         0.0600 
    193 H193       -3.6522  -19.9792  -41.7624 H         1 UNK         0.0600 
    194 H194       -2.3588  -21.1651  -41.5991 H         1 UNK         0.0600 
    195 H195       -2.0623  -23.2971  -43.3435 H         1 UNK         0.3000 
    196 H196       -2.5598  -25.7204  -41.8679 H         1 UNK         0.0600 
    197 H197       -0.4788  -26.4698  -43.0198 H         1 UNK         0.0600 
    198 H198       -0.2762  -24.8602  -42.3525 H         1 UNK         0.0600 
    199 H199       -0.5448  -25.0697  -44.0830 H         1 UNK         0.0600 
    200 H200       -4.1008  -24.6501  -44.6067 H         1 UNK         0.3000 
    201 H201       -5.4548  -25.4994  -46.0953 H         1 UNK         0.0600 
    202 H202       -6.2921  -26.9657  -44.2400 H         1 UNK         0.0600 
    203 H203       -5.2032  -28.2461  -44.7748 H         1 UNK         0.0600 
    204 H204       -6.4938  -27.6889  -45.8264 H         1 UNK         0.0600 
    205 H205       -2.5482  -25.4328  -46.5947 H         1 UNK         0.3000 
    206 H206       -2.2710  -27.3288  -48.8652 H         1 UNK         0.0600 
    207 H207       -0.2737  -26.8299  -47.4235 H         1 UNK         0.0600 
    208 H208       -0.0357  -26.3429  -49.0937 H         1 UNK         0.0600 
    209 H209       -0.3817  -25.1302  -47.8723 H         1 UNK         0.0600 
    210 H210       -3.9720  -24.6152  -48.2354 H         1 UNK         0.3000 
    211 H211       -5.0426  -23.0218  -49.3547 H         1 UNK         0.0600 
    212 H212       -4.5679  -24.8082  -51.8006 H         1 UNK         0.0600 
    213 H213       -5.8250  -23.5902  -51.6299 H         1 UNK         0.0600 
    214 H214       -5.8551  -25.0231  -50.6161 H         1 UNK         0.0600 
    215 H215       -2.4042  -22.3749  -48.8835 H         1 UNK         0.3000 
    216 H216       -0.7532  -20.9342  -49.3435 H         1 UNK         0.0600 
    217 H217       -1.2654  -18.9657  -50.8473 H         1 UNK         0.0600 
    218 H218       -2.4838  -19.2433  -49.6163 H         1 UNK         0.0600 
    219 H219       -2.7750  -19.7405  -51.2804 H         1 UNK         0.0600 
    220 H220       -0.2697  -23.2982  -50.3200 H         1 UNK         0.3000 
    221 H221        0.9285  -24.5615  -51.6798 H         1 UNK         0.0600 
    222 H222        2.1086  -21.9390  -52.7441 H         1 UNK         0.0600 
    223 H223        2.6699  -22.8116  -51.3217 H         1 UNK         0.0600 
    224 H224        2.8187  -23.5388  -52.9142 H         1 UNK         0.0600 
    225 H225       -1.5690  -24.4358  -52.4229 H         1 UNK         0.3000 
    226 H226       -3.1031  -24.7598  -53.9769 H         1 UNK         0.0600 
    227 H227       -2.4795  -25.8508  -56.1012 H         1 UNK         0.0600 
    228 H228       -0.7967  -25.3895  -55.8939 H         1 UNK         0.0600 
    229 H229       -1.5461  -26.5298  -54.7776 H         1 UNK         0.0600 
    230 H230       -2.9964  -22.2766  -53.4711 H         1 UNK         0.3000 
    231 H231       -3.6141  -20.2721  -54.0153 H         1 UNK         0.0600 
    232 H232       -5.4374  -21.4908  -55.1836 H         1 UNK         0.0600 
    233 H233       -4.5152  -21.4640  -56.6866 H         1 UNK         0.0600 
    234 H234       -5.0856  -19.9620  -55.9720 H         1 UNK         0.0600 
    235 H235       -0.9790  -20.3248  -54.0977 H         1 UNK         0.3000 
    236 H236        0.2771  -19.4526  -56.4762 H         1 UNK         0.0600 
    237 H237        1.4882  -20.3505  -54.5049 H         1 UNK         0.0600 
    238 H238        2.1115  -18.7667  -54.9393 H         1 UNK         0.0600 
    239 H239        1.0389  -18.9338  -53.5544 H         1 UNK         0.0600 
    240 H240       -1.8713  -17.7047  -54.4268 H         1 UNK         0.3000 
    241 H241       -1.0275  -15.0377  -55.2050 H         1 UNK         0.0600 
    242 H242       -3.4076  -16.3619  -58.1668 H         1 UNK         0.3800 
    243 H243       -2.6924  -17.4792  -57.0332 H         1 UNK         0.3800 
    244 H244       -2.1005  -15.3088  -53.0422 H         1 UNK         0.0800 
    245 H245       -3.0165  -14.2319  -54.0433 H         1 UNK         0.0800 
    246 H246       -2.6343  -17.5818  -52.4303 H         1 UNK         0.0800 
    247 H247       -4.1538  -18.4111  -52.6491 H         1 UNK         0.0800 
@<TRIPOS>BOND
     1    1    2 1    
     2    1  127 1    
     3    1  128 1    
     4    1  129 1    
     5    2    3 2    
     6    2    4 am   BACKBONE|DICT|INTERRES
     7    4    5 1    
     8    4  130 1    
     9    5    6 1    
    10    5   65 1    
    11    5  131 1    
    12    6    7 1    
    13    6  132 1    
    14    6  133 1    
    15    7    8 1    
    16    8    9 1    
    17    8  134 1    
    18    8  135 1    
    19    9   10 ar   
    20    9   14 ar   
    21   10   11 ar   
    22   10  136 1    
    23   11   12 ar   
    24   11  126 1    
    25   12   13 ar   
    26   12  137 1    
    27   13   14 ar   
    28   13   15 1    
    29   14  138 1    
    30   15   16 1    
    31   15  139 1    
    32   15  140 1    
    33   16   17 1    
    34   17   18 1    
    35   17  141 1    
    36   17  142 1    
    37   18   19 1    
    38   18   67 1    
    39   18  143 1    
    40   19   20 am   BACKBONE|DICT|INTERRES
    41   19  144 1    
    42   20   21 2    
    43   20   22 1    
    44   22   23 1    
    45   22   24 1    
    46   22  145 1    
    47   23  146 1    
    48   23  147 1    
    49   23  148 1    
    50   24   25 am   BACKBONE|DICT|INTERRES
    51   24  149 1    
    52   25   26 2    
    53   25   27 1    
    54   27   28 1    
    55   27   29 1    
    56   27  150 1    
    57   28  151 1    
    58   28  152 1    
    59   28  153 1    
    60   29   30 am   BACKBONE|DICT|INTERRES
    61   29  154 1    
    62   30   31 2    
    63   30   32 1    
    64   32   33 1    
    65   32   34 1    
    66   32  155 1    
    67   33  156 1    
    68   33  157 1    
    69   33  158 1    
    70   34   35 am   BACKBONE|DICT|INTERRES
    71   34  159 1    
    72   35   36 2    
    73   35   37 1    
    74   37   38 1    
    75   37   39 1    
    76   37  160 1    
    77   38  161 1    
    78   38  162 1    
    79   38  163 1    
    80   39   40 am   BACKBONE|DICT|INTERRES
    81   39  164 1    
    82   40   41 2    
    83   40   42 1    
    84   42   43 1    
    85   42   44 1    
    86   42  165 1    
    87   43  166 1    
    88   43  167 1    
    89   43  168 1    
    90   44   45 am   BACKBONE|DICT|INTERRES
    91   44  169 1    
    92   45   46 2    
    93   45   47 1    
    94   47   48 1    
    95   47   49 1    
    96   47  170 1    
    97   48  171 1    
    98   48  172 1    
    99   48  173 1    
   100   49   50 am   BACKBONE|DICT|INTERRES
   101   49  174 1    
   102   50   51 2    
   103   50   52 1    
   104   52   53 1    
   105   52   54 1    
   106   52  175 1    
   107   53  176 1    
   108   53  177 1    
   109   53  178 1    
   110   54   55 am   BACKBONE|DICT|INTERRES
   111   54  179 1    
   112   55   56 2    
   113   55   57 1    
   114   57   58 1    
   115   57   59 1    
   116   57  180 1    
   117   58  181 1    
   118   58  182 1    
   119   58  183 1    
   120   59   60 am   BACKBONE|DICT|INTERRES
   121   59  184 1    
   122   60   61 2    
   123   60   62 1    
   124   62   63 1    
   125   62   64 1    
   126   62  185 1    
   127   63  186 1    
   128   63  187 1    
   129   63  188 1    
   130   64   65 am   BACKBONE|DICT|INTERRES
   131   64  189 1    
   132   65   66 2    
   133   67   68 2    
   134   67   69 am   BACKBONE|DICT|INTERRES
   135   69   70 1    
   136   69  190 1    
   137   70   71 1    
   138   70   72 1    
   139   70  191 1    
   140   71  192 1    
   141   71  193 1    
   142   71  194 1    
   143   72   73 2    
   144   72   74 am   BACKBONE|DICT|INTERRES
   145   74   75 1    
   146   74  195 1    
   147   75   76 1    
   148   75   77 1    
   149   75  196 1    
   150   76  197 1    
   151   76  198 1    
   152   76  199 1    
   153   77   78 2    
   154   77   79 am   BACKBONE|DICT|INTERRES
   155   79   80 1    
   156   79  200 1    
   157   80   81 1    
   158   80   82 1    
   159   80  201 1    
   160   81  202 1    
   161   81  203 1    
   162   81  204 1    
   163   82   83 2    
   164   82   84 am   BACKBONE|DICT|INTERRES
   165   84   85 1    
   166   84  205 1    
   167   85   86 1    
   168   85   87 1    
   169   85  206 1    
   170   86  207 1    
   171   86  208 1    
   172   86  209 1    
   173   87   88 2    
   174   87   89 am   BACKBONE|DICT|INTERRES
   175   89   90 1    
   176   89  210 1    
   177   90   91 1    
   178   90   92 1    
   179   90  211 1    
   180   91  212 1    
   181   91  213 1    
   182   91  214 1    
   183   92   93 2    
   184   92   94 am   BACKBONE|DICT|INTERRES
   185   94   95 1    
   186   94  215 1    
   187   95   96 1    
   188   95   97 1    
   189   95  216 1    
   190   96  217 1    
   191   96  218 1    
   192   96  219 1    
   193   97   98 2    
   194   97   99 am   BACKBONE|DICT|INTERRES
   195   99  100 1    
   196   99  220 1    
   197  100  101 1    
   198  100  102 1    
   199  100  221 1    
   200  101  222 1    
   201  101  223 1    
   202  101  224 1    
   203  102  103 2    
   204  102  104 am   BACKBONE|DICT|INTERRES
   205  104  105 1    
   206  104  225 1    
   207  105  106 1    
   208  105  107 1    
   209  105  226 1    
   210  106  227 1    
   211  106  228 1    
   212  106  229 1    
   213  107  108 2    
   214  107  109 am   BACKBONE|DICT|INTERRES
   215  109  110 1    
   216  109  230 1    
   217  110  111 1    
   218  110  112 1    
   219  110  231 1    
   220  111  232 1    
   221  111  233 1    
   222  111  234 1    
   223  112  113 2    
   224  112  114 am   BACKBONE|DICT|INTERRES
   225  114  115 1    
   226  114  235 1    
   227  115  116 1    
   228  115  117 1    
   229  115  236 1    
   230  116  237 1    
   231  116  238 1    
   232  116  239 1    
   233  117  118 2    
   234  117  119 am   BACKBONE|DICT|INTERRES
   235  119  120 1    
   236  119  240 1    
   237  120  121 1    
   238  120  124 1    
   239  120  241 1    
   240  121  122 am   BACKBONE|DICT|INTERRES
   241  121  123 2    
   242  122  242 1    
   243  122  243 1    
   244  124  125 1    
   245  124  244 1    
   246  124  245 1    
   247  125  126 1    
   248  126  246 1    
   249  126  247 1    
@<TRIPOS>SUBSTRUCTURE
     1 UNK         1 GROUP             0       ****    0 ROOT    
