@<TRIPOS>MOLECULE
3R540
247   249    1
SMALL
USER_CHARGES


@<TRIPOS>ATOM
      1 CA         -3.7916  -15.0421  -50.8641 C.3       0 UNK        -0.1800 
      2 C          -3.0010  -14.8092  -49.5874 C.2       0 UNK         0.5000 
      3 O          -2.2636  -13.8299  -49.4812 O.2       0 UNK        -0.5000 
      4 N          -3.1647  -15.7028  -48.6061 N.am      1 UNK        -0.5000 
      5 CA         -2.4317  -15.7184  -47.3314 C.3       1 UNK         0.1400 
      6 C6         -2.5540  -17.0834  -46.6140 C.3       23 UNK        -0.0398 
      7 S7         -1.9388  -18.4377  -47.6683 S.3       23 UNK        -0.2404 
      8 C8         -0.1874  -18.4444  -47.1847 C.3       23 UNK        -0.0205 
      9 C9          0.6690  -19.1606  -48.2144 C.ar      23 UNK        -0.0193 
     10 C10         1.2014  -18.4542  -49.2941 C.ar      23 UNK        -0.1150 
     11 C11         1.9832  -19.1039  -50.2522 C.ar      23 UNK        -0.0193 
     12 C12         2.2600  -20.4668  -50.1037 C.ar      23 UNK        -0.1150 
     13 C13         1.7254  -21.1899  -49.0319 C.ar      23 UNK        -0.0193 
     14 C14         0.9283  -20.5267  -48.0933 C.ar      23 UNK        -0.1150 
     15 C15         1.9114  -22.7010  -48.9642 C.3       23 UNK        -0.0205 
     16 S16         3.1481  -23.2758  -47.7476 S.3       23 UNK        -0.2404 
     17 C17         2.3487  -23.0636  -46.1164 C.3       23 UNK        -0.0398 
     18 CA          1.3253  -24.1701  -45.7295 C.3       11 UNK         0.1400 
     19 N           1.1632  -24.2881  -44.2787 N.am      11 UNK        -0.5000 
     20 C           0.5549  -25.3126  -43.6604 C.2       10 UNK         0.5000 
     21 O           0.1892  -26.3382  -44.2330 O.2       10 UNK        -0.5000 
     22 CA          0.2670  -25.1452  -42.1559 C.3       10 UNK         0.1400 
     23 CB          1.4492  -25.6588  -41.3206 C.3       10 UNK        -0.1800 
     24 N          -0.0180  -23.7584  -41.7829 N.am      10 UNK        -0.5000 
     25 C          -1.0820  -23.0533  -42.1959 C.2       9 UNK         0.5000 
     26 O          -1.9884  -23.5230  -42.8829 O.2       9 UNK        -0.5000 
     27 CA         -1.1042  -21.5567  -41.8254 C.3       9 UNK         0.1400 
     28 CB         -1.8604  -21.3396  -40.5069 C.3       9 UNK        -0.1800 
     29 N           0.2376  -20.9749  -41.7185 N.am      9 UNK        -0.5000 
     30 C           1.1049  -20.8683  -42.7342 C.2       8 UNK         0.5000 
     31 O           0.8498  -21.2167  -43.8902 O.2       8 UNK        -0.5000 
     32 CA          2.5229  -20.4059  -42.3558 C.3       8 UNK         0.1400 
     33 CB          3.3602  -21.6153  -41.9081 C.3       8 UNK        -0.1800 
     34 N           3.2277  -19.7356  -43.4473 N.am      8 UNK        -0.5000 
     35 C           2.9419  -18.5108  -43.9029 C.2       7 UNK         0.5000 
     36 O           1.9933  -17.8323  -43.5015 O.2       7 UNK        -0.5000 
     37 CA          3.8953  -17.9525  -44.9757 C.3       7 UNK         0.1400 
     38 CB          3.4144  -18.3028  -46.3879 C.3       7 UNK        -0.1800 
     39 N           4.0125  -16.5004  -44.8623 N.am      7 UNK        -0.5000 
     40 C           4.8357  -15.8739  -44.0100 C.2       6 UNK         0.5000 
     41 O           5.6472  -16.4602  -43.2920 O.2       6 UNK        -0.5000 
     42 CA          4.7494  -14.3351  -43.9437 C.3       6 UNK         0.1400 
     43 CB          5.8221  -13.6970  -44.8398 C.3       6 UNK        -0.1800 
     44 N           3.4382  -13.8157  -44.3320 N.am      6 UNK        -0.5000 
     45 C           2.3161  -13.9528  -43.6126 C.2       5 UNK         0.5000 
     46 O           2.2912  -14.4411  -42.4823 O.2       5 UNK        -0.5000 
     47 CA          1.0011  -13.4631  -44.2526 C.3       5 UNK         0.1400 
     48 CB          0.4519  -12.2352  -43.5093 C.3       5 UNK        -0.1800 
     49 N           1.0986  -13.1346  -45.6776 N.am      5 UNK        -0.5000 
     50 C           1.2786  -14.0058  -46.6776 C.2       4 UNK         0.5000 
     51 O           1.4983  -15.2038  -46.4971 O.2       4 UNK        -0.5000 
     52 CA          1.2000  -13.4285  -48.1083 C.3       4 UNK         0.1400 
     53 CB          1.2115  -14.5188  -49.1948 C.3       4 UNK        -0.1800 
     54 N           0.0164  -12.5853  -48.2987 N.am      4 UNK        -0.5000 
     55 C          -0.1050  -11.3058  -47.9179 C.2       3 UNK         0.5000 
     56 O           0.7864  -10.6816  -47.3416 O.2       3 UNK        -0.5000 
     57 CA         -1.4641  -10.6359  -48.1703 C.3       3 UNK         0.1400 
     58 CB         -1.6684  -10.3498  -49.6667 C.3       3 UNK        -0.1800 
     59 N          -2.5437  -11.4920  -47.6839 N.am      3 UNK        -0.5000 
     60 C          -3.1035  -11.4025  -46.4685 C.2       2 UNK         0.5000 
     61 O          -2.8308  -10.5231  -45.6509 O.2       2 UNK        -0.5000 
     62 CA         -4.1339  -12.4886  -46.0939 C.3       2 UNK         0.1400 
     63 CB         -5.5501  -12.0531  -46.4994 C.3       2 UNK        -0.1800 
     64 N          -3.8316  -13.7774  -46.7175 N.am      2 UNK        -0.5000 
     65 C          -2.7847  -14.5472  -46.3885 C.2       1 UNK         0.5000 
     66 O          -2.0816  -14.3391  -45.4012 O.2       1 UNK        -0.5000 
     67 C          -0.0544  -23.9278  -46.3686 C.2       11 UNK         0.5000 
     68 O          -0.4506  -24.6706  -47.2675 O.2       11 UNK        -0.5000 
     69 N          -0.7646  -22.9048  -45.8674 N.am      12 UNK        -0.5000 
     70 CA         -2.0472  -22.4270  -46.3868 C.3       12 UNK         0.1400 
     71 CB         -2.5316  -21.2345  -45.5493 C.3       12 UNK        -0.1800 
     72 C          -3.1307  -23.5138  -46.4513 C.2       12 UNK         0.5000 
     73 O          -3.7706  -23.6682  -47.4917 O.2       12 UNK        -0.5000 
     74 N          -3.2839  -24.2634  -45.3524 N.am      13 UNK        -0.5000 
     75 CA         -4.2471  -25.3543  -45.2160 C.3       13 UNK         0.1400 
     76 CB         -4.3051  -25.7878  -43.7433 C.3       13 UNK        -0.1800 
     77 C          -3.9397  -26.5628  -46.1191 C.2       13 UNK         0.5000 
     78 O          -4.8723  -27.2259  -46.5741 O.2       13 UNK        -0.5000 
     79 N          -2.6495  -26.8323  -46.3579 N.am      14 UNK        -0.5000 
     80 CA         -2.1870  -27.9388  -47.1926 C.3       14 UNK         0.1400 
     81 CB         -0.7411  -28.2960  -46.8147 C.3       14 UNK        -0.1800 
     82 C          -2.2933  -27.6159  -48.6916 C.2       14 UNK         0.5000 
     83 O          -2.7808  -28.4454  -49.4606 O.2       14 UNK        -0.5000 
     84 N          -1.8198  -26.4259  -49.0809 N.am      15 UNK        -0.5000 
     85 CA         -1.7150  -26.0040  -50.4773 C.3       15 UNK         0.1400 
     86 CB         -0.5912  -24.9629  -50.5868 C.3       15 UNK        -0.1800 
     87 C          -3.0178  -25.4207  -51.0511 C.2       15 UNK         0.5000 
     88 O          -3.1561  -25.3769  -52.2739 O.2       15 UNK        -0.5000 
     89 N          -3.9136  -24.9356  -50.1755 N.am      16 UNK        -0.5000 
     90 CA         -5.0765  -24.0908  -50.4879 C.3       16 UNK         0.1400 
     91 CB         -6.1169  -24.8402  -51.3457 C.3       16 UNK        -0.1800 
     92 C          -4.6454  -22.7381  -51.0975 C.2       16 UNK         0.5000 
     93 O          -5.3140  -22.1994  -51.9811 O.2       16 UNK        -0.5000 
     94 N          -3.5120  -22.2160  -50.6093 N.am      17 UNK        -0.5000 
     95 CA         -2.8043  -21.0494  -51.1394 C.3       17 UNK         0.1400 
     96 CB         -1.4704  -20.9182  -50.4031 C.3       17 UNK        -0.1800 
     97 C          -3.5977  -19.7314  -51.0774 C.2       17 UNK         0.5000 
     98 O          -3.3717  -18.8455  -51.9043 O.2       17 UNK        -0.5000 
     99 N          -4.5336  -19.6380  -50.1242 N.am      18 UNK        -0.5000 
    100 CA        -5.4706  -18.5254  -49.9931 C.3       18 UNK         0.1400 
    101 CB        -6.1423  -18.5876  -48.6139 C.3       18 UNK        -0.1800 
    102 C         -6.5192  -18.4994  -51.1208 C.2       18 UNK         0.5000 
    103 O         -6.8826  -17.4169  -51.5797 O.2       18 UNK        -0.5000 
    104 N         -6.9589  -19.6844  -51.5682 N.am      19 UNK        -0.5000 
    105 CA        -7.8833  -19.8526  -52.6911 C.3       19 UNK         0.1400 
    106 CB        -8.5974  -21.2079  -52.5708 C.3       19 UNK        -0.1800 
    107 C         -7.1591  -19.7327  -54.0433 C.2       19 UNK         0.5000 
    108 O         -7.7285  -19.1939  -54.9927 O.2       19 UNK        -0.5000 
    109 N         -5.9057  -20.2069  -54.0965 N.am      20 UNK        -0.5000 
    110 CA        -5.0159  -20.1040  -55.2568 C.3       20 UNK         0.1400 
    111 CB        -3.8405  -21.0749  -55.0705 C.3       20 UNK        -0.1800 
    112 C         -4.4908  -18.6745  -55.5118 C.2       20 UNK         0.5000 
    113 O         -3.9653  -18.4178  -56.5955 O.2       20 UNK        -0.5000 
    114 N         -4.6380  -17.7848  -54.5181 N.am      21 UNK        -0.5000 
    115 CA        -4.2117  -16.3836  -54.4964 C.3       21 UNK         0.1400 
    116 CB        -4.9520  -15.5567  -55.5686 C.3       21 UNK        -0.1800 
    117 C         -2.6770  -16.2405  -54.5570 C.2       21 UNK         0.5000 
    118 O         -2.1505  -15.4913  -55.3815 O.2       21 UNK        -0.5000 
    119 N         -1.9890  -16.9755  -53.6732 N.am      22 UNK        -0.5000 
    120 CA        -0.5214  -16.9832  -53.5304 C.3       22 UNK         0.1400 
    121 C          0.1061  -15.6461  -53.0249 C.2       22 UNK         0.5000 
    122 N         -0.6577  -14.7327  -52.4390 N.am      22 UNK        -0.7600 
    123 O          1.3021  -15.4218  -53.1840 O.2       22 UNK        -0.5000 
    124 C124       -0.0791  -18.1855  -52.6587 C.3       23 UNK        -0.0398 
    125 S125        1.6149  -18.7847  -52.9927 S.3       23 UNK        -0.2404 
    126 C126        2.5021  -18.3382  -51.4612 C.3       23 UNK        -0.0205 
    127 H127       -3.6344  -14.2282  -51.5719 H         1 UNK         0.0600 
    128 H128       -4.8588  -15.1016  -50.6501 H         1 UNK         0.0600 
    129 H129       -3.4790  -15.9755  -51.3311 H         1 UNK         0.0600 
    130 H130       -3.7719  -16.4941  -48.7544 H         1 UNK         0.3000 
    131 H131       -1.3772  -15.5772  -47.5733 H         1 UNK         0.0600 
    132 H132       -3.5934  -17.2903  -46.3545 H         1 UNK         0.0800 
    133 H133       -1.9973  -17.0870  -45.6747 H         1 UNK         0.0800 
    134 H134        0.1628  -17.4178  -47.0768 H         1 UNK         0.0800 
    135 H135       -0.0741  -18.9099  -46.2044 H         1 UNK         0.0800 
    136 H136        0.9854  -17.4017  -49.3993 H         1 UNK         0.1150 
    137 H137        2.8532  -20.9723  -50.8527 H         1 UNK         0.1150 
    138 H138        0.4750  -21.0696  -47.2820 H         1 UNK         0.1150 
    139 H139        0.9495  -23.1693  -48.7839 H         1 UNK         0.0800 
    140 H140        2.2212  -23.0705  -49.9428 H         1 UNK         0.0800 
    141 H141        3.1677  -23.0840  -45.3964 H         1 UNK         0.0800 
    142 H142        1.9394  -22.0603  -46.0289 H         1 UNK         0.0800 
    143 H143        1.7022  -25.1275  -46.0963 H         1 UNK         0.0600 
    144 H144        1.3760  -23.4616  -43.7394 H         1 UNK         0.3000 
    145 H145       -0.6123  -25.7474  -41.9171 H         1 UNK         0.0600 
    146 H146        1.2275  -25.6144  -40.2541 H         1 UNK         0.0600 
    147 H147        1.6742  -26.6987  -41.5614 H         1 UNK         0.0600 
    148 H148        2.3540  -25.0767  -41.5008 H         1 UNK         0.0600 
    149 H149        0.6661  -23.2953  -41.2042 H         1 UNK         0.3000 
    150 H150       -1.6361  -21.0245  -42.6155 H         1 UNK         0.0600 
    151 H151       -1.9481  -20.2786  -40.2724 H         1 UNK         0.0600 
    152 H152       -1.3616  -21.8295  -39.6697 H         1 UNK         0.0600 
    153 H153       -2.8725  -21.7422  -40.5674 H         1 UNK         0.0600 
    154 H154        0.5238  -20.6780  -40.7965 H         1 UNK         0.3000 
    155 H155        2.4480  -19.7054  -41.5212 H         1 UNK         0.0600 
    156 H156        2.8975  -22.1267  -41.0631 H         1 UNK         0.0600 
    157 H157        4.3564  -21.3082  -41.5889 H         1 UNK         0.0600 
    158 H158        3.4766  -22.3455  -42.7102 H         1 UNK         0.0600 
    159 H159        4.0012  -20.2400  -43.8541 H         1 UNK         0.3000 
    160 H160        4.8796  -18.4045  -44.8345 H         1 UNK         0.0600 
    161 H161        2.4925  -17.7763  -46.6265 H         1 UNK         0.0600 
    162 H162        3.2274  -19.3725  -46.4926 H         1 UNK         0.0600 
    163 H163        4.1553  -18.0262  -47.1379 H         1 UNK         0.0600 
    164 H164        3.3189  -15.9579  -45.3623 H         1 UNK         0.3000 
    165 H165        4.9445  -14.0370  -42.9114 H         1 UNK         0.0600 
    166 H166        5.6707  -13.9484  -45.8904 H         1 UNK         0.0600 
    167 H167        5.8174  -12.6106  -44.7493 H         1 UNK         0.0600 
    168 H168        6.8189  -14.0408  -44.5605 H         1 UNK         0.0600 
    169 H169        3.3670  -13.3885  -45.2432 H         1 UNK         0.3000 
    170 H170        0.2815  -14.2768  -44.1460 H         1 UNK         0.0600 
    171 H171        0.3223  -12.4438  -42.4466 H         1 UNK         0.0600 
    172 H172        1.1217  -11.3792  -43.5985 H         1 UNK         0.0600 
    173 H173       -0.5227  -11.9428  -43.9020 H         1 UNK         0.0600 
    174 H174        0.9542  -12.1632  -45.9296 H         1 UNK         0.3000 
    175 H175        2.0936  -12.8174  -48.2498 H         1 UNK         0.0600 
    176 H176        0.3231  -15.1477  -49.1456 H         1 UNK         0.0600 
    177 H177        1.2503  -14.0784  -50.1908 H         1 UNK         0.0600 
    178 H178        2.0839  -15.1663  -49.0972 H         1 UNK         0.0600 
    179 H179       -0.7797  -13.0320  -48.7480 H         1 UNK         0.3000 
    180 H180       -1.4754   -9.6800  -47.6423 H         1 UNK         0.0600 
    181 H181       -1.6726  -11.2637  -50.2618 H         1 UNK         0.0600 
    182 H182       -0.8734   -9.7105  -50.0528 H         1 UNK         0.0600 
    183 H183       -2.6131   -9.8348  -49.8413 H         1 UNK         0.0600 
    184 H184       -2.7846  -12.2776  -48.2771 H         1 UNK         0.3000 
    185 H185       -4.1105  -12.6137  -45.0092 H         1 UNK         0.0600 
    186 H186       -6.2932  -12.7868  -46.1864 H         1 UNK         0.0600 
    187 H187       -5.8147  -11.1039  -46.0316 H         1 UNK         0.0600 
    188 H188       -5.6390  -11.9232  -47.5788 H         1 UNK         0.0600 
    189 H189       -4.3685  -14.0268  -47.5348 H         1 UNK         0.3000 
    190 H190       -0.3552  -22.3609  -45.1153 H         1 UNK         0.3000 
    191 H191       -1.8669  -22.0782  -47.4036 H         1 UNK         0.0600 
    192 H192       -3.3775  -20.7428  -46.0312 H         1 UNK         0.0600 
    193 H193       -1.7475  -20.4888  -45.4239 H         1 UNK         0.0600 
    194 H194       -2.8594  -21.5416  -44.5568 H         1 UNK         0.0600 
    195 H195       -2.7242  -24.0452  -44.5307 H         1 UNK         0.3000 
    196 H196       -5.2299  -24.9717  -45.4991 H         1 UNK         0.0600 
    197 H197       -5.0301  -26.5896  -43.5980 H         1 UNK         0.0600 
    198 H198       -4.6027  -24.9591  -43.1004 H         1 UNK         0.0600 
    199 H199       -3.3371  -26.1498  -43.3938 H         1 UNK         0.0600 
    200 H200       -1.9405  -26.2250  -45.9699 H         1 UNK         0.3000 
    201 H201       -2.8084  -28.8147  -46.9934 H         1 UNK         0.0600 
    202 H202       -0.6734  -28.6060  -45.7718 H         1 UNK         0.0600 
    203 H203       -0.0645  -27.4521  -46.9550 H         1 UNK         0.0600 
    204 H204       -0.3695  -29.1209  -47.4239 H         1 UNK         0.0600 
    205 H205       -1.4119  -25.8046  -48.3848 H         1 UNK         0.3000 
    206 H206       -1.4386  -26.8649  -51.0901 H         1 UNK         0.0600 
    207 H207        0.3559  -25.3616  -50.2227 H         1 UNK         0.0600 
    208 H208       -0.4392  -24.6522  -51.6212 H         1 UNK         0.0600 
    209 H209       -0.8259  -24.0708  -50.0068 H         1 UNK         0.0600 
    210 H210       -3.6918  -25.0003  -49.1886 H         1 UNK         0.3000 
    211 H211       -5.5506  -23.8569  -49.5341 H         1 UNK         0.0600 
    212 H212       -5.7581  -25.0228  -52.3587 H         1 UNK         0.0600 
    213 H213       -7.0381  -24.2625  -51.4291 H         1 UNK         0.0600 
    214 H214       -6.3754  -25.8012  -50.9014 H         1 UNK         0.0600 
    215 H215       -3.0564  -22.7175  -49.8611 H         1 UNK         0.3000 
    216 H216       -2.5855  -21.2471  -52.1882 H         1 UNK         0.0600 
    217 H217       -0.9391  -20.0145  -50.6936 H         1 UNK         0.0600 
    218 H218       -0.8127  -21.7592  -50.6191 H         1 UNK         0.0600 
    219 H219       -1.6172  -20.8702  -49.3263 H         1 UNK         0.0600 
    220 H220       -4.6391  -20.4081  -49.4807 H         1 UNK         0.3000 
    221 H221       -4.9025  -17.5971  -50.0512 H         1 UNK         0.0600 
    222 H222       -6.8217  -17.7461  -48.4723 H         1 UNK         0.0600 
    223 H223       -6.7222  -19.5029  -48.4889 H         1 UNK         0.0600 
    224 H224       -5.4035  -18.5476  -47.8131 H         1 UNK         0.0600 
    225 H225       -6.5558  -20.5315  -51.1906 H         1 UNK         0.3000 
    226 H226       -8.6416  -19.0678  -52.6452 H         1 UNK         0.0600 
    227 H227       -9.1334  -21.2888  -51.6252 H         1 UNK         0.0600 
    228 H228       -9.3284  -21.3335  -53.3705 H         1 UNK         0.0600 
    229 H229       -7.8995  -22.0431  -52.6334 H         1 UNK         0.0600 
    230 H230       -5.5501  -20.7117  -53.2908 H         1 UNK         0.3000 
    231 H231       -5.5772  -20.4131  -56.1409 H         1 UNK         0.0600 
    232 H232       -3.2552  -21.1548  -55.9872 H         1 UNK         0.0600 
    233 H233       -4.1835  -22.0775  -54.8135 H         1 UNK         0.0600 
    234 H234       -3.1659  -20.7342  -54.2866 H         1 UNK         0.0600 
    235 H235       -5.0377  -18.1289  -53.6563 H         1 UNK         0.3000 
    236 H236       -4.5196  -15.9932  -53.5264 H         1 UNK         0.0600 
    237 H237       -6.0320  -15.6738  -55.4789 H         1 UNK         0.0600 
    238 H238       -4.7308  -14.4943  -55.4604 H         1 UNK         0.0600 
    239 H239       -4.6660  -15.8465  -56.5799 H         1 UNK         0.0600 
    240 H240       -2.5034  -17.5919  -53.0485 H         1 UNK         0.3000 
    241 H241       -0.1252  -17.1393  -54.5355 H         1 UNK         0.0600 
    242 H242       -1.6435  -14.8850  -52.3231 H         1 UNK         0.3800 
    243 H243       -0.2423  -13.8691  -52.1300 H         1 UNK         0.3800 
    244 H244       -0.2155  -17.9575  -51.6018 H         1 UNK         0.0800 
    245 H245       -0.7293  -19.0376  -52.8607 H         1 UNK         0.0800 
    246 H246        2.4266  -17.2613  -51.3014 H         1 UNK         0.0800 
    247 H247        3.5633  -18.5534  -51.5924 H         1 UNK         0.0800 
@<TRIPOS>BOND
     1    1    2 1    
     2    1  127 1    
     3    1  128 1    
     4    1  129 1    
     5    2    3 2    
     6    2    4 am   BACKBONE|DICT|INTERRES
     7    4    5 1    
     8    4  130 1    
     9    5    6 1    
    10    5   65 1    
    11    5  131 1    
    12    6    7 1    
    13    6  132 1    
    14    6  133 1    
    15    7    8 1    
    16    8    9 1    
    17    8  134 1    
    18    8  135 1    
    19    9   10 ar   
    20    9   14 ar   
    21   10   11 ar   
    22   10  136 1    
    23   11   12 ar   
    24   11  126 1    
    25   12   13 ar   
    26   12  137 1    
    27   13   14 ar   
    28   13   15 1    
    29   14  138 1    
    30   15   16 1    
    31   15  139 1    
    32   15  140 1    
    33   16   17 1    
    34   17   18 1    
    35   17  141 1    
    36   17  142 1    
    37   18   19 1    
    38   18   67 1    
    39   18  143 1    
    40   19   20 am   BACKBONE|DICT|INTERRES
    41   19  144 1    
    42   20   21 2    
    43   20   22 1    
    44   22   23 1    
    45   22   24 1    
    46   22  145 1    
    47   23  146 1    
    48   23  147 1    
    49   23  148 1    
    50   24   25 am   BACKBONE|DICT|INTERRES
    51   24  149 1    
    52   25   26 2    
    53   25   27 1    
    54   27   28 1    
    55   27   29 1    
    56   27  150 1    
    57   28  151 1    
    58   28  152 1    
    59   28  153 1    
    60   29   30 am   BACKBONE|DICT|INTERRES
    61   29  154 1    
    62   30   31 2    
    63   30   32 1    
    64   32   33 1    
    65   32   34 1    
    66   32  155 1    
    67   33  156 1    
    68   33  157 1    
    69   33  158 1    
    70   34   35 am   BACKBONE|DICT|INTERRES
    71   34  159 1    
    72   35   36 2    
    73   35   37 1    
    74   37   38 1    
    75   37   39 1    
    76   37  160 1    
    77   38  161 1    
    78   38  162 1    
    79   38  163 1    
    80   39   40 am   BACKBONE|DICT|INTERRES
    81   39  164 1    
    82   40   41 2    
    83   40   42 1    
    84   42   43 1    
    85   42   44 1    
    86   42  165 1    
    87   43  166 1    
    88   43  167 1    
    89   43  168 1    
    90   44   45 am   BACKBONE|DICT|INTERRES
    91   44  169 1    
    92   45   46 2    
    93   45   47 1    
    94   47   48 1    
    95   47   49 1    
    96   47  170 1    
    97   48  171 1    
    98   48  172 1    
    99   48  173 1    
   100   49   50 am   BACKBONE|DICT|INTERRES
   101   49  174 1    
   102   50   51 2    
   103   50   52 1    
   104   52   53 1    
   105   52   54 1    
   106   52  175 1    
   107   53  176 1    
   108   53  177 1    
   109   53  178 1    
   110   54   55 am   BACKBONE|DICT|INTERRES
   111   54  179 1    
   112   55   56 2    
   113   55   57 1    
   114   57   58 1    
   115   57   59 1    
   116   57  180 1    
   117   58  181 1    
   118   58  182 1    
   119   58  183 1    
   120   59   60 am   BACKBONE|DICT|INTERRES
   121   59  184 1    
   122   60   61 2    
   123   60   62 1    
   124   62   63 1    
   125   62   64 1    
   126   62  185 1    
   127   63  186 1    
   128   63  187 1    
   129   63  188 1    
   130   64   65 am   BACKBONE|DICT|INTERRES
   131   64  189 1    
   132   65   66 2    
   133   67   68 2    
   134   67   69 am   BACKBONE|DICT|INTERRES
   135   69   70 1    
   136   69  190 1    
   137   70   71 1    
   138   70   72 1    
   139   70  191 1    
   140   71  192 1    
   141   71  193 1    
   142   71  194 1    
   143   72   73 2    
   144   72   74 am   BACKBONE|DICT|INTERRES
   145   74   75 1    
   146   74  195 1    
   147   75   76 1    
   148   75   77 1    
   149   75  196 1    
   150   76  197 1    
   151   76  198 1    
   152   76  199 1    
   153   77   78 2    
   154   77   79 am   BACKBONE|DICT|INTERRES
   155   79   80 1    
   156   79  200 1    
   157   80   81 1    
   158   80   82 1    
   159   80  201 1    
   160   81  202 1    
   161   81  203 1    
   162   81  204 1    
   163   82   83 2    
   164   82   84 am   BACKBONE|DICT|INTERRES
   165   84   85 1    
   166   84  205 1    
   167   85   86 1    
   168   85   87 1    
   169   85  206 1    
   170   86  207 1    
   171   86  208 1    
   172   86  209 1    
   173   87   88 2    
   174   87   89 am   BACKBONE|DICT|INTERRES
   175   89   90 1    
   176   89  210 1    
   177   90   91 1    
   178   90   92 1    
   179   90  211 1    
   180   91  212 1    
   181   91  213 1    
   182   91  214 1    
   183   92   93 2    
   184   92   94 am   BACKBONE|DICT|INTERRES
   185   94   95 1    
   186   94  215 1    
   187   95   96 1    
   188   95   97 1    
   189   95  216 1    
   190   96  217 1    
   191   96  218 1    
   192   96  219 1    
   193   97   98 2    
   194   97   99 am   BACKBONE|DICT|INTERRES
   195   99  100 1    
   196   99  220 1    
   197  100  101 1    
   198  100  102 1    
   199  100  221 1    
   200  101  222 1    
   201  101  223 1    
   202  101  224 1    
   203  102  103 2    
   204  102  104 am   BACKBONE|DICT|INTERRES
   205  104  105 1    
   206  104  225 1    
   207  105  106 1    
   208  105  107 1    
   209  105  226 1    
   210  106  227 1    
   211  106  228 1    
   212  106  229 1    
   213  107  108 2    
   214  107  109 am   BACKBONE|DICT|INTERRES
   215  109  110 1    
   216  109  230 1    
   217  110  111 1    
   218  110  112 1    
   219  110  231 1    
   220  111  232 1    
   221  111  233 1    
   222  111  234 1    
   223  112  113 2    
   224  112  114 am   BACKBONE|DICT|INTERRES
   225  114  115 1    
   226  114  235 1    
   227  115  116 1    
   228  115  117 1    
   229  115  236 1    
   230  116  237 1    
   231  116  238 1    
   232  116  239 1    
   233  117  118 2    
   234  117  119 am   BACKBONE|DICT|INTERRES
   235  119  120 1    
   236  119  240 1    
   237  120  121 1    
   238  120  124 1    
   239  120  241 1    
   240  121  122 am   BACKBONE|DICT|INTERRES
   241  121  123 2    
   242  122  242 1    
   243  122  243 1    
   244  124  125 1    
   245  124  244 1    
   246  124  245 1    
   247  125  126 1    
   248  126  246 1    
   249  126  247 1    
@<TRIPOS>SUBSTRUCTURE
     1 UNK         1 GROUP             0       ****    0 ROOT    
