@<TRIPOS>MOLECULE
3R540
247   249    1
SMALL
USER_CHARGES


@<TRIPOS>ATOM
      1 CA          3.7857   -9.0845  -49.7601 C.3       0 UNK        -0.1800 
      2 C           4.2208  -10.5416  -49.8151 C.2       0 UNK         0.5000 
      3 O           5.4028  -10.8241  -50.0155 O.2       0 UNK        -0.5000 
      4 N           3.2750  -11.4696  -49.6300 N.am      1 UNK        -0.5000 
      5 CA          3.4651  -12.9256  -49.6223 C.3       1 UNK         0.1400 
      6 C6          2.1605  -13.6763  -50.0162 C.3       23 UNK        -0.0398 
      7 S7          0.6589  -13.1203  -49.1285 S.3       23 UNK        -0.2404 
      8 C8          0.1463  -14.6345  -48.2623 C.3       23 UNK        -0.0205 
      9 C9         -0.6146  -15.5948  -49.1607 C.ar      23 UNK        -0.0193 
     10 C10        -1.9552  -15.3452  -49.4658 C.ar      23 UNK        -0.1150 
     11 C11        -2.6861  -16.2434  -50.2469 C.ar      23 UNK        -0.0193 
     12 C12        -2.0625  -17.3992  -50.7258 C.ar      23 UNK        -0.1150 
     13 C13        -0.7190  -17.6558  -50.4389 C.ar      23 UNK        -0.0193 
     14 C14         0.0006  -16.7499  -49.6534 C.ar      23 UNK        -0.1150 
     15 C15        -0.0400  -18.8980  -50.9992 C.3       23 UNK        -0.0205 
     16 S16         0.2359  -20.1730  -49.7310 S.3       23 UNK        -0.2404 
     17 C17        -1.4676  -20.7216  -49.3824 C.3       23 UNK        -0.0398 
     18 CA         -1.4808  -22.0299  -48.5573 C.3       11 UNK         0.1400 
     19 N          -0.9759  -21.8393  -47.1947 N.am      11 UNK        -0.5000 
     20 C          -0.7309  -22.8362  -46.3357 C.2       10 UNK         0.5000 
     21 O          -0.8353  -24.0242  -46.6376 O.2       10 UNK        -0.5000 
     22 CA         -0.3450  -22.4508  -44.8961 C.3       10 UNK         0.1400 
     23 CB          1.1471  -22.1026  -44.7985 C.3       10 UNK        -0.1800 
     24 N          -1.1544  -21.3492  -44.3754 N.am      10 UNK        -0.5000 
     25 C          -2.4765  -21.4203  -44.1649 C.2       9 UNK         0.5000 
     26 O          -3.1386  -22.4435  -44.3334 O.2       9 UNK        -0.5000 
     27 CA         -3.1913  -20.1241  -43.7466 C.3       9 UNK         0.1400 
     28 CB         -3.0813  -19.8920  -42.2325 C.3       9 UNK        -0.1800 
     29 N          -2.6848  -18.9573  -44.4667 N.am      9 UNK        -0.5000 
     30 C          -2.8369  -18.7575  -45.7840 C.2       8 UNK         0.5000 
     31 O          -3.4561  -19.5186  -46.5275 O.2       8 UNK        -0.5000 
     32 CA         -2.1352  -17.5231  -46.3751 C.3       8 UNK         0.1400 
     33 CB         -2.9954  -16.2700  -46.1546 C.3       8 UNK        -0.1800 
     34 N          -0.7940  -17.3188  -45.8188 N.am      8 UNK        -0.5000 
     35 C           0.2096  -18.1984  -45.9595 C.2       7 UNK         0.5000 
     36 O           0.1021  -19.2505  -46.5850 O.2       7 UNK        -0.5000 
     37 CA          1.5306  -17.9073  -45.2276 C.3       7 UNK         0.1400 
     38 CB          2.4229  -16.9494  -46.0247 C.3       7 UNK        -0.1800 
     39 N           1.3423  -17.3872  -43.8764 N.am      7 UNK        -0.5000 
     40 C           0.7680  -18.0602  -42.8713 C.2       6 UNK         0.5000 
     41 O           0.2947  -19.1903  -42.9879 O.2       6 UNK        -0.5000 
     42 CA          0.7003  -17.3409  -41.5160 C.3       6 UNK         0.1400 
     43 CB          2.0499  -17.4285  -40.7864 C.3       6 UNK        -0.1800 
     44 N           0.3325  -15.9371  -41.6872 N.am      6 UNK        -0.5000 
     45 C          -0.9285  -15.4908  -41.7476 C.2       5 UNK         0.5000 
     46 O          -1.9173  -16.2114  -41.6065 O.2       5 UNK        -0.5000 
     47 CA         -1.1209  -13.9868  -42.0279 C.3       5 UNK         0.1400 
     48 CB         -1.1219  -13.1898  -40.7147 C.3       5 UNK        -0.1800 
     49 N          -0.1153  -13.4225  -42.9318 N.am      5 UNK        -0.5000 
     50 C           0.0351  -13.7841  -44.2128 C.2       4 UNK         0.5000 
     51 O          -0.6440  -14.6490  -44.7624 O.2       4 UNK        -0.5000 
     52 CA          1.1592  -13.0988  -45.0078 C.3       4 UNK         0.1400 
     53 CB          0.6873  -11.7478  -45.5640 C.3       4 UNK        -0.1800 
     54 N           2.4251  -12.9129  -44.2958 N.am      4 UNK        -0.5000 
     55 C           3.1002  -13.8363  -43.5986 C.2       3 UNK         0.5000 
     56 O           2.6425  -14.9329  -43.2727 O.2       3 UNK        -0.5000 
     57 CA          4.5678  -13.4899  -43.2848 C.3       3 UNK         0.1400 
     58 CB          5.1664  -14.4019  -42.1989 C.3       3 UNK        -0.1800 
     59 N           5.3688  -13.6153  -44.5031 N.am      3 UNK        -0.5000 
     60 C           5.3797  -12.7398  -45.5175 C.2       2 UNK         0.5000 
     61 O           4.8188  -11.6417  -45.4675 O.2       2 UNK        -0.5000 
     62 CA          6.1232  -13.1481  -46.8080 C.3       2 UNK         0.1400 
     63 CB          6.6489  -14.6023  -46.8087 C.3       2 UNK        -0.1800 
     64 N           5.3079  -12.8964  -48.0008 N.am      2 UNK        -0.5000 
     65 C           4.1091  -13.4183  -48.3025 C.2       1 UNK         0.5000 
     66 O           3.5282  -14.2411  -47.5952 O.2       1 UNK        -0.5000 
     67 C          -2.8777  -22.6824  -48.5526 C.2       11 UNK         0.5000 
     68 O          -3.0923  -23.6505  -49.2813 O.2       11 UNK        -0.5000 
     69 N          -3.7817  -22.1657  -47.7096 N.am      12 UNK        -0.5000 
     70 CA         -5.1570  -22.6356  -47.5726 C.3       12 UNK         0.1400 
     71 CB         -5.9603  -21.6210  -46.7418 C.3       12 UNK        -0.1800 
     72 C          -5.2778  -24.0465  -46.9667 C.2       12 UNK         0.5000 
     73 O          -5.8616  -24.9266  -47.6000 O.2       12 UNK        -0.5000 
     74 N          -4.7803  -24.2204  -45.7353 N.am      13 UNK        -0.5000 
     75 CA         -5.0734  -25.3816  -44.8944 C.3       13 UNK         0.1400 
     76 CB         -5.2613  -24.9182  -43.4407 C.3       13 UNK        -0.1800 
     77 C          -3.9919  -26.4672  -44.9710 C.2       13 UNK         0.5000 
     78 O          -4.3335  -27.6489  -45.0352 O.2       13 UNK        -0.5000 
     79 N          -2.7132  -26.0648  -44.9555 N.am      14 UNK        -0.5000 
     80 CA         -1.5739  -26.9918  -44.9874 C.3       14 UNK         0.1400 
     81 CB         -0.3709  -26.3657  -44.2619 C.3       14 UNK        -0.1800 
     82 C          -1.1987  -27.4326  -46.4165 C.2       14 UNK         0.5000 
     83 O          -0.3838  -28.3437  -46.5683 O.2       14 UNK        -0.5000 
     84 N          -1.8007  -26.7866  -47.4260 N.am      15 UNK        -0.5000 
     85 CA         -1.6126  -26.9940  -48.8619 C.3       15 UNK         0.1400 
     86 CB         -2.1023  -28.3931  -49.2899 C.3       15 UNK        -0.1800 
     87 C          -0.1766  -26.6775  -49.3254 C.2       15 UNK         0.5000 
     88 O           0.3930  -27.4144  -50.1328 O.2       15 UNK        -0.5000 
     89 N           0.3789  -25.5616  -48.8266 N.am      16 UNK        -0.5000 
     90 CA          1.6623  -25.0040  -49.2757 C.3       16 UNK         0.1400 
     91 CB          2.1274  -23.9260  -48.2846 C.3       16 UNK        -0.1800 
     92 C           1.6092  -24.4365  -50.7126 C.2       16 UNK         0.5000 
     93 O           2.6562  -24.2410  -51.3307 O.2       16 UNK        -0.5000 
     94 N           0.3936  -24.2090  -51.2185 N.am      17 UNK        -0.5000 
     95 CA          0.0614  -23.8918  -52.5996 C.3       17 UNK         0.1400 
     96 CB         -0.1010  -22.3695  -52.7477 C.3       17 UNK        -0.1800 
     97 C          -1.2333  -24.6474  -52.9492 C.2       17 UNK         0.5000 
     98 O          -1.7850  -25.3538  -52.0978 O.2       17 UNK        -0.5000 
     99 N          -1.7102  -24.4884  -54.1898 N.am      18 UNK        -0.5000 
    100 CA        -2.9717  -25.0449  -54.6885 C.3       18 UNK         0.1400 
    101 CB        -2.9431  -25.0302  -56.2276 C.3       18 UNK        -0.1800 
    102 C         -4.1884  -24.2902  -54.1078 C.2       18 UNK         0.5000 
    103 O         -4.8648  -23.5547  -54.8297 O.2       18 UNK        -0.5000 
    104 N         -4.4028  -24.4656  -52.7966 N.am      19 UNK        -0.5000 
    105 CA        -5.3133  -23.7191  -51.9243 C.3       19 UNK         0.1400 
    106 CB        -6.7832  -23.8867  -52.3698 C.3       19 UNK        -0.1800 
    107 C         -4.8809  -22.2433  -51.7786 C.2       19 UNK         0.5000 
    108 O         -3.7384  -21.8986  -52.0901 O.2       19 UNK        -0.5000 
    109 N         -5.7859  -21.3972  -51.2692 N.am      20 UNK        -0.5000 
    110 CA        -5.5630  -19.9599  -51.1229 C.3       20 UNK         0.1400 
    111 CB        -6.6494  -19.3611  -50.2131 C.3       20 UNK        -0.1800 
    112 C         -5.5269  -19.2597  -52.4930 C.2       20 UNK         0.5000 
    113 O         -4.5177  -18.6530  -52.8425 O.2       20 UNK        -0.5000 
    114 N         -6.6388  -19.3625  -53.2371 N.am      21 UNK        -0.5000 
    115 CA        -6.8688  -18.8043  -54.5789 C.3       21 UNK         0.1400 
    116 CB        -5.9186  -19.4534  -55.6071 C.3       21 UNK        -0.1800 
    117 C         -6.8483  -17.2578  -54.6619 C.2       21 UNK         0.5000 
    118 O         -6.8936  -16.7135  -55.7665 O.2       21 UNK        -0.5000 
    119 N         -6.8130  -16.5743  -53.5101 N.am      22 UNK        -0.5000 
    120 CA        -6.8280  -15.1058  -53.3915 C.3       22 UNK         0.1400 
    121 C         -8.2475  -14.4722  -53.5018 C.2       22 UNK         0.5000 
    122 N         -9.3269  -15.2446  -53.5401 N.am      22 UNK        -0.7600 
    123 O         -8.3728  -13.2521  -53.5649 O.2       22 UNK        -0.5000 
    124 C124       -6.1048  -14.6238  -52.1053 C.3       23 UNK        -0.0398 
    125 S125       -4.3193  -15.0110  -52.1037 S.3       23 UNK        -0.2404 
    126 C126       -4.1471  -15.9634  -50.5632 C.3       23 UNK        -0.0205 
    127 H127        2.7149   -8.9879  -49.5794 H         1 UNK         0.0600 
    128 H128        4.0179   -8.5878  -50.7021 H         1 UNK         0.0600 
    129 H129        4.3139   -8.5657  -48.9601 H         1 UNK         0.0600 
    130 H130        2.3262  -11.1752  -49.4442 H         1 UNK         0.3000 
    131 H131        4.1934  -13.1636  -50.4006 H         1 UNK         0.0600 
    132 H132        2.2870  -14.7548  -49.9110 H         1 UNK         0.0800 
    133 H133        1.9720  -13.5170  -51.0785 H         1 UNK         0.0800 
    134 H134        1.0184  -15.1245  -47.8343 H         1 UNK         0.0800 
    135 H135       -0.4912  -14.3550  -47.4239 H         1 UNK         0.0800 
    136 H136       -2.4315  -14.4516  -49.0874 H         1 UNK         0.1150 
    137 H137       -2.6186  -18.0965  -51.3331 H         1 UNK         0.1150 
    138 H138        1.0358  -16.9530  -49.4182 H         1 UNK         0.1150 
    139 H139       -0.6210  -19.3221  -51.8198 H         1 UNK         0.0800 
    140 H140        0.9236  -18.6155  -51.4250 H         1 UNK         0.0800 
    141 H141       -1.9805  -20.8590  -50.3353 H         1 UNK         0.0800 
    142 H142       -1.9973  -19.9249  -48.8581 H         1 UNK         0.0800 
    143 H143       -0.8151  -22.7378  -49.0534 H         1 UNK         0.0600 
    144 H144       -0.7831  -20.8817  -46.9087 H         1 UNK         0.3000 
    145 H145       -0.5292  -23.3170  -44.2586 H         1 UNK         0.0600 
    146 H146        1.4264  -21.8442  -43.7770 H         1 UNK         0.0600 
    147 H147        1.7633  -22.9501  -45.1007 H         1 UNK         0.0600 
    148 H148        1.4108  -21.2626  -45.4403 H         1 UNK         0.0600 
    149 H149       -0.6710  -20.4817  -44.1648 H         1 UNK         0.3000 
    150 H150       -4.2492  -20.2354  -43.9929 H         1 UNK         0.0600 
    151 H151       -3.6287  -18.9991  -41.9297 H         1 UNK         0.0600 
    152 H152       -2.0465  -19.7728  -41.9122 H         1 UNK         0.0600 
    153 H153       -3.4997  -20.7338  -41.6795 H         1 UNK         0.0600 
    154 H154       -2.1285  -18.3008  -43.9382 H         1 UNK         0.3000 
    155 H155       -2.0305  -17.6833  -47.4500 H         1 UNK         0.0600 
    156 H156       -3.9880  -16.3968  -46.5886 H         1 UNK         0.0600 
    157 H157       -3.1229  -16.0505  -45.0938 H         1 UNK         0.0600 
    158 H158       -2.5485  -15.3940  -46.6223 H         1 UNK         0.0600 
    159 H159       -0.6415  -16.4554  -45.3032 H         1 UNK         0.3000 
    160 H160        2.0632  -18.8565  -45.1412 H         1 UNK         0.0600 
    161 H161        3.4336  -16.9226  -45.6173 H         1 UNK         0.0600 
    162 H162        2.0343  -15.9343  -45.9948 H         1 UNK         0.0600 
    163 H163        2.4993  -17.2492  -47.0707 H         1 UNK         0.0600 
    164 H164        1.7315  -16.4668  -43.6852 H         1 UNK         0.3000 
    165 H165       -0.0483  -17.8460  -40.9017 H         1 UNK         0.0600 
    166 H166        1.9955  -16.9616  -39.8029 H         1 UNK         0.0600 
    167 H167        2.3453  -18.4678  -40.6376 H         1 UNK         0.0600 
    168 H168        2.8471  -16.9372  -41.3458 H         1 UNK         0.0600 
    169 H169        1.0873  -15.2959  -41.9004 H         1 UNK         0.3000 
    170 H170       -2.0979  -13.8653  -42.5005 H         1 UNK         0.0600 
    171 H171       -0.1575  -13.2471  -40.2084 H         1 UNK         0.0600 
    172 H172       -1.3475  -12.1380  -40.8913 H         1 UNK         0.0600 
    173 H173       -1.8773  -13.5719  -40.0266 H         1 UNK         0.0600 
    174 H174        0.5025  -12.7199  -42.5528 H         1 UNK         0.3000 
    175 H175        1.3846  -13.7396  -45.8590 H         1 UNK         0.0600 
    176 H176        1.4235  -11.3275  -46.2499 H         1 UNK         0.0600 
    177 H177        0.5140  -11.0226  -44.7683 H         1 UNK         0.0600 
    178 H178       -0.2446  -11.8575  -46.1206 H         1 UNK         0.0600 
    179 H179        2.9468  -12.0837  -44.5547 H         1 UNK         0.3000 
    180 H180        4.6087  -12.4599  -42.9242 H         1 UNK         0.0600 
    181 H181        5.1832  -15.4473  -42.5101 H         1 UNK         0.0600 
    182 H182        4.5855  -14.3435  -41.2775 H         1 UNK         0.0600 
    183 H183        6.1881  -14.1082  -41.9580 H         1 UNK         0.0600 
    184 H184        5.8288  -14.5033  -44.6397 H         1 UNK         0.3000 
    185 H185        6.9859  -12.4848  -46.8821 H         1 UNK         0.0600 
    186 H186        5.8455  -15.3309  -46.6916 H         1 UNK         0.0600 
    187 H187        7.1627  -14.8283  -47.7431 H         1 UNK         0.0600 
    188 H188        7.3687  -14.7643  -46.0055 H         1 UNK         0.0600 
    189 H189        5.6596  -12.1815  -48.6311 H         1 UNK         0.3000 
    190 H190       -3.5287  -21.3509  -47.1569 H         1 UNK         0.3000 
    191 H191       -5.5953  -22.6668  -48.5720 H         1 UNK         0.0600 
    192 H192       -5.9309  -20.6288  -47.1895 H         1 UNK         0.0600 
    193 H193       -7.0078  -21.9159  -46.6691 H         1 UNK         0.0600 
    194 H194       -5.5726  -21.5304  -45.7268 H         1 UNK         0.0600 
    195 H195       -4.2605  -23.4640  -45.2922 H         1 UNK         0.3000 
    196 H196       -6.0157  -25.8330  -45.2131 H         1 UNK         0.0600 
    197 H197       -5.5350  -25.7552  -42.7971 H         1 UNK         0.0600 
    198 H198       -6.0557  -24.1758  -43.3638 H         1 UNK         0.0600 
    199 H199       -4.3510  -24.4771  -43.0334 H         1 UNK         0.0600 
    200 H200       -2.5043  -25.0761  -44.9355 H         1 UNK         0.3000 
    201 H201       -1.8440  -27.8953  -44.4364 H         1 UNK         0.0600 
    202 H202       -0.6527  -25.9769  -43.2833 H         1 UNK         0.0600 
    203 H203        0.0797  -25.5563  -44.8327 H         1 UNK         0.0600 
    204 H204        0.4088  -27.1111  -44.1013 H         1 UNK         0.0600 
    205 H205       -2.4054  -26.0177  -47.1734 H         1 UNK         0.3000 
    206 H206       -2.2537  -26.2640  -49.3579 H         1 UNK         0.0600 
    207 H207       -3.1248  -28.5712  -48.9570 H         1 UNK         0.0600 
    208 H208       -2.0938  -28.4911  -50.3761 H         1 UNK         0.0600 
    209 H209       -1.4736  -29.1868  -48.8855 H         1 UNK         0.0600 
    210 H210       -0.1256  -25.0387  -48.1149 H         1 UNK         0.3000 
    211 H211        2.3990  -25.8099  -49.2685 H         1 UNK         0.0600 
    212 H212        1.4846  -23.0465  -48.3119 H         1 UNK         0.0600 
    213 H213        3.1384  -23.5928  -48.5215 H         1 UNK         0.0600 
    214 H214        2.1413  -24.3055  -47.2628 H         1 UNK         0.0600 
    215 H215       -0.4084  -24.4887  -50.6687 H         1 UNK         0.3000 
    216 H216        0.8509  -24.2469  -53.2649 H         1 UNK         0.0600 
    217 H217       -0.2743  -22.0863  -53.7860 H         1 UNK         0.0600 
    218 H218        0.7937  -21.8430  -52.4149 H         1 UNK         0.0600 
    219 H219       -0.9432  -22.0005  -52.1625 H         1 UNK         0.0600 
    220 H220       -1.2189  -23.8747  -54.8232 H         1 UNK         0.3000 
    221 H221       -3.0474  -26.0867  -54.3694 H         1 UNK         0.0600 
    222 H222       -2.8370  -24.0183  -56.6208 H         1 UNK         0.0600 
    223 H223       -2.1162  -25.6276  -56.6120 H         1 UNK         0.0600 
    224 H224       -3.8628  -25.4484  -56.6388 H         1 UNK         0.0600 
    225 H225       -3.6966  -25.0065  -52.3055 H         1 UNK         0.3000 
    226 H226       -5.2126  -24.1688  -50.9356 H         1 UNK         0.0600 
    227 H227       -7.0159  -24.9326  -52.5701 H         1 UNK         0.0600 
    228 H228       -7.4730  -23.5522  -51.5946 H         1 UNK         0.0600 
    229 H229       -7.0033  -23.3172  -53.2735 H         1 UNK         0.0600 
    230 H230       -6.7033  -21.7447  -51.0326 H         1 UNK         0.3000 
    231 H231       -4.5959  -19.8053  -50.6385 H         1 UNK         0.0600 
    232 H232       -7.6532  -19.5304  -50.6038 H         1 UNK         0.0600 
    233 H233       -6.5212  -18.2849  -50.0971 H         1 UNK         0.0600 
    234 H234       -6.6077  -19.7974  -49.2167 H         1 UNK         0.0600 
    235 H235       -7.4139  -19.8850  -52.8542 H         1 UNK         0.3000 
    236 H236       -7.8844  -19.0970  -54.8486 H         1 UNK         0.0600 
    237 H237       -4.8840  -19.1452  -55.4543 H         1 UNK         0.0600 
    238 H238       -5.9556  -20.5415  -55.5469 H         1 UNK         0.0600 
    239 H239       -6.1931  -19.1766  -56.6256 H         1 UNK         0.0600 
    240 H240       -6.7687  -17.0944  -52.6483 H         1 UNK         0.3000 
    241 H241       -6.2714  -14.7004  -54.2388 H         1 UNK         0.0600 
    242 H242      -10.2382  -14.8201  -53.6176 H         1 UNK         0.3800 
    243 H243       -9.2439  -16.2472  -53.4954 H         1 UNK         0.3800 
    244 H244       -6.1880  -13.5405  -52.0006 H         1 UNK         0.0800 
    245 H245       -6.5832  -15.0478  -51.2211 H         1 UNK         0.0800 
    246 H246       -4.6941  -16.9006  -50.6540 H         1 UNK         0.0800 
    247 H247       -4.6048  -15.4138  -49.7391 H         1 UNK         0.0800 
@<TRIPOS>BOND
     1    1    2 1    
     2    1  127 1    
     3    1  128 1    
     4    1  129 1    
     5    2    3 2    
     6    2    4 am   BACKBONE|DICT|INTERRES
     7    4    5 1    
     8    4  130 1    
     9    5    6 1    
    10    5   65 1    
    11    5  131 1    
    12    6    7 1    
    13    6  132 1    
    14    6  133 1    
    15    7    8 1    
    16    8    9 1    
    17    8  134 1    
    18    8  135 1    
    19    9   10 ar   
    20    9   14 ar   
    21   10   11 ar   
    22   10  136 1    
    23   11   12 ar   
    24   11  126 1    
    25   12   13 ar   
    26   12  137 1    
    27   13   14 ar   
    28   13   15 1    
    29   14  138 1    
    30   15   16 1    
    31   15  139 1    
    32   15  140 1    
    33   16   17 1    
    34   17   18 1    
    35   17  141 1    
    36   17  142 1    
    37   18   19 1    
    38   18   67 1    
    39   18  143 1    
    40   19   20 am   BACKBONE|DICT|INTERRES
    41   19  144 1    
    42   20   21 2    
    43   20   22 1    
    44   22   23 1    
    45   22   24 1    
    46   22  145 1    
    47   23  146 1    
    48   23  147 1    
    49   23  148 1    
    50   24   25 am   BACKBONE|DICT|INTERRES
    51   24  149 1    
    52   25   26 2    
    53   25   27 1    
    54   27   28 1    
    55   27   29 1    
    56   27  150 1    
    57   28  151 1    
    58   28  152 1    
    59   28  153 1    
    60   29   30 am   BACKBONE|DICT|INTERRES
    61   29  154 1    
    62   30   31 2    
    63   30   32 1    
    64   32   33 1    
    65   32   34 1    
    66   32  155 1    
    67   33  156 1    
    68   33  157 1    
    69   33  158 1    
    70   34   35 am   BACKBONE|DICT|INTERRES
    71   34  159 1    
    72   35   36 2    
    73   35   37 1    
    74   37   38 1    
    75   37   39 1    
    76   37  160 1    
    77   38  161 1    
    78   38  162 1    
    79   38  163 1    
    80   39   40 am   BACKBONE|DICT|INTERRES
    81   39  164 1    
    82   40   41 2    
    83   40   42 1    
    84   42   43 1    
    85   42   44 1    
    86   42  165 1    
    87   43  166 1    
    88   43  167 1    
    89   43  168 1    
    90   44   45 am   BACKBONE|DICT|INTERRES
    91   44  169 1    
    92   45   46 2    
    93   45   47 1    
    94   47   48 1    
    95   47   49 1    
    96   47  170 1    
    97   48  171 1    
    98   48  172 1    
    99   48  173 1    
   100   49   50 am   BACKBONE|DICT|INTERRES
   101   49  174 1    
   102   50   51 2    
   103   50   52 1    
   104   52   53 1    
   105   52   54 1    
   106   52  175 1    
   107   53  176 1    
   108   53  177 1    
   109   53  178 1    
   110   54   55 am   BACKBONE|DICT|INTERRES
   111   54  179 1    
   112   55   56 2    
   113   55   57 1    
   114   57   58 1    
   115   57   59 1    
   116   57  180 1    
   117   58  181 1    
   118   58  182 1    
   119   58  183 1    
   120   59   60 am   BACKBONE|DICT|INTERRES
   121   59  184 1    
   122   60   61 2    
   123   60   62 1    
   124   62   63 1    
   125   62   64 1    
   126   62  185 1    
   127   63  186 1    
   128   63  187 1    
   129   63  188 1    
   130   64   65 am   BACKBONE|DICT|INTERRES
   131   64  189 1    
   132   65   66 2    
   133   67   68 2    
   134   67   69 am   BACKBONE|DICT|INTERRES
   135   69   70 1    
   136   69  190 1    
   137   70   71 1    
   138   70   72 1    
   139   70  191 1    
   140   71  192 1    
   141   71  193 1    
   142   71  194 1    
   143   72   73 2    
   144   72   74 am   BACKBONE|DICT|INTERRES
   145   74   75 1    
   146   74  195 1    
   147   75   76 1    
   148   75   77 1    
   149   75  196 1    
   150   76  197 1    
   151   76  198 1    
   152   76  199 1    
   153   77   78 2    
   154   77   79 am   BACKBONE|DICT|INTERRES
   155   79   80 1    
   156   79  200 1    
   157   80   81 1    
   158   80   82 1    
   159   80  201 1    
   160   81  202 1    
   161   81  203 1    
   162   81  204 1    
   163   82   83 2    
   164   82   84 am   BACKBONE|DICT|INTERRES
   165   84   85 1    
   166   84  205 1    
   167   85   86 1    
   168   85   87 1    
   169   85  206 1    
   170   86  207 1    
   171   86  208 1    
   172   86  209 1    
   173   87   88 2    
   174   87   89 am   BACKBONE|DICT|INTERRES
   175   89   90 1    
   176   89  210 1    
   177   90   91 1    
   178   90   92 1    
   179   90  211 1    
   180   91  212 1    
   181   91  213 1    
   182   91  214 1    
   183   92   93 2    
   184   92   94 am   BACKBONE|DICT|INTERRES
   185   94   95 1    
   186   94  215 1    
   187   95   96 1    
   188   95   97 1    
   189   95  216 1    
   190   96  217 1    
   191   96  218 1    
   192   96  219 1    
   193   97   98 2    
   194   97   99 am   BACKBONE|DICT|INTERRES
   195   99  100 1    
   196   99  220 1    
   197  100  101 1    
   198  100  102 1    
   199  100  221 1    
   200  101  222 1    
   201  101  223 1    
   202  101  224 1    
   203  102  103 2    
   204  102  104 am   BACKBONE|DICT|INTERRES
   205  104  105 1    
   206  104  225 1    
   207  105  106 1    
   208  105  107 1    
   209  105  226 1    
   210  106  227 1    
   211  106  228 1    
   212  106  229 1    
   213  107  108 2    
   214  107  109 am   BACKBONE|DICT|INTERRES
   215  109  110 1    
   216  109  230 1    
   217  110  111 1    
   218  110  112 1    
   219  110  231 1    
   220  111  232 1    
   221  111  233 1    
   222  111  234 1    
   223  112  113 2    
   224  112  114 am   BACKBONE|DICT|INTERRES
   225  114  115 1    
   226  114  235 1    
   227  115  116 1    
   228  115  117 1    
   229  115  236 1    
   230  116  237 1    
   231  116  238 1    
   232  116  239 1    
   233  117  118 2    
   234  117  119 am   BACKBONE|DICT|INTERRES
   235  119  120 1    
   236  119  240 1    
   237  120  121 1    
   238  120  124 1    
   239  120  241 1    
   240  121  122 am   BACKBONE|DICT|INTERRES
   241  121  123 2    
   242  122  242 1    
   243  122  243 1    
   244  124  125 1    
   245  124  244 1    
   246  124  245 1    
   247  125  126 1    
   248  126  246 1    
   249  126  247 1    
@<TRIPOS>SUBSTRUCTURE
     1 UNK         1 GROUP             0       ****    0 ROOT    
