@<TRIPOS>MOLECULE
3R540
247   249    1
SMALL
USER_CHARGES


@<TRIPOS>ATOM
      1 CA          3.8321  -15.5942  -45.9593 C.3       0 UNK        -0.1800 
      2 C           3.2867  -14.6130  -46.9842 C.2       0 UNK         0.5000 
      3 O           3.4886  -13.4062  -46.8478 O.2       0 UNK        -0.5000 
      4 N           2.5891  -15.1273  -48.0052 N.am      1 UNK        -0.5000 
      5 CA          2.0112  -14.3756  -49.1244 C.3       1 UNK         0.1400 
      6 C6          3.1151  -13.7489  -50.0292 C.3       23 UNK        -0.0398 
      7 S7          2.6924  -13.7555  -51.8051 S.3       23 UNK        -0.2404 
      8 C8          3.5959  -15.2246  -52.4140 C.3       23 UNK        -0.0205 
      9 C9          2.7302  -16.4762  -52.3677 C.ar      23 UNK        -0.0193 
     10 C10         2.1620  -16.9838  -53.5392 C.ar      23 UNK        -0.1150 
     11 C11         1.3260  -18.1035  -53.4972 C.ar      23 UNK        -0.0193 
     12 C12         1.0309  -18.6975  -52.2645 C.ar      23 UNK        -0.1150 
     13 C13         1.5930  -18.1973  -51.0849 C.ar      23 UNK        -0.0193 
     14 C14         2.4753  -17.1165  -51.1528 C.ar      23 UNK        -0.1150 
     15 C15         1.2007  -18.7677  -49.7292 C.3       23 UNK        -0.0205 
     16 S16         2.5072  -19.8096  -49.0092 S.3       23 UNK        -0.2404 
     17 C17         1.9119  -20.0016  -47.2909 C.3       23 UNK        -0.0398 
     18 CA          1.0591  -21.2787  -47.0809 C.3       11 UNK         0.1400 
     19 N           1.1275  -21.7765  -45.7043 N.am      11 UNK        -0.5000 
     20 C           0.7151  -22.9981  -45.3272 C.2       10 UNK         0.5000 
     21 O           0.2864  -23.8431  -46.1122 O.2       10 UNK        -0.5000 
     22 CA          0.7304  -23.3167  -43.8185 C.3       10 UNK         0.1400 
     23 CB          2.0824  -23.9187  -43.4096 C.3       10 UNK        -0.1800 
     24 N           0.4525  -22.1496  -42.9821 N.am      10 UNK        -0.5000 
     25 C          -0.6655  -21.4114  -43.0340 C.2       9 UNK         0.5000 
     26 O          -1.6394  -21.7068  -43.7245 O.2       9 UNK        -0.5000 
     27 CA         -0.6794  -20.0953  -42.2323 C.3       9 UNK         0.1400 
     28 CB         -1.5350  -20.2551  -40.9685 C.3       9 UNK        -0.1800 
     29 N           0.6587  -19.6085  -41.8713 N.am      9 UNK        -0.5000 
     30 C           1.6004  -19.2322  -42.7533 C.2       8 UNK         0.5000 
     31 O           1.4188  -19.2457  -43.9729 O.2       8 UNK        -0.5000 
     32 CA          2.9766  -18.8040  -42.2069 C.3       8 UNK         0.1400 
     33 CB          3.3631  -17.4061  -42.7076 C.3       8 UNK        -0.1800 
     34 N           3.0410  -18.8178  -40.7455 N.am      8 UNK        -0.5000 
     35 C           3.4712  -19.8516  -40.0086 C.2       7 UNK         0.5000 
     36 O           3.8571  -20.9164  -40.4917 O.2       7 UNK        -0.5000 
     37 CA          3.4541  -19.6812  -38.4747 C.3       7 UNK         0.1400 
     38 CB          4.8425  -19.2643  -37.9665 C.3       7 UNK        -0.1800 
     39 N           2.4634  -18.7115  -38.0002 N.am      7 UNK        -0.5000 
     40 C           1.1377  -18.8587  -38.1175 C.2       6 UNK         0.5000 
     41 O           0.6120  -19.8545  -38.6153 O.2       6 UNK        -0.5000 
     42 CA          0.2396  -17.6902  -37.6603 C.3       6 UNK         0.1400 
     43 CB          0.9848  -16.5778  -36.8878 C.3       6 UNK        -0.1800 
     44 N          -0.5022  -17.1241  -38.7932 N.am      6 UNK        -0.5000 
     45 C           0.0226  -16.6114  -39.9152 C.2       5 UNK         0.5000 
     46 O           1.2352  -16.5090  -40.1229 O.2       5 UNK        -0.5000 
     47 CA         -0.9799  -16.1446  -40.9812 C.3       5 UNK         0.1400 
     48 CB         -1.6650  -14.8324  -40.5648 C.3       5 UNK        -0.1800 
     49 N          -0.2775  -15.9329  -42.2410 N.am      5 UNK        -0.5000 
     50 C          -0.7321  -16.2269  -43.4608 C.2       4 UNK         0.5000 
     51 O          -1.8482  -16.7024  -43.6731 O.2       4 UNK        -0.5000 
     52 CA          0.2199  -15.9086  -44.6350 C.3       4 UNK         0.1400 
     53 CB         -0.2644  -16.5154  -45.9640 C.3       4 UNK        -0.1800 
     54 N           0.4197  -14.4651  -44.8060 N.am      4 UNK        -0.5000 
     55 C           1.1591  -13.6829  -44.0042 C.2       3 UNK         0.5000 
     56 O           1.8009  -14.1214  -43.0484 O.2       3 UNK        -0.5000 
     57 CA          1.1976  -12.1752  -44.3223 C.3       3 UNK         0.1400 
     58 CB          2.4632  -11.4936  -43.7709 C.3       3 UNK        -0.1800 
     59 N           1.1327  -11.9373  -45.7629 N.am      3 UNK        -0.5000 
     60 C           0.1706  -11.2591  -46.4030 C.2       2 UNK         0.5000 
     61 O          -0.8040  -10.7605  -45.8392 O.2       2 UNK        -0.5000 
     62 CA          0.3113  -11.1103  -47.9339 C.3       2 UNK         0.1400 
     63 CB          0.8366   -9.7113  -48.2909 C.3       2 UNK        -0.1800 
     64 N           1.1915  -12.1126  -48.5392 N.am      2 UNK        -0.5000 
     65 C           0.9098  -13.4196  -48.6165 C.2       1 UNK         0.5000 
     66 O          -0.1637  -13.8982  -48.2463 O.2       1 UNK        -0.5000 
     67 C          -0.4052  -21.0635  -47.5117 C.2       11 UNK         0.5000 
     68 O          -0.7823  -21.4830  -48.6042 O.2       11 UNK        -0.5000 
     69 N          -1.2168  -20.4596  -46.6297 N.am      12 UNK        -0.5000 
     70 CA         -2.6504  -20.2466  -46.8450 C.3       12 UNK         0.1400 
     71 CB         -3.2176  -19.3269  -45.7540 C.3       12 UNK        -0.1800 
     72 C          -3.4397  -21.5661  -46.9185 C.2       12 UNK         0.5000 
     73 O          -4.3479  -21.6820  -47.7417 O.2       12 UNK        -0.5000 
     74 N          -3.0532  -22.5459  -46.0901 N.am      13 UNK        -0.5000 
     75 CA         -3.5850  -23.9075  -46.1036 C.3       13 UNK         0.1400 
     76 CB         -3.0692  -24.6790  -44.8800 C.3       13 UNK        -0.1800 
     77 C          -3.2515  -24.6511  -47.4096 C.2       13 UNK         0.5000 
     78 O          -4.1500  -25.2374  -48.0128 O.2       13 UNK        -0.5000 
     79 N          -1.9869  -24.5728  -47.8523 N.am      14 UNK        -0.5000 
     80 CA         -1.5102  -25.1385  -49.1194 C.3       14 UNK         0.1400 
     81 CB          0.0190  -25.0143  -49.1956 C.3       14 UNK        -0.1800 
     82 C          -2.1707  -24.4917  -50.3523 C.2       14 UNK         0.5000 
     83 O          -2.4925  -25.1923  -51.3120 O.2       14 UNK        -0.5000 
     84 N          -2.4023  -23.1750  -50.2781 N.am      15 UNK        -0.5000 
     85 CA         -3.1333  -22.3803  -51.2643 C.3       15 UNK         0.1400 
     86 CB         -2.8321  -20.8947  -51.0068 C.3       15 UNK        -0.1800 
     87 C          -4.6564  -22.6205  -51.2587 C.2       15 UNK         0.5000 
     88 O          -5.3402  -22.1070  -52.1481 O.2       15 UNK        -0.5000 
     89 N          -5.1675  -23.3482  -50.2544 N.am      16 UNK        -0.5000 
     90 CA         -6.5789  -23.6389  -49.9895 C.3       16 UNK         0.1400 
     91 CB         -7.1532  -24.5686  -51.0789 C.3       16 UNK        -0.1800 
     92 C          -7.4045  -22.3518  -49.7945 C.2       16 UNK         0.5000 
     93 O          -8.4600  -22.1951  -50.4069 O.2       16 UNK        -0.5000 
     94 N          -6.8662  -21.4179  -48.9953 N.am      17 UNK        -0.5000 
     95 CA         -7.3806  -20.0616  -48.7605 C.3       17 UNK         0.1400 
     96 CB         -8.7154  -20.1038  -47.9879 C.3       17 UNK        -0.1800 
     97 C          -7.4551  -19.2250  -50.0583 C.2       17 UNK         0.5000 
     98 O          -8.3764  -18.4269  -50.2356 O.2       17 UNK        -0.5000 
     99 N          -6.4762  -19.4558  -50.9455 N.am      18 UNK        -0.5000 
    100 CA        -6.3092  -18.8917  -52.2880 C.3       18 UNK         0.1400 
    101 CB        -6.2128  -17.3524  -52.2521 C.3       18 UNK        -0.1800 
    102 C         -7.3273  -19.4064  -53.3280 C.2       18 UNK         0.5000 
    103 O         -7.4058  -18.8353  -54.4166 O.2       18 UNK        -0.5000 
    104 N         -8.0595  -20.4886  -53.0183 N.am      19 UNK        -0.5000 
    105 CA        -8.9403  -21.1680  -53.9724 C.3       19 UNK         0.1400 
    106 CB        -9.9372  -22.0658  -53.2254 C.3       19 UNK        -0.1800 
    107 C         -8.1459  -21.9877  -55.0060 C.2       19 UNK         0.5000 
    108 O         -8.5448  -22.0403  -56.1701 O.2       19 UNK        -0.5000 
    109 N         -7.0334  -22.5929  -54.5676 N.am      20 UNK        -0.5000 
    110 CA        -6.0768  -23.2900  -55.4278 C.3       20 UNK         0.1400 
    111 CB        -5.5686  -24.5507  -54.7100 C.3       20 UNK        -0.1800 
    112 C         -4.9049  -22.3644  -55.7930 C.2       20 UNK         0.5000 
    113 O         -4.4290  -22.4018  -56.9301 O.2       20 UNK        -0.5000 
    114 N         -4.4762  -21.5421  -54.8218 N.am      21 UNK        -0.5000 
    115 CA        -3.3671  -20.5906  -54.8970 C.3       21 UNK         0.1400 
    116 CB        -3.7533  -19.3880  -55.7876 C.3       21 UNK        -0.1800 
    117 C         -2.0521  -21.2949  -55.2914 C.2       21 UNK         0.5000 
    118 O         -1.6645  -22.2591  -54.6302 O.2       21 UNK        -0.5000 
    119 N         -1.4116  -20.8151  -56.3588 N.am      22 UNK        -0.5000 
    120 CA        -0.2231  -21.4090  -56.9860 C.3       22 UNK         0.1400 
    121 C         -0.5489  -22.0110  -58.3869 C.2       22 UNK         0.5000 
    122 N         -1.8096  -22.2582  -58.7298 N.am      22 UNK        -0.7600 
    123 O          0.3524  -22.2785  -59.1771 O.2       22 UNK        -0.5000 
    124 C124        0.9494  -20.3919  -57.0197 C.3       23 UNK        -0.0398 
    125 S125        1.6687  -20.1007  -55.3658 S.3       23 UNK        -0.2404 
    126 C126        0.7302  -18.6547  -54.7834 C.3       23 UNK        -0.0205 
    127 H127        3.3962  -16.5861  -46.0805 H         1 UNK         0.0600 
    128 H128        3.6129  -15.2440  -44.9511 H         1 UNK         0.0600 
    129 H129        4.9137  -15.6793  -46.0615 H         1 UNK         0.0600 
    130 H130        2.4356  -16.1241  -48.0322 H         1 UNK         0.3000 
    131 H131        1.4667  -15.1126  -49.7128 H         1 UNK         0.0600 
    132 H132        4.0442  -14.3080  -49.9139 H         1 UNK         0.0800 
    133 H133        3.3824  -12.7358  -49.7296 H         1 UNK         0.0800 
    134 H134        4.5153  -15.3831  -51.8492 H         1 UNK         0.0800 
    135 H135        3.9106  -15.0290  -53.4402 H         1 UNK         0.0800 
    136 H136        2.3677  -16.5045  -54.4862 H         1 UNK         0.1150 
    137 H137        0.3593  -19.5440  -52.2256 H         1 UNK         0.1150 
    138 H138        2.9366  -16.7491  -50.2494 H         1 UNK         0.1150 
    139 H139        0.9712  -17.9442  -49.0518 H         1 UNK         0.0800 
    140 H140        0.2836  -19.3498  -49.8228 H         1 UNK         0.0800 
    141 H141        1.3912  -19.1017  -46.9589 H         1 UNK         0.0800 
    142 H142        2.8067  -20.0580  -46.6693 H         1 UNK         0.0800 
    143 H143        1.4717  -22.0660  -47.7164 H         1 UNK         0.0600 
    144 H144        1.4194  -21.1122  -44.9971 H         1 UNK         0.3000 
    145 H145       -0.0480  -24.0572  -43.6260 H         1 UNK         0.0600 
    146 H146        2.0786  -24.2227  -42.3627 H         1 UNK         0.0600 
    147 H147        2.3108  -24.8048  -44.0035 H         1 UNK         0.0600 
    148 H148        2.8988  -23.2089  -43.5502 H         1 UNK         0.0600 
    149 H149        1.1973  -21.8403  -42.3752 H         1 UNK         0.3000 
    150 H150       -1.1468  -19.3381  -42.8648 H         1 UNK         0.0600 
    151 H151       -2.5556  -20.5436  -41.2231 H         1 UNK         0.0600 
    152 H152       -1.5939  -19.3251  -40.4053 H         1 UNK         0.0600 
    153 H153       -1.1338  -21.0242  -40.3076 H         1 UNK         0.0600 
    154 H154        0.8838  -19.5990  -40.8844 H         1 UNK         0.3000 
    155 H155        3.7065  -19.5078  -42.6120 H         1 UNK         0.0600 
    156 H156        2.6560  -16.6457  -42.3789 H         1 UNK         0.0600 
    157 H157        3.3942  -17.3842  -43.7957 H         1 UNK         0.0600 
    158 H158        4.3522  -17.1182  -42.3515 H         1 UNK         0.0600 
    159 H159        2.6871  -17.9886  -40.2787 H         1 UNK         0.3000 
    160 H160        3.2086  -20.6527  -38.0407 H         1 UNK         0.0600 
    161 H161        5.1348  -18.2866  -38.3518 H         1 UNK         0.0600 
    162 H162        5.6041  -19.9808  -38.2775 H         1 UNK         0.0600 
    163 H163        4.8673  -19.2184  -36.8776 H         1 UNK         0.0600 
    164 H164        2.8203  -17.8520  -37.6084 H         1 UNK         0.3000 
    165 H165       -0.5004  -18.1221  -36.9850 H         1 UNK         0.0600 
    166 H166        0.2868  -15.8176  -36.5372 H         1 UNK         0.0600 
    167 H167        1.4869  -16.9791  -36.0065 H         1 UNK         0.0600 
    168 H168        1.7342  -16.0747  -37.4996 H         1 UNK         0.0600 
    169 H169       -1.5079  -17.1856  -38.7190 H         1 UNK         0.3000 
    170 H170       -1.7319  -16.9270  -41.1013 H         1 UNK         0.0600 
    171 H171       -2.2143  -14.9508  -39.6303 H         1 UNK         0.0600 
    172 H172       -0.9397  -14.0302  -40.4220 H         1 UNK         0.0600 
    173 H173       -2.3795  -14.5055  -41.3206 H         1 UNK         0.0600 
    174 H174        0.6532  -15.5341  -42.1511 H         1 UNK         0.3000 
    175 H175        1.1828  -16.3666  -44.4047 H         1 UNK         0.0600 
    176 H176       -1.2182  -16.0907  -46.2793 H         1 UNK         0.0600 
    177 H177        0.4543  -16.3468  -46.7635 H         1 UNK         0.0600 
    178 H178       -0.3947  -17.5941  -45.8724 H         1 UNK         0.0600 
    179 H179       -0.0818  -14.0315  -45.5689 H         1 UNK         0.3000 
    180 H180        0.3339  -11.7349  -43.8206 H         1 UNK         0.0600 
    181 H181        3.3687  -11.9307  -44.1942 H         1 UNK         0.0600 
    182 H182        2.5244  -11.5906  -42.6862 H         1 UNK         0.0600 
    183 H183        2.4674  -10.4278  -43.9996 H         1 UNK         0.0600 
    184 H184        1.8960  -12.3338  -46.3041 H         1 UNK         0.3000 
    185 H185       -0.6846  -11.2230  -48.3675 H         1 UNK         0.0600 
    186 H186        0.1875   -8.9344  -47.8845 H         1 UNK         0.0600 
    187 H187        1.8380   -9.5439  -47.8923 H         1 UNK         0.0600 
    188 H188        0.8755   -9.5677  -49.3709 H         1 UNK         0.0600 
    189 H189        2.1052  -11.7912  -48.8228 H         1 UNK         0.3000 
    190 H190       -0.8477  -20.1920  -45.7294 H         1 UNK         0.3000 
    191 H191       -2.7706  -19.7371  -47.8027 H         1 UNK         0.0600 
    192 H192       -3.0945  -19.7492  -44.7570 H         1 UNK         0.0600 
    193 H193       -4.2840  -19.1554  -45.9060 H         1 UNK         0.0600 
    194 H194       -2.7311  -18.3522  -45.7672 H         1 UNK         0.0600 
    195 H195       -2.3539  -22.3329  -45.3843 H         1 UNK         0.3000 
    196 H196       -4.6722  -23.8394  -46.0260 H         1 UNK         0.0600 
    197 H197       -3.5067  -25.6771  -44.8369 H         1 UNK         0.0600 
    198 H198       -3.3295  -24.1681  -43.9527 H         1 UNK         0.0600 
    199 H199       -1.9864  -24.7976  -44.9037 H         1 UNK         0.0600 
    200 H200       -1.2919  -24.1039  -47.2791 H         1 UNK         0.3000 
    201 H201       -1.7656  -26.2001  -49.1266 H         1 UNK         0.0600 
    202 H202        0.4986  -25.5443  -48.3726 H         1 UNK         0.0600 
    203 H203        0.3409  -23.9732  -49.1554 H         1 UNK         0.0600 
    204 H204        0.4006  -25.4412  -50.1239 H         1 UNK         0.0600 
    205 H205       -2.0228  -22.6636  -49.4858 H         1 UNK         0.3000 
    206 H206       -2.7705  -22.6437  -52.2584 H         1 UNK         0.0600 
    207 H207       -1.7730  -20.6790  -51.1486 H         1 UNK         0.0600 
    208 H208       -3.3888  -20.2429  -51.6766 H         1 UNK         0.0600 
    209 H209       -3.0986  -20.6052  -49.9912 H         1 UNK         0.0600 
    210 H210       -4.5226  -23.7116  -49.5638 H         1 UNK         0.3000 
    211 H211       -6.6137  -24.1753  -49.0405 H         1 UNK         0.0600 
    212 H212       -7.1945  -24.0807  -52.0522 H         1 UNK         0.0600 
    213 H213       -8.1673  -24.8822  -50.8288 H         1 UNK         0.0600 
    214 H214       -6.5504  -25.4707  -51.1832 H         1 UNK         0.0600 
    215 H215       -5.9701  -21.6233  -48.5536 H         1 UNK         0.3000 
    216 H216       -6.6473  -19.5660  -48.1227 H         1 UNK         0.0600 
    217 H217       -9.0254  -19.1018  -47.6892 H         1 UNK         0.0600 
    218 H218       -8.6254  -20.6989  -47.0792 H         1 UNK         0.0600 
    219 H219       -9.5201  -20.5282  -48.5889 H         1 UNK         0.0600 
    220 H220       -5.8121  -20.1778  -50.7062 H         1 UNK         0.3000 
    221 H221       -5.3438  -19.2582  -52.6366 H         1 UNK         0.0600 
    222 H222       -7.1700  -16.8898  -52.0113 H         1 UNK         0.0600 
    223 H223       -5.4820  -17.0195  -51.5152 H         1 UNK         0.0600 
    224 H224       -5.8976  -16.9585  -53.2190 H         1 UNK         0.0600 
    225 H225       -7.9672  -20.9101  -52.1015 H         1 UNK         0.3000 
    226 H226       -9.5141  -20.4107  -54.5111 H         1 UNK         0.0600 
    227 H227      -10.4785  -21.5080  -52.4610 H         1 UNK         0.0600 
    228 H228      -10.6759  -22.4792  -53.9129 H         1 UNK         0.0600 
    229 H229       -9.4401  -22.9065  -52.7407 H         1 UNK         0.0600 
    230 H230       -6.7596  -22.4655  -53.6001 H         1 UNK         0.3000 
    231 H231       -6.5601  -23.6043  -56.3552 H         1 UNK         0.0600 
    232 H232       -6.3918  -25.2213  -54.4632 H         1 UNK         0.0600 
    233 H233       -5.0440  -24.3121  -53.7847 H         1 UNK         0.0600 
    234 H234       -4.8756  -25.1053  -55.3438 H         1 UNK         0.0600 
    235 H235       -4.8922  -21.6529  -53.9023 H         1 UNK         0.3000 
    236 H236       -3.2098  -20.2074  -53.8912 H         1 UNK         0.0600 
    237 H237       -2.9785  -18.6203  -55.7761 H         1 UNK         0.0600 
    238 H238       -3.9249  -19.6794  -56.8244 H         1 UNK         0.0600 
    239 H239       -4.6683  -18.9183  -55.4263 H         1 UNK         0.0600 
    240 H240       -1.8272  -20.0439  -56.8610 H         1 UNK         0.3000 
    241 H241        0.1103  -22.2687  -56.4022 H         1 UNK         0.0600 
    242 H242       -2.5710  -22.1159  -58.0773 H         1 UNK         0.3800 
    243 H243       -2.0035  -22.6528  -59.6367 H         1 UNK         0.3800 
    244 H244        0.6368  -19.4479  -57.4681 H         1 UNK         0.0800 
    245 H245        1.7652  -20.7627  -57.6422 H         1 UNK         0.0800 
    246 H246       -0.3100  -18.9309  -54.6128 H         1 UNK         0.0800 
    247 H247        0.7244  -17.8861  -55.5578 H         1 UNK         0.0800 
@<TRIPOS>BOND
     1    1    2 1    
     2    1  127 1    
     3    1  128 1    
     4    1  129 1    
     5    2    3 2    
     6    2    4 am   BACKBONE|DICT|INTERRES
     7    4    5 1    
     8    4  130 1    
     9    5    6 1    
    10    5   65 1    
    11    5  131 1    
    12    6    7 1    
    13    6  132 1    
    14    6  133 1    
    15    7    8 1    
    16    8    9 1    
    17    8  134 1    
    18    8  135 1    
    19    9   10 ar   
    20    9   14 ar   
    21   10   11 ar   
    22   10  136 1    
    23   11   12 ar   
    24   11  126 1    
    25   12   13 ar   
    26   12  137 1    
    27   13   14 ar   
    28   13   15 1    
    29   14  138 1    
    30   15   16 1    
    31   15  139 1    
    32   15  140 1    
    33   16   17 1    
    34   17   18 1    
    35   17  141 1    
    36   17  142 1    
    37   18   19 1    
    38   18   67 1    
    39   18  143 1    
    40   19   20 am   BACKBONE|DICT|INTERRES
    41   19  144 1    
    42   20   21 2    
    43   20   22 1    
    44   22   23 1    
    45   22   24 1    
    46   22  145 1    
    47   23  146 1    
    48   23  147 1    
    49   23  148 1    
    50   24   25 am   BACKBONE|DICT|INTERRES
    51   24  149 1    
    52   25   26 2    
    53   25   27 1    
    54   27   28 1    
    55   27   29 1    
    56   27  150 1    
    57   28  151 1    
    58   28  152 1    
    59   28  153 1    
    60   29   30 am   BACKBONE|DICT|INTERRES
    61   29  154 1    
    62   30   31 2    
    63   30   32 1    
    64   32   33 1    
    65   32   34 1    
    66   32  155 1    
    67   33  156 1    
    68   33  157 1    
    69   33  158 1    
    70   34   35 am   BACKBONE|DICT|INTERRES
    71   34  159 1    
    72   35   36 2    
    73   35   37 1    
    74   37   38 1    
    75   37   39 1    
    76   37  160 1    
    77   38  161 1    
    78   38  162 1    
    79   38  163 1    
    80   39   40 am   BACKBONE|DICT|INTERRES
    81   39  164 1    
    82   40   41 2    
    83   40   42 1    
    84   42   43 1    
    85   42   44 1    
    86   42  165 1    
    87   43  166 1    
    88   43  167 1    
    89   43  168 1    
    90   44   45 am   BACKBONE|DICT|INTERRES
    91   44  169 1    
    92   45   46 2    
    93   45   47 1    
    94   47   48 1    
    95   47   49 1    
    96   47  170 1    
    97   48  171 1    
    98   48  172 1    
    99   48  173 1    
   100   49   50 am   BACKBONE|DICT|INTERRES
   101   49  174 1    
   102   50   51 2    
   103   50   52 1    
   104   52   53 1    
   105   52   54 1    
   106   52  175 1    
   107   53  176 1    
   108   53  177 1    
   109   53  178 1    
   110   54   55 am   BACKBONE|DICT|INTERRES
   111   54  179 1    
   112   55   56 2    
   113   55   57 1    
   114   57   58 1    
   115   57   59 1    
   116   57  180 1    
   117   58  181 1    
   118   58  182 1    
   119   58  183 1    
   120   59   60 am   BACKBONE|DICT|INTERRES
   121   59  184 1    
   122   60   61 2    
   123   60   62 1    
   124   62   63 1    
   125   62   64 1    
   126   62  185 1    
   127   63  186 1    
   128   63  187 1    
   129   63  188 1    
   130   64   65 am   BACKBONE|DICT|INTERRES
   131   64  189 1    
   132   65   66 2    
   133   67   68 2    
   134   67   69 am   BACKBONE|DICT|INTERRES
   135   69   70 1    
   136   69  190 1    
   137   70   71 1    
   138   70   72 1    
   139   70  191 1    
   140   71  192 1    
   141   71  193 1    
   142   71  194 1    
   143   72   73 2    
   144   72   74 am   BACKBONE|DICT|INTERRES
   145   74   75 1    
   146   74  195 1    
   147   75   76 1    
   148   75   77 1    
   149   75  196 1    
   150   76  197 1    
   151   76  198 1    
   152   76  199 1    
   153   77   78 2    
   154   77   79 am   BACKBONE|DICT|INTERRES
   155   79   80 1    
   156   79  200 1    
   157   80   81 1    
   158   80   82 1    
   159   80  201 1    
   160   81  202 1    
   161   81  203 1    
   162   81  204 1    
   163   82   83 2    
   164   82   84 am   BACKBONE|DICT|INTERRES
   165   84   85 1    
   166   84  205 1    
   167   85   86 1    
   168   85   87 1    
   169   85  206 1    
   170   86  207 1    
   171   86  208 1    
   172   86  209 1    
   173   87   88 2    
   174   87   89 am   BACKBONE|DICT|INTERRES
   175   89   90 1    
   176   89  210 1    
   177   90   91 1    
   178   90   92 1    
   179   90  211 1    
   180   91  212 1    
   181   91  213 1    
   182   91  214 1    
   183   92   93 2    
   184   92   94 am   BACKBONE|DICT|INTERRES
   185   94   95 1    
   186   94  215 1    
   187   95   96 1    
   188   95   97 1    
   189   95  216 1    
   190   96  217 1    
   191   96  218 1    
   192   96  219 1    
   193   97   98 2    
   194   97   99 am   BACKBONE|DICT|INTERRES
   195   99  100 1    
   196   99  220 1    
   197  100  101 1    
   198  100  102 1    
   199  100  221 1    
   200  101  222 1    
   201  101  223 1    
   202  101  224 1    
   203  102  103 2    
   204  102  104 am   BACKBONE|DICT|INTERRES
   205  104  105 1    
   206  104  225 1    
   207  105  106 1    
   208  105  107 1    
   209  105  226 1    
   210  106  227 1    
   211  106  228 1    
   212  106  229 1    
   213  107  108 2    
   214  107  109 am   BACKBONE|DICT|INTERRES
   215  109  110 1    
   216  109  230 1    
   217  110  111 1    
   218  110  112 1    
   219  110  231 1    
   220  111  232 1    
   221  111  233 1    
   222  111  234 1    
   223  112  113 2    
   224  112  114 am   BACKBONE|DICT|INTERRES
   225  114  115 1    
   226  114  235 1    
   227  115  116 1    
   228  115  117 1    
   229  115  236 1    
   230  116  237 1    
   231  116  238 1    
   232  116  239 1    
   233  117  118 2    
   234  117  119 am   BACKBONE|DICT|INTERRES
   235  119  120 1    
   236  119  240 1    
   237  120  121 1    
   238  120  124 1    
   239  120  241 1    
   240  121  122 am   BACKBONE|DICT|INTERRES
   241  121  123 2    
   242  122  242 1    
   243  122  243 1    
   244  124  125 1    
   245  124  244 1    
   246  124  245 1    
   247  125  126 1    
   248  126  246 1    
   249  126  247 1    
@<TRIPOS>SUBSTRUCTURE
     1 UNK         1 GROUP             0       ****    0 ROOT    
