@<TRIPOS>MOLECULE
3R540
247   249    1
SMALL
USER_CHARGES


@<TRIPOS>ATOM
      1 CA         -0.3822  -12.9556  -48.9725 C.3       0 UNK        -0.1800 
      2 C           1.0502  -12.9909  -48.4590 C.2       0 UNK         0.5000 
      3 O           1.2797  -13.4872  -47.3602 O.2       0 UNK        -0.5000 
      4 N           1.9892  -12.4436  -49.2441 N.am      1 UNK        -0.5000 
      5 CA          3.4566  -12.3808  -49.0940 C.3       1 UNK         0.1400 
      6 C6          4.1887  -13.7114  -49.4245 C.3       23 UNK        -0.0398 
      7 S7          4.0426  -15.0526  -48.1896 S.3       23 UNK        -0.2404 
      8 C8          4.9007  -16.4199  -49.0377 C.3       23 UNK        -0.0205 
      9 C9          3.9569  -17.4239  -49.6942 C.ar      23 UNK        -0.0193 
     10 C10         2.9311  -17.0052  -50.5471 C.ar      23 UNK        -0.1150 
     11 C11         2.0839  -17.9292  -51.1671 C.ar      23 UNK        -0.0193 
     12 C12         2.2942  -19.2956  -50.9524 C.ar      23 UNK        -0.1150 
     13 C13         3.3344  -19.7336  -50.1254 C.ar      23 UNK        -0.0193 
     14 C14         4.1490  -18.7931  -49.4884 C.ar      23 UNK        -0.1150 
     15 C15         3.6263  -21.2192  -49.9627 C.3       23 UNK        -0.0205 
     16 S16         2.9216  -21.9042  -48.4328 S.3       23 UNK        -0.2404 
     17 C17         1.1694  -22.0495  -48.9022 C.3       23 UNK        -0.0398 
     18 CA          0.3636  -22.9506  -47.9380 C.3       11 UNK         0.1400 
     19 N           0.3161  -22.4280  -46.5687 N.am      11 UNK        -0.5000 
     20 C          -0.2147  -23.0757  -45.5214 C.2       10 UNK         0.5000 
     21 O          -0.6639  -24.2202  -45.5793 O.2       10 UNK        -0.5000 
     22 CA         -0.3195  -22.2937  -44.2012 C.3       10 UNK         0.1400 
     23 CB          1.0064  -22.3216  -43.4260 C.3       10 UNK        -0.1800 
     24 N          -0.7455  -20.9119  -44.4247 N.am      10 UNK        -0.5000 
     25 C          -1.9825  -20.5632  -44.8070 C.2       9 UNK         0.5000 
     26 O          -2.9005  -21.3682  -44.9586 O.2       9 UNK        -0.5000 
     27 CA         -2.2310  -19.0737  -45.1069 C.3       9 UNK         0.1400 
     28 CB         -2.6309  -18.3251  -43.8274 C.3       9 UNK        -0.1800 
     29 N          -1.0812  -18.4115  -45.7235 N.am      9 UNK        -0.5000 
     30 C          -0.5843  -18.7274  -46.9274 C.2       8 UNK         0.5000 
     31 O          -1.0571  -19.6050  -47.6479 O.2       8 UNK        -0.5000 
     32 CA          0.6774  -17.9726  -47.3803 C.3       8 UNK         0.1400 
     33 CB          0.3011  -16.5741  -47.8796 C.3       8 UNK        -0.1800 
     34 N           1.7064  -17.8606  -46.3432 N.am      8 UNK        -0.5000 
     35 C           2.2563  -18.8845  -45.6778 C.2       7 UNK         0.5000 
     36 O           1.9211  -20.0565  -45.8402 O.2       7 UNK        -0.5000 
     37 CA          3.3169  -18.5587  -44.6084 C.3       7 UNK         0.1400 
     38 CB          4.6784  -18.2118  -45.2432 C.3       7 UNK        -0.1800 
     39 N           2.8640  -17.5522  -43.6377 N.am      7 UNK        -0.5000 
     40 C           2.6665  -16.2425  -43.8363 C.2       6 UNK         0.5000 
     41 O           2.9865  -15.6444  -44.8633 O.2       6 UNK        -0.5000 
     42 CA          1.9379  -15.4846  -42.7088 C.3       6 UNK         0.1400 
     43 CB          2.9324  -14.7329  -41.8120 C.3       6 UNK        -0.1800 
     44 N           0.9473  -14.5437  -43.2364 N.am      6 UNK        -0.5000 
     45 C          -0.0834  -14.8874  -44.0256 C.2       5 UNK         0.5000 
     46 O          -0.3473  -16.0552  -44.3189 O.2       5 UNK        -0.5000 
     47 CA         -0.9662  -13.7414  -44.5646 C.3       5 UNK         0.1400 
     48 CB         -2.3325  -14.2260  -45.0937 C.3       5 UNK        -0.1800 
     49 N          -1.1282  -12.6431  -43.6080 N.am      5 UNK        -0.5000 
     50 C          -1.6615  -12.7031  -42.3771 C.2       4 UNK         0.5000 
     51 O          -2.1948  -13.7111  -41.9110 O.2       4 UNK        -0.5000 
     52 CA         -1.5805  -11.4170  -41.5203 C.3       4 UNK         0.1400 
     53 CB         -1.4328  -11.7225  -40.0147 C.3       4 UNK        -0.1800 
     54 N          -0.5447  -10.4687  -41.9576 N.am      4 UNK        -0.5000 
     55 C           0.7758  -10.6907  -42.0267 C.2       3 UNK         0.5000 
     56 O           1.3213  -11.7457  -41.6946 O.2       3 UNK        -0.5000 
     57 CA          1.6245   -9.5412  -42.6010 C.3       3 UNK         0.1400 
     58 CB          2.2911   -8.7463  -41.4681 C.3       3 UNK        -0.1800 
     59 N           2.6564  -10.0198  -43.5228 N.am      3 UNK        -0.5000 
     60 C           2.4324  -10.7277  -44.6382 C.2       2 UNK         0.5000 
     61 O           1.3061  -11.0303  -45.0450 O.2       2 UNK        -0.5000 
     62 CA          3.6838  -11.1588  -45.4180 C.3       2 UNK         0.1400 
     63 CB          4.5010  -12.2072  -44.6423 C.3       2 UNK        -0.1800 
     64 N           3.2984  -11.7166  -46.7078 N.am      2 UNK        -0.5000 
     65 C           4.0233  -11.6920  -47.8269 C.2       1 UNK         0.5000 
     66 O           5.1182  -11.1301  -47.9010 O.2       1 UNK        -0.5000 
     67 C          -1.0518  -23.2006  -48.4948 C.2       11 UNK         0.5000 
     68 O          -1.3080  -24.2778  -49.0323 O.2       11 UNK        -0.5000 
     69 N          -1.9521  -22.2230  -48.3179 N.am      12 UNK        -0.5000 
     70 CA         -3.3598  -22.3082  -48.7034 C.3       12 UNK         0.1400 
     71 CB         -4.0430  -20.9539  -48.4695 C.3       12 UNK        -0.1800 
     72 C          -4.1078  -23.4311  -47.9652 C.2       12 UNK         0.5000 
     73 O          -4.8562  -24.1708  -48.6014 O.2       12 UNK        -0.5000 
     74 N          -3.8684  -23.5667  -46.6524 N.am      13 UNK        -0.5000 
     75 CA         -4.4233  -24.6316  -45.8156 C.3       13 UNK         0.1400 
     76 CB         -4.1060  -24.3582  -44.3381 C.3       13 UNK        -0.1800 
     77 C          -3.9351  -26.0305  -46.2312 C.2       13 UNK         0.5000 
     78 O          -4.7520  -26.9457  -46.3359 O.2       13 UNK        -0.5000 
     79 N          -2.6299  -26.1649  -46.5090 N.am      14 UNK        -0.5000 
     80 CA         -2.0071  -27.3951  -47.0081 C.3       14 UNK         0.1400 
     81 CB         -0.4809  -27.2238  -47.0328 C.3       14 UNK        -0.1800 
     82 C          -2.5321  -27.8149  -48.3952 C.2       14 UNK         0.5000 
     83 O          -2.7036  -29.0074  -48.6489 O.2       14 UNK        -0.5000 
     84 N          -2.8183  -26.8233  -49.2475 N.am      15 UNK        -0.5000 
     85 CA         -3.4417  -26.9837  -50.5611 C.3       15 UNK         0.1400 
     86 CB         -3.0440  -25.7818  -51.4304 C.3       15 UNK        -0.1800 
     87 C          -4.9783  -27.1314  -50.5048 C.2       15 UNK         0.5000 
     88 O          -5.6035  -27.2372  -51.5605 O.2       15 UNK        -0.5000 
     89 N          -5.5716  -27.1032  -49.3003 N.am      16 UNK        -0.5000 
     90 CA         -7.0091  -27.1923  -49.0096 C.3       16 UNK         0.1400 
     91 CB         -7.5286  -28.6130  -49.3117 C.3       16 UNK        -0.1800 
     92 C          -7.8460  -26.0898  -49.6975 C.2       16 UNK         0.5000 
     93 O          -8.9924  -26.3299  -50.0795 O.2       16 UNK        -0.5000 
     94 N          -7.2352  -24.9079  -49.8660 N.am      17 UNK        -0.5000 
     95 CA         -7.7289  -23.7123  -50.5560 C.3       17 UNK         0.1400 
     96 CB         -8.9564  -23.1270  -49.8291 C.3       17 UNK        -0.1800 
     97 C          -7.9724  -23.8921  -52.0720 C.2       17 UNK         0.5000 
     98 O          -8.5445  -22.9971  -52.6962 O.2       17 UNK        -0.5000 
     99 N          -7.5193  -25.0115  -52.6571 N.am      18 UNK        -0.5000 
    100 CA        -7.6110  -25.2878  -54.0942 C.3       18 UNK         0.1400 
    101 CB        -7.5387  -26.8057  -54.3202 C.3       18 UNK        -0.1800 
    102 C         -6.5146  -24.5676  -54.9036 C.2       18 UNK         0.5000 
    103 O         -6.6515  -24.4197  -56.1187 O.2       18 UNK        -0.5000 
    104 N         -5.4549  -24.1313  -54.2170 N.am      19 UNK        -0.5000 
    105 CA        -4.3229  -23.3770  -54.7336 C.3       19 UNK         0.1400 
    106 CB        -3.3182  -24.3360  -55.4006 C.3       19 UNK        -0.1800 
    107 C         -3.6876  -22.6144  -53.5603 C.2       19 UNK         0.5000 
    108 O         -4.1050  -22.7966  -52.4137 O.2       19 UNK        -0.5000 
    109 N         -2.6927  -21.7722  -53.8713 N.am      20 UNK        -0.5000 
    110 CA        -1.8261  -21.0308  -52.9416 C.3       20 UNK         0.1400 
    111 CB        -0.9772  -22.0044  -52.1007 C.3       20 UNK        -0.1800 
    112 C         -2.5304  -19.9755  -52.0602 C.2       20 UNK         0.5000 
    113 O         -1.8874  -19.3919  -51.1879 O.2       20 UNK        -0.5000 
    114 N         -3.8135  -19.6986  -52.3218 N.am      21 UNK        -0.5000 
    115 CA        -4.6319  -18.6989  -51.6356 C.3       21 UNK         0.1400 
    116 CB        -6.1110  -19.1061  -51.7633 C.3       21 UNK        -0.1800 
    117 C         -4.3450  -17.2781  -52.1653 C.2       21 UNK         0.5000 
    118 O         -5.2438  -16.6099  -52.6793 O.2       21 UNK        -0.5000 
    119 N         -3.0799  -16.8575  -52.0578 N.am      22 UNK        -0.5000 
    120 CA        -2.5693  -15.5566  -52.5168 C.3       22 UNK         0.1400 
    121 C         -2.9199  -14.3441  -51.6021 C.2       22 UNK         0.5000 
    122 N         -3.4841  -14.5422  -50.4166 N.am      22 UNK        -0.7600 
    123 O         -2.6918  -13.2000  -51.9855 O.2       22 UNK        -0.5000 
    124 C124       -1.0556  -15.6260  -52.8480 C.3       23 UNK        -0.0398 
    125 S125       -0.0064  -16.0885  -51.4255 S.3       23 UNK        -0.2404 
    126 C126        0.9853  -17.4556  -52.1151 C.3       23 UNK        -0.0205 
    127 H127       -1.0129  -12.3884  -48.2881 H         1 UNK         0.0600 
    128 H128       -0.4520  -12.5000  -49.9606 H         1 UNK         0.0600 
    129 H129       -0.7788  -13.9686  -49.0406 H         1 UNK         0.0600 
    130 H130        1.6653  -12.0241  -50.1040 H         1 UNK         0.3000 
    131 H131        3.7389  -11.6980  -49.8971 H         1 UNK         0.0600 
    132 H132        3.8419  -14.0756  -50.3902 H         1 UNK         0.0800 
    133 H133        5.2527  -13.5116  -49.5628 H         1 UNK         0.0800 
    134 H134        5.5836  -16.0266  -49.7914 H         1 UNK         0.0800 
    135 H135        5.5250  -16.9230  -48.2980 H         1 UNK         0.0800 
    136 H136        2.7805  -15.9534  -50.7303 H         1 UNK         0.1150 
    137 H137        1.6654  -20.0195  -51.4501 H         1 UNK         0.1150 
    138 H138        4.9526  -19.1338  -48.8505 H         1 UNK         0.1150 
    139 H139        3.2624  -21.7802  -50.8248 H         1 UNK         0.0800 
    140 H140        4.7063  -21.3720  -49.9434 H         1 UNK         0.0800 
    141 H141        1.1346  -22.4660  -49.9098 H         1 UNK         0.0800 
    142 H142        0.7379  -21.0493  -48.9616 H         1 UNK         0.0800 
    143 H143        0.8626  -23.9210  -47.8925 H         1 UNK         0.0600 
    144 H144        0.7154  -21.5050  -46.4222 H         1 UNK         0.3000 
    145 H145       -1.0748  -22.7841  -43.5834 H         1 UNK         0.0600 
    146 H146        0.9228  -21.7844  -42.4812 H         1 UNK         0.0600 
    147 H147        1.2942  -23.3472  -43.1920 H         1 UNK         0.0600 
    148 H148        1.8237  -21.8780  -43.9937 H         1 UNK         0.0600 
    149 H149       -0.0287  -20.2014  -44.3974 H         1 UNK         0.3000 
    150 H150       -3.0646  -19.0137  -45.8094 H         1 UNK         0.0600 
    151 H151       -3.4899  -18.7971  -43.3488 H         1 UNK         0.0600 
    152 H152       -2.9072  -17.2935  -44.0458 H         1 UNK         0.0600 
    153 H153       -1.8169  -18.3059  -43.1016 H         1 UNK         0.0600 
    154 H154       -0.6655  -17.6393  -45.2046 H         1 UNK         0.3000 
    155 H155        1.1113  -18.5281  -48.2139 H         1 UNK         0.0600 
    156 H156        1.1429  -16.1001  -48.3830 H         1 UNK         0.0600 
    157 H157       -0.0111  -15.9232  -47.0631 H         1 UNK         0.0600 
    158 H158       -0.5221  -16.6206  -48.5927 H         1 UNK         0.0600 
    159 H159        2.0336  -16.9253  -46.1211 H         1 UNK         0.3000 
    160 H160        3.4621  -19.4716  -44.0283 H         1 UNK         0.0600 
    161 H161        4.6186  -17.3462  -45.9029 H         1 UNK         0.0600 
    162 H162        5.0451  -19.0452  -45.8437 H         1 UNK         0.0600 
    163 H163        5.4286  -18.0030  -44.4807 H         1 UNK         0.0600 
    164 H164        2.5556  -17.9376  -42.7560 H         1 UNK         0.3000 
    165 H165        1.4003  -16.2081  -42.0927 H         1 UNK         0.0600 
    166 H166        3.4518  -13.9447  -42.3564 H         1 UNK         0.0600 
    167 H167        2.4254  -14.2719  -40.9641 H         1 UNK         0.0600 
    168 H168        3.6879  -15.4094  -41.4107 H         1 UNK         0.0600 
    169 H169        1.0889  -13.5663  -43.0146 H         1 UNK         0.3000 
    170 H170       -0.4234  -13.3194  -45.4096 H         1 UNK         0.0600 
    171 H171       -2.9205  -14.7110  -44.3143 H         1 UNK         0.0600 
    172 H172       -2.2038  -14.9472  -45.9018 H         1 UNK         0.0600 
    173 H173       -2.9177  -13.3970  -45.4911 H         1 UNK         0.0600 
    174 H174       -0.6863  -11.7758  -43.8841 H         1 UNK         0.3000 
    175 H175       -2.5349  -10.9073  -41.6591 H         1 UNK         0.0600 
    176 H176       -1.3820  -10.8047  -39.4289 H         1 UNK         0.0600 
    177 H177       -2.2846  -12.2940  -39.6445 H         1 UNK         0.0600 
    178 H178       -0.5346  -12.3044  -39.8057 H         1 UNK         0.0600 
    179 H179       -0.8925   -9.5718  -42.2685 H         1 UNK         0.3000 
    180 H180        0.9732   -8.8667  -43.1606 H         1 UNK         0.0600 
    181 H181        2.9792   -9.3674  -40.8929 H         1 UNK         0.0600 
    182 H182        1.5458   -8.3543  -40.7748 H         1 UNK         0.0600 
    183 H183        2.8505   -7.8954  -41.8573 H         1 UNK         0.0600 
    184 H184        3.6107   -9.8365  -43.2499 H         1 UNK         0.3000 
    185 H185        4.2935  -10.2666  -45.5745 H         1 UNK         0.0600 
    186 H186        5.4225  -12.4566  -45.1685 H         1 UNK         0.0600 
    187 H187        4.7810  -11.8496  -43.6510 H         1 UNK         0.0600 
    188 H188        3.9343  -13.1293  -44.5153 H         1 UNK         0.0600 
    189 H189        2.4106  -12.2180  -46.7215 H         1 UNK         0.3000 
    190 H190       -1.6446  -21.3388  -47.9170 H         1 UNK         0.3000 
    191 H191       -3.3968  -22.5266  -49.7721 H         1 UNK         0.0600 
    192 H192       -3.5017  -20.1526  -48.9709 H         1 UNK         0.0600 
    193 H193       -5.0613  -20.9586  -48.8599 H         1 UNK         0.0600 
    194 H194       -4.0948  -20.7048  -47.4096 H         1 UNK         0.0600 
    195 H195       -3.2817  -22.8822  -46.1852 H         1 UNK         0.3000 
    196 H196       -5.5086  -24.6129  -45.9351 H         1 UNK         0.0600 
    197 H197       -4.5185  -25.1394  -43.6985 H         1 UNK         0.0600 
    198 H198       -4.5366  -23.4113  -44.0121 H         1 UNK         0.0600 
    199 H199       -3.0321  -24.3175  -44.1565 H         1 UNK         0.0600 
    200 H200       -2.0115  -25.3717  -46.3600 H         1 UNK         0.3000 
    201 H201       -2.2478  -28.1973  -46.3076 H         1 UNK         0.0600 
    202 H202       -0.0930  -27.0070  -46.0374 H         1 UNK         0.0600 
    203 H203       -0.1777  -26.4109  -47.6932 H         1 UNK         0.0600 
    204 H204        0.0096  -28.1329  -47.3827 H         1 UNK         0.0600 
    205 H205       -2.5846  -25.8728  -48.9775 H         1 UNK         0.3000 
    206 H206       -3.0497  -27.8871  -51.0321 H         1 UNK         0.0600 
    207 H207       -1.9623  -25.7185  -51.5488 H         1 UNK         0.0600 
    208 H208       -3.4773  -25.8498  -52.4285 H         1 UNK         0.0600 
    209 H209       -3.3836  -24.8473  -50.9842 H         1 UNK         0.0600 
    210 H210       -4.9807  -26.9769  -48.4877 H         1 UNK         0.3000 
    211 H211       -7.1127  -27.0232  -47.9371 H         1 UNK         0.0600 
    212 H212       -7.5081  -28.8321  -50.3798 H         1 UNK         0.0600 
    213 H213       -8.5575  -28.7353  -48.9718 H         1 UNK         0.0600 
    214 H214       -6.9287  -29.3675  -48.8028 H         1 UNK         0.0600 
    215 H215       -6.2963  -24.8093  -49.4797 H         1 UNK         0.3000 
    216 H216       -6.9237  -22.9802  -50.4758 H         1 UNK         0.0600 
    217 H217       -8.7540  -22.9839  -48.7676 H         1 UNK         0.0600 
    218 H218       -9.8290  -23.7740  -49.9213 H         1 UNK         0.0600 
    219 H219       -9.2281  -22.1537  -50.2392 H         1 UNK         0.0600 
    220 H220       -7.0458  -25.7083  -52.0928 H         1 UNK         0.3000 
    221 H221       -8.5786  -24.9382  -54.4602 H         1 UNK         0.0600 
    222 H222       -6.5653  -27.2093  -54.0401 H         1 UNK         0.0600 
    223 H223       -8.2993  -27.3293  -53.7407 H         1 UNK         0.0600 
    224 H224       -7.7026  -27.0507  -55.3703 H         1 UNK         0.0600 
    225 H225       -5.4462  -24.2355  -53.2099 H         1 UNK         0.3000 
    226 H226       -4.6790  -22.6463  -55.4625 H         1 UNK         0.0600 
    227 H227       -3.7820  -24.8919  -56.2155 H         1 UNK         0.0600 
    228 H228       -2.4727  -23.7938  -55.8247 H         1 UNK         0.0600 
    229 H229       -2.9203  -25.0596  -54.6886 H         1 UNK         0.0600 
    230 H230       -2.4521  -21.6679  -54.8474 H         1 UNK         0.3000 
    231 H231       -1.1370  -20.4636  -53.5689 H         1 UNK         0.0600 
    232 H232       -0.2700  -21.4611  -51.4756 H         1 UNK         0.0600 
    233 H233       -0.3994  -22.6754  -52.7360 H         1 UNK         0.0600 
    234 H234       -1.5930  -22.6160  -51.4420 H         1 UNK         0.0600 
    235 H235       -4.2614  -20.2101  -53.0668 H         1 UNK         0.3000 
    236 H236       -4.3814  -18.6983  -50.5737 H         1 UNK         0.0600 
    237 H237       -6.7572  -18.4065  -51.2317 H         1 UNK         0.0600 
    238 H238       -6.4351  -19.1295  -52.8044 H         1 UNK         0.0600 
    239 H239       -6.2845  -20.0948  -51.3370 H         1 UNK         0.0600 
    240 H240       -2.4037  -17.4791  -51.6250 H         1 UNK         0.3000 
    241 H241       -3.0735  -15.3404  -53.4607 H         1 UNK         0.0600 
    242 H242       -3.6761  -15.4752  -50.0921 H         1 UNK         0.3800 
    243 H243       -3.7181  -13.7496  -49.8409 H         1 UNK         0.3800 
    244 H244       -0.9009  -16.3432  -53.6550 H         1 UNK         0.0800 
    245 H245       -0.7034  -14.6697  -53.2384 H         1 UNK         0.0800 
    246 H246        1.4509  -17.1278  -53.0453 H         1 UNK         0.0800 
    247 H247        0.3175  -18.2794  -52.3695 H         1 UNK         0.0800 
@<TRIPOS>BOND
     1    1    2 1    
     2    1  127 1    
     3    1  128 1    
     4    1  129 1    
     5    2    3 2    
     6    2    4 am   BACKBONE|DICT|INTERRES
     7    4    5 1    
     8    4  130 1    
     9    5    6 1    
    10    5   65 1    
    11    5  131 1    
    12    6    7 1    
    13    6  132 1    
    14    6  133 1    
    15    7    8 1    
    16    8    9 1    
    17    8  134 1    
    18    8  135 1    
    19    9   10 ar   
    20    9   14 ar   
    21   10   11 ar   
    22   10  136 1    
    23   11   12 ar   
    24   11  126 1    
    25   12   13 ar   
    26   12  137 1    
    27   13   14 ar   
    28   13   15 1    
    29   14  138 1    
    30   15   16 1    
    31   15  139 1    
    32   15  140 1    
    33   16   17 1    
    34   17   18 1    
    35   17  141 1    
    36   17  142 1    
    37   18   19 1    
    38   18   67 1    
    39   18  143 1    
    40   19   20 am   BACKBONE|DICT|INTERRES
    41   19  144 1    
    42   20   21 2    
    43   20   22 1    
    44   22   23 1    
    45   22   24 1    
    46   22  145 1    
    47   23  146 1    
    48   23  147 1    
    49   23  148 1    
    50   24   25 am   BACKBONE|DICT|INTERRES
    51   24  149 1    
    52   25   26 2    
    53   25   27 1    
    54   27   28 1    
    55   27   29 1    
    56   27  150 1    
    57   28  151 1    
    58   28  152 1    
    59   28  153 1    
    60   29   30 am   BACKBONE|DICT|INTERRES
    61   29  154 1    
    62   30   31 2    
    63   30   32 1    
    64   32   33 1    
    65   32   34 1    
    66   32  155 1    
    67   33  156 1    
    68   33  157 1    
    69   33  158 1    
    70   34   35 am   BACKBONE|DICT|INTERRES
    71   34  159 1    
    72   35   36 2    
    73   35   37 1    
    74   37   38 1    
    75   37   39 1    
    76   37  160 1    
    77   38  161 1    
    78   38  162 1    
    79   38  163 1    
    80   39   40 am   BACKBONE|DICT|INTERRES
    81   39  164 1    
    82   40   41 2    
    83   40   42 1    
    84   42   43 1    
    85   42   44 1    
    86   42  165 1    
    87   43  166 1    
    88   43  167 1    
    89   43  168 1    
    90   44   45 am   BACKBONE|DICT|INTERRES
    91   44  169 1    
    92   45   46 2    
    93   45   47 1    
    94   47   48 1    
    95   47   49 1    
    96   47  170 1    
    97   48  171 1    
    98   48  172 1    
    99   48  173 1    
   100   49   50 am   BACKBONE|DICT|INTERRES
   101   49  174 1    
   102   50   51 2    
   103   50   52 1    
   104   52   53 1    
   105   52   54 1    
   106   52  175 1    
   107   53  176 1    
   108   53  177 1    
   109   53  178 1    
   110   54   55 am   BACKBONE|DICT|INTERRES
   111   54  179 1    
   112   55   56 2    
   113   55   57 1    
   114   57   58 1    
   115   57   59 1    
   116   57  180 1    
   117   58  181 1    
   118   58  182 1    
   119   58  183 1    
   120   59   60 am   BACKBONE|DICT|INTERRES
   121   59  184 1    
   122   60   61 2    
   123   60   62 1    
   124   62   63 1    
   125   62   64 1    
   126   62  185 1    
   127   63  186 1    
   128   63  187 1    
   129   63  188 1    
   130   64   65 am   BACKBONE|DICT|INTERRES
   131   64  189 1    
   132   65   66 2    
   133   67   68 2    
   134   67   69 am   BACKBONE|DICT|INTERRES
   135   69   70 1    
   136   69  190 1    
   137   70   71 1    
   138   70   72 1    
   139   70  191 1    
   140   71  192 1    
   141   71  193 1    
   142   71  194 1    
   143   72   73 2    
   144   72   74 am   BACKBONE|DICT|INTERRES
   145   74   75 1    
   146   74  195 1    
   147   75   76 1    
   148   75   77 1    
   149   75  196 1    
   150   76  197 1    
   151   76  198 1    
   152   76  199 1    
   153   77   78 2    
   154   77   79 am   BACKBONE|DICT|INTERRES
   155   79   80 1    
   156   79  200 1    
   157   80   81 1    
   158   80   82 1    
   159   80  201 1    
   160   81  202 1    
   161   81  203 1    
   162   81  204 1    
   163   82   83 2    
   164   82   84 am   BACKBONE|DICT|INTERRES
   165   84   85 1    
   166   84  205 1    
   167   85   86 1    
   168   85   87 1    
   169   85  206 1    
   170   86  207 1    
   171   86  208 1    
   172   86  209 1    
   173   87   88 2    
   174   87   89 am   BACKBONE|DICT|INTERRES
   175   89   90 1    
   176   89  210 1    
   177   90   91 1    
   178   90   92 1    
   179   90  211 1    
   180   91  212 1    
   181   91  213 1    
   182   91  214 1    
   183   92   93 2    
   184   92   94 am   BACKBONE|DICT|INTERRES
   185   94   95 1    
   186   94  215 1    
   187   95   96 1    
   188   95   97 1    
   189   95  216 1    
   190   96  217 1    
   191   96  218 1    
   192   96  219 1    
   193   97   98 2    
   194   97   99 am   BACKBONE|DICT|INTERRES
   195   99  100 1    
   196   99  220 1    
   197  100  101 1    
   198  100  102 1    
   199  100  221 1    
   200  101  222 1    
   201  101  223 1    
   202  101  224 1    
   203  102  103 2    
   204  102  104 am   BACKBONE|DICT|INTERRES
   205  104  105 1    
   206  104  225 1    
   207  105  106 1    
   208  105  107 1    
   209  105  226 1    
   210  106  227 1    
   211  106  228 1    
   212  106  229 1    
   213  107  108 2    
   214  107  109 am   BACKBONE|DICT|INTERRES
   215  109  110 1    
   216  109  230 1    
   217  110  111 1    
   218  110  112 1    
   219  110  231 1    
   220  111  232 1    
   221  111  233 1    
   222  111  234 1    
   223  112  113 2    
   224  112  114 am   BACKBONE|DICT|INTERRES
   225  114  115 1    
   226  114  235 1    
   227  115  116 1    
   228  115  117 1    
   229  115  236 1    
   230  116  237 1    
   231  116  238 1    
   232  116  239 1    
   233  117  118 2    
   234  117  119 am   BACKBONE|DICT|INTERRES
   235  119  120 1    
   236  119  240 1    
   237  120  121 1    
   238  120  124 1    
   239  120  241 1    
   240  121  122 am   BACKBONE|DICT|INTERRES
   241  121  123 2    
   242  122  242 1    
   243  122  243 1    
   244  124  125 1    
   245  124  244 1    
   246  124  245 1    
   247  125  126 1    
   248  126  246 1    
   249  126  247 1    
@<TRIPOS>SUBSTRUCTURE
     1 UNK         1 GROUP             0       ****    0 ROOT    
