@<TRIPOS>MOLECULE
3R540
247   249    1
SMALL
USER_CHARGES


@<TRIPOS>ATOM
      1 CA         -3.3360  -15.5791  -47.8521 C.3       0 UNK        -0.1800 
      2 C          -3.0927  -14.8018  -46.5664 C.2       0 UNK         0.5000 
      3 O          -3.8385  -13.8705  -46.2659 O.2       0 UNK        -0.5000 
      4 N          -2.0445  -15.1761  -45.8199 N.am      1 UNK        -0.5000 
      5 CA         -1.5061  -14.4729  -44.6436 C.3       1 UNK         0.1400 
      6 C6         -2.4563  -14.4614  -43.4152 C.3       23 UNK        -0.0398 
      7 S7         -2.7823  -16.1512  -42.7948 S.3       23 UNK        -0.2404 
      8 C8         -4.5363  -16.4079  -43.2103 C.3       23 UNK        -0.0205 
      9 C9         -4.7570  -17.7684  -43.8547 C.ar      23 UNK        -0.0193 
     10 C10        -4.6943  -17.8938  -45.2419 C.ar      23 UNK        -0.1150 
     11 C11        -4.9046  -19.1246  -45.8628 C.ar      23 UNK        -0.0193 
     12 C12        -5.1981  -20.2445  -45.0802 C.ar      23 UNK        -0.1150 
     13 C13        -5.2527  -20.1426  -43.6833 C.ar      23 UNK        -0.0193 
     14 C14        -5.0324  -18.8983  -43.0794 C.ar      23 UNK        -0.1150 
     15 C15        -5.5732  -21.3511  -42.8052 C.3       23 UNK        -0.0205 
     16 S16        -4.8645  -22.9319  -43.3853 S.3       23 UNK        -0.2404 
     17 C17        -3.0686  -22.6178  -43.2788 C.3       23 UNK        -0.0398 
     18 CA         -2.2932  -23.1677  -44.5025 C.3       11 UNK         0.1400 
     19 N          -1.0212  -22.4630  -44.6922 N.am      11 UNK        -0.5000 
     20 C          -0.1779  -22.6374  -45.7223 C.2       10 UNK         0.5000 
     21 O          -0.4078  -23.3958  -46.6651 O.2       10 UNK        -0.5000 
     22 CA          1.1711  -21.8919  -45.6724 C.3       10 UNK         0.1400 
     23 CB          1.0968  -20.6129  -46.5178 C.3       10 UNK        -0.1800 
     24 N           1.6055  -21.5465  -44.3160 N.am      10 UNK        -0.5000 
     25 C           1.8170  -22.4252  -43.3217 C.2       9 UNK         0.5000 
     26 O           1.7447  -23.6450  -43.4696 O.2       9 UNK        -0.5000 
     27 CA          2.0872  -21.8572  -41.9128 C.3       9 UNK         0.1400 
     28 CB          3.5916  -21.8876  -41.6047 C.3       9 UNK        -0.1800 
     29 N           1.5919  -20.4933  -41.7126 N.am      9 UNK        -0.5000 
     30 C           0.3252  -20.0767  -41.8640 C.2       8 UNK         0.5000 
     31 O          -0.6128  -20.8315  -42.1204 O.2       8 UNK        -0.5000 
     32 CA          0.0798  -18.5560  -41.7781 C.3       8 UNK         0.1400 
     33 CB         -0.5344  -18.1837  -40.4208 C.3       8 UNK        -0.1800 
     34 N           1.2888  -17.7514  -41.9980 N.am      8 UNK        -0.5000 
     35 C           1.9783  -17.7082  -43.1461 C.2       7 UNK         0.5000 
     36 O           1.6710  -18.3474  -44.1547 O.2       7 UNK        -0.5000 
     37 CA          3.2750  -16.8862  -43.1375 C.3       7 UNK         0.1400 
     38 CB          4.4937  -17.8176  -43.0379 C.3       7 UNK        -0.1800 
     39 N           3.3740  -16.1015  -44.3628 N.am      7 UNK        -0.5000 
     40 C           2.8551  -14.8780  -44.5163 C.2       6 UNK         0.5000 
     41 O           2.3080  -14.2446  -43.6129 O.2       6 UNK        -0.5000 
     42 CA          2.9504  -14.2615  -45.9238 C.3       6 UNK         0.1400 
     43 CB          4.2965  -13.5476  -46.1145 C.3       6 UNK        -0.1800 
     44 N           2.7493  -15.2199  -47.0143 N.am      6 UNK        -0.5000 
     45 C           1.6388  -15.9465  -47.2063 C.2       5 UNK         0.5000 
     46 O           0.6559  -15.8997  -46.4698 O.2       5 UNK        -0.5000 
     47 CA          1.6082  -16.8178  -48.4665 C.3       5 UNK         0.1400 
     48 CB          0.2873  -17.5902  -48.6262 C.3       5 UNK        -0.1800 
     49 N           1.8080  -15.9545  -49.6259 N.am      5 UNK        -0.5000 
     50 C           2.7054  -16.1624  -50.5954 C.2       4 UNK         0.5000 
     51 O           3.4515  -17.1411  -50.6361 O.2       4 UNK        -0.5000 
     52 CA          2.7976  -15.1066  -51.7154 C.3       4 UNK         0.1400 
     53 CB          2.0726  -15.6034  -52.9762 C.3       4 UNK        -0.1800 
     54 N           2.2636  -13.7905  -51.3568 N.am      4 UNK        -0.5000 
     55 C           2.7747  -12.9620  -50.4359 C.2       3 UNK         0.5000 
     56 O           3.7620  -13.2297  -49.7500 O.2       3 UNK        -0.5000 
     57 CA          2.0689  -11.6010  -50.2433 C.3       3 UNK         0.1400 
     58 CB          1.0071  -11.2821  -51.3209 C.3       3 UNK        -0.1800 
     59 N           1.4808  -11.4491  -48.9082 N.am      3 UNK        -0.5000 
     60 C           0.6040  -12.2719  -48.3177 C.2       2 UNK         0.5000 
     61 O           0.2173  -13.3401  -48.8044 O.2       2 UNK        -0.5000 
     62 CA          0.0453  -11.8035  -46.9640 C.3       2 UNK         0.1400 
     63 CB         -1.0607  -10.7520  -47.1764 C.3       2 UNK        -0.1800 
     64 N          -0.4879  -12.9728  -46.2818 N.am      2 UNK        -0.5000 
     65 C          -0.9556  -13.0777  -45.0321 C.2       1 UNK         0.5000 
     66 O          -0.9615  -12.1493  -44.2221 O.2       1 UNK        -0.5000 
     67 C          -2.1225  -24.7048  -44.4235 C.2       11 UNK         0.5000 
     68 O          -3.0165  -25.4318  -44.8565 O.2       11 UNK        -0.5000 
     69 N          -0.9598  -25.1843  -43.9500 N.am      12 UNK        -0.5000 
     70 CA         -0.6059  -26.6084  -43.9133 C.3       12 UNK         0.1400 
     71 CB          0.6678  -26.7942  -43.0756 C.3       12 UNK        -0.1800 
     72 C          -0.4269  -27.2342  -45.3132 C.2       12 UNK         0.5000 
     73 O          -0.5939  -28.4452  -45.4594 O.2       12 UNK        -0.5000 
     74 N          -0.1209  -26.3985  -46.3143 N.am      13 UNK        -0.5000 
     75 CA         -0.0435  -26.7533  -47.7322 C.3       13 UNK         0.1400 
     76 CB          1.2477  -26.1471  -48.3098 C.3       13 UNK        -0.1800 
     77 C          -1.2811  -26.2523  -48.5065 C.2       13 UNK         0.5000 
     78 O          -1.2569  -26.2345  -49.7391 O.2       13 UNK        -0.5000 
     79 N          -2.3170  -25.7962  -47.7811 N.am      14 UNK        -0.5000 
     80 CA         -3.5477  -25.1629  -48.2703 C.3       14 UNK         0.1400 
     81 CB         -4.4317  -26.1991  -48.9950 C.3       14 UNK        -0.1800 
     82 C          -3.2893  -23.9068  -49.1301 C.2       14 UNK         0.5000 
     83 O          -4.0901  -23.5986  -50.0127 O.2       14 UNK        -0.5000 
     84 N          -2.1506  -23.2354  -48.8956 N.am      15 UNK        -0.5000 
     85 CA         -1.5898  -22.1348  -49.6831 C.3       15 UNK         0.1400 
     86 CB         -2.3776  -20.8409  -49.4229 C.3       15 UNK        -0.1800 
     87 C          -1.4494  -22.4842  -51.1802 C.2       15 UNK         0.5000 
     88 O          -1.8143  -21.6827  -52.0416 O.2       15 UNK        -0.5000 
     89 N          -0.9569  -23.7040  -51.4504 N.am      16 UNK        -0.5000 
     90 CA         -0.7979  -24.3169  -52.7734 C.3       16 UNK         0.1400 
     91 CB          0.2603  -23.5598  -53.6046 C.3       16 UNK        -0.1800 
     92 C          -2.1495  -24.4707  -53.5009 C.2       16 UNK         0.5000 
     93 O          -2.2703  -24.1065  -54.6706 O.2       16 UNK        -0.5000 
     94 N          -3.1537  -24.9725  -52.7656 N.am      17 UNK        -0.5000 
     95 CA         -4.5655  -25.0766  -53.1569 C.3       17 UNK         0.1400 
     96 CB         -4.7527  -26.1038  -54.2928 C.3       17 UNK        -0.1800 
     97 C          -5.1734  -23.6926  -53.4732 C.2       17 UNK         0.5000 
     98 O          -5.7969  -23.5013  -54.5183 O.2       17 UNK        -0.5000 
     99 N          -4.9347  -22.7490  -52.5529 N.am      18 UNK        -0.5000 
    100 CA        -5.3332  -21.3392  -52.5458 C.3       18 UNK         0.1400 
    101 CB        -6.8700  -21.2042  -52.5523 C.3       18 UNK        -0.1800 
    102 C         -4.6696  -20.4506  -53.6198 C.2       18 UNK         0.5000 
    103 O         -5.0005  -19.2654  -53.6951 O.2       18 UNK        -0.5000 
    104 N         -3.7410  -20.9992  -54.4153 N.am      19 UNK        -0.5000 
    105 CA        -3.0415  -20.2856  -55.4847 C.3       19 UNK         0.1400 
    106 CB        -2.2781  -21.2904  -56.3588 C.3       19 UNK        -0.1800 
    107 C         -2.0895  -19.1921  -54.9683 C.2       19 UNK         0.5000 
    108 O         -1.9271  -18.1693  -55.6362 O.2       19 UNK        -0.5000 
    109 N         -1.4867  -19.4104  -53.7926 N.am      20 UNK        -0.5000 
    110 CA        -0.6238  -18.4454  -53.1232 C.3       20 UNK         0.1400 
    111 CB         0.4107  -19.1926  -52.2643 C.3       20 UNK        -0.1800 
    112 C         -1.4848  -17.4725  -52.3009 C.2       20 UNK         0.5000 
    113 O         -1.7320  -17.7131  -51.1210 O.2       20 UNK        -0.5000 
    114 N         -1.9567  -16.4046  -52.9563 N.am      21 UNK        -0.5000 
    115 CA        -2.6498  -15.2251  -52.4143 C.3       21 UNK         0.1400 
    116 CB        -1.7258  -14.4667  -51.4392 C.3       21 UNK        -0.1800 
    117 C         -4.0443  -15.4491  -51.7842 C.2       21 UNK         0.5000 
    118 O         -4.8209  -14.4942  -51.7329 O.2       21 UNK        -0.5000 
    119 N         -4.3438  -16.6632  -51.3081 N.am      22 UNK        -0.5000 
    120 CA        -5.5965  -17.0224  -50.6210 C.3       22 UNK         0.1400 
    121 C         -6.8758  -16.8911  -51.4964 C.2       22 UNK         0.5000 
    122 N         -6.8367  -17.2806  -52.7642 N.am      22 UNK        -0.7600 
    123 O         -7.9086  -16.4235  -51.0248 O.2       22 UNK        -0.5000 
    124 C124       -5.5060  -18.4254  -49.9575 C.3       23 UNK        -0.0398 
    125 S125       -6.1576  -18.4531  -48.2520 S.3       23 UNK        -0.2404 
    126 C126       -4.7703  -19.2364  -47.3726 C.3       23 UNK        -0.0205 
    127 H127       -4.3830  -15.8703  -47.9199 H         1 UNK         0.0600 
    128 H128       -2.7288  -16.4826  -47.9040 H         1 UNK         0.0600 
    129 H129       -3.1001  -14.9569  -48.7147 H         1 UNK         0.0600 
    130 H130       -1.4368  -15.9164  -46.1524 H         1 UNK         0.3000 
    131 H131       -0.6222  -15.0383  -44.3442 H         1 UNK         0.0600 
    132 H132       -3.3865  -13.9394  -43.6397 H         1 UNK         0.0800 
    133 H133       -1.9994  -13.9118  -42.5909 H         1 UNK         0.0800 
    134 H134       -5.1353  -16.3186  -42.3030 H         1 UNK         0.0800 
    135 H135       -4.8892  -15.6274  -43.8857 H         1 UNK         0.0800 
    136 H136       -4.4850  -17.0275  -45.8445 H         1 UNK         0.1150 
    137 H137       -5.3720  -21.1969  -45.5601 H         1 UNK         0.1150 
    138 H138       -5.0797  -18.8049  -42.0034 H         1 UNK         0.1150 
    139 H139       -5.2301  -21.1792  -41.7837 H         1 UNK         0.0800 
    140 H140       -6.6573  -21.4568  -42.7518 H         1 UNK         0.0800 
    141 H141       -2.6811  -23.0237  -42.3425 H         1 UNK         0.0800 
    142 H142       -2.9234  -21.5391  -43.2132 H         1 UNK         0.0800 
    143 H143       -2.8824  -22.9593  -45.3985 H         1 UNK         0.0600 
    144 H144       -0.7486  -21.8356  -43.9430 H         1 UNK         0.3000 
    145 H145        1.9255  -22.5512  -46.1061 H         1 UNK         0.0600 
    146 H146        0.8100  -20.8347  -47.5464 H         1 UNK         0.0600 
    147 H147        0.3633  -19.9138  -46.1142 H         1 UNK         0.0600 
    148 H148        2.0598  -20.1030  -46.5516 H         1 UNK         0.0600 
    149 H149        1.6736  -20.5563  -44.1115 H         1 UNK         0.3000 
    150 H150        1.5735  -22.5030  -41.1980 H         1 UNK         0.0600 
    151 H151        3.9933  -22.8957  -41.7163 H         1 UNK         0.0600 
    152 H152        3.7921  -21.5717  -40.5808 H         1 UNK         0.0600 
    153 H153        4.1524  -21.2346  -42.2748 H         1 UNK         0.0600 
    154 H154        2.2874  -19.7952  -41.4981 H         1 UNK         0.3000 
    155 H155       -0.6371  -18.3030  -42.5618 H         1 UNK         0.0600 
    156 H156       -1.4575  -18.7382  -40.2460 H         1 UNK         0.0600 
    157 H157       -0.7836  -17.1232  -40.3787 H         1 UNK         0.0600 
    158 H158        0.1444  -18.4047  -39.5963 H         1 UNK         0.0600 
    159 H159        1.6118  -17.2075  -41.2105 H         1 UNK         0.3000 
    160 H160        3.2800  -16.2214  -42.2708 H         1 UNK         0.0600 
    161 H161        4.5373  -18.5185  -43.8729 H         1 UNK         0.0600 
    162 H162        4.4644  -18.4038  -42.1187 H         1 UNK         0.0600 
    163 H163        5.4237  -17.2489  -43.0298 H         1 UNK         0.0600 
    164 H164        3.7434  -16.5746  -45.1740 H         1 UNK         0.3000 
    165 H165        2.1657  -13.5105  -45.9962 H         1 UNK         0.0600 
    166 H166        5.1301  -14.2508  -46.1087 H         1 UNK         0.0600 
    167 H167        4.3229  -13.0021  -47.0578 H         1 UNK         0.0600 
    168 H168        4.4716  -12.8230  -45.3181 H         1 UNK         0.0600 
    169 H169        3.4866  -15.2788  -47.7023 H         1 UNK         0.3000 
    170 H170        2.4188  -17.5422  -48.3658 H         1 UNK         0.0600 
    171 H171        0.0483  -18.1638  -47.7313 H         1 UNK         0.0600 
    172 H172       -0.5471  -16.9153  -48.8167 H         1 UNK         0.0600 
    173 H173        0.3442  -18.2954  -49.4535 H         1 UNK         0.0600 
    174 H174        1.2669  -15.0961  -49.6311 H         1 UNK         0.3000 
    175 H175        3.8556  -14.9830  -51.9556 H         1 UNK         0.0600 
    176 H176        1.0011  -15.7061  -52.8064 H         1 UNK         0.0600 
    177 H177        2.2162  -14.9173  -53.8110 H         1 UNK         0.0600 
    178 H178        2.4508  -16.5775  -53.2897 H         1 UNK         0.0600 
    179 H179        1.4420  -13.4888  -51.8586 H         1 UNK         0.3000 
    180 H180        2.8520  -10.8457  -50.3239 H         1 UNK         0.0600 
    181 H181        0.1562  -11.9622  -51.2764 H         1 UNK         0.0600 
    182 H182        1.4304  -11.3348  -52.3249 H         1 UNK         0.0600 
    183 H183        0.6206  -10.2708  -51.1937 H         1 UNK         0.0600 
    184 H184        1.7598  -10.6142  -48.4124 H         1 UNK         0.3000 
    185 H185        0.8553  -11.3819  -46.3662 H         1 UNK         0.0600 
    186 H186       -1.9018  -11.1657  -47.7345 H         1 UNK         0.0600 
    187 H187       -1.4433  -10.3741  -46.2285 H         1 UNK         0.0600 
    188 H188       -0.6864   -9.8931  -47.7346 H         1 UNK         0.0600 
    189 H189       -0.4945  -13.8041  -46.8637 H         1 UNK         0.3000 
    190 H190       -0.2373  -24.5358  -43.6590 H         1 UNK         0.3000 
    191 H191       -1.4191  -27.1421  -43.4170 H         1 UNK         0.0600 
    192 H192        1.5304  -26.3202  -43.5449 H         1 UNK         0.0600 
    193 H193        0.5523  -26.3706  -42.0778 H         1 UNK         0.0600 
    194 H194        0.9032  -27.8523  -42.9547 H         1 UNK         0.0600 
    195 H195       -0.0317  -25.4099  -46.1104 H         1 UNK         0.3000 
    196 H196       -0.0000  -27.8369  -47.8558 H         1 UNK         0.0600 
    197 H197        2.1239  -26.4937  -47.7616 H         1 UNK         0.0600 
    198 H198        1.2353  -25.0572  -48.2663 H         1 UNK         0.0600 
    199 H199        1.3867  -26.4337  -49.3530 H         1 UNK         0.0600 
    200 H200       -2.2471  -25.8534  -46.7721 H         1 UNK         0.3000 
    201 H201       -4.0907  -24.8191  -47.3891 H         1 UNK         0.0600 
    202 H202       -5.4045  -25.7770  -49.2500 H         1 UNK         0.0600 
    203 H203       -4.6142  -27.0690  -48.3641 H         1 UNK         0.0600 
    204 H204       -3.9733  -26.5475  -49.9208 H         1 UNK         0.0600 
    205 H205       -1.5645  -23.5437  -48.1233 H         1 UNK         0.3000 
    206 H206       -0.5744  -21.9789  -49.3171 H         1 UNK         0.0600 
    207 H207       -2.3593  -20.5898  -48.3631 H         1 UNK         0.0600 
    208 H208       -3.4165  -20.9326  -49.7369 H         1 UNK         0.0600 
    209 H209       -1.9417  -19.9995  -49.9584 H         1 UNK         0.0600 
    210 H210       -0.7680  -24.3221  -50.6701 H         1 UNK         0.3000 
    211 H211       -0.4241  -25.3276  -52.6034 H         1 UNK         0.0600 
    212 H212        1.2066  -23.4921  -53.0682 H         1 UNK         0.0600 
    213 H213        0.4570  -24.0737  -54.5460 H         1 UNK         0.0600 
    214 H214       -0.0588  -22.5460  -53.8478 H         1 UNK         0.0600 
    215 H215       -2.9507  -25.2083  -51.8040 H         1 UNK         0.3000 
    216 H216       -5.0997  -25.4524  -52.2829 H         1 UNK         0.0600 
    217 H217       -5.8112  -26.2636  -54.5011 H         1 UNK         0.0600 
    218 H218       -4.2844  -25.7765  -55.2214 H         1 UNK         0.0600 
    219 H219       -4.3255  -27.0699  -54.0241 H         1 UNK         0.0600 
    220 H220       -4.4363  -23.0423  -51.7139 H         1 UNK         0.3000 
    221 H221       -4.9720  -20.9551  -51.5927 H         1 UNK         0.0600 
    222 H222       -7.3033  -21.5486  -53.4914 H         1 UNK         0.0600 
    223 H223       -7.3186  -21.7806  -51.7433 H         1 UNK         0.0600 
    224 H224       -7.1794  -20.1677  -52.4188 H         1 UNK         0.0600 
    225 H225       -3.4895  -21.9680  -54.2709 H         1 UNK         0.3000 
    226 H226       -3.7953  -19.7999  -56.1078 H         1 UNK         0.0600 
    227 H227       -2.9423  -22.0625  -56.7479 H         1 UNK         0.0600 
    228 H228       -1.8187  -20.7932  -57.2139 H         1 UNK         0.0600 
    229 H229       -1.4815  -21.7829  -55.8004 H         1 UNK         0.0600 
    230 H230       -1.7008  -20.2592  -53.2723 H         1 UNK         0.3000 
    231 H231       -0.0680  -17.8713  -53.8677 H         1 UNK         0.0600 
    232 H232        1.1082  -18.4929  -51.8042 H         1 UNK         0.0600 
    233 H233        0.9962  -19.8865  -52.8674 H         1 UNK         0.0600 
    234 H234       -0.0555  -19.7618  -51.4616 H         1 UNK         0.0600 
    235 H235       -1.7889  -16.3728  -53.9536 H         1 UNK         0.3000 
    236 H236       -2.8176  -14.5727  -53.2725 H         1 UNK         0.0600 
    237 H237       -0.7963  -14.1761  -51.9263 H         1 UNK         0.0600 
    238 H238       -2.1983  -13.5534  -51.0753 H         1 UNK         0.0600 
    239 H239       -1.4695  -15.0676  -50.5662 H         1 UNK         0.0600 
    240 H240       -3.6064  -17.3594  -51.3305 H         1 UNK         0.3000 
    241 H241       -5.7042  -16.2787  -49.8297 H         1 UNK         0.0600 
    242 H242       -7.6599  -17.1840  -53.3361 H         1 UNK         0.3800 
    243 H243       -6.0215  -17.7595  -53.1388 H         1 UNK         0.3800 
    244 H244       -6.0394  -19.1810  -50.5333 H         1 UNK         0.0800 
    245 H245       -4.4696  -18.7629  -49.9378 H         1 UNK         0.0800 
    246 H246       -4.7072  -20.2830  -47.6736 H         1 UNK         0.0800 
    247 H247       -3.8338  -18.7642  -47.6724 H         1 UNK         0.0800 
@<TRIPOS>BOND
     1    1    2 1    
     2    1  127 1    
     3    1  128 1    
     4    1  129 1    
     5    2    3 2    
     6    2    4 am   BACKBONE|DICT|INTERRES
     7    4    5 1    
     8    4  130 1    
     9    5    6 1    
    10    5   65 1    
    11    5  131 1    
    12    6    7 1    
    13    6  132 1    
    14    6  133 1    
    15    7    8 1    
    16    8    9 1    
    17    8  134 1    
    18    8  135 1    
    19    9   10 ar   
    20    9   14 ar   
    21   10   11 ar   
    22   10  136 1    
    23   11   12 ar   
    24   11  126 1    
    25   12   13 ar   
    26   12  137 1    
    27   13   14 ar   
    28   13   15 1    
    29   14  138 1    
    30   15   16 1    
    31   15  139 1    
    32   15  140 1    
    33   16   17 1    
    34   17   18 1    
    35   17  141 1    
    36   17  142 1    
    37   18   19 1    
    38   18   67 1    
    39   18  143 1    
    40   19   20 am   BACKBONE|DICT|INTERRES
    41   19  144 1    
    42   20   21 2    
    43   20   22 1    
    44   22   23 1    
    45   22   24 1    
    46   22  145 1    
    47   23  146 1    
    48   23  147 1    
    49   23  148 1    
    50   24   25 am   BACKBONE|DICT|INTERRES
    51   24  149 1    
    52   25   26 2    
    53   25   27 1    
    54   27   28 1    
    55   27   29 1    
    56   27  150 1    
    57   28  151 1    
    58   28  152 1    
    59   28  153 1    
    60   29   30 am   BACKBONE|DICT|INTERRES
    61   29  154 1    
    62   30   31 2    
    63   30   32 1    
    64   32   33 1    
    65   32   34 1    
    66   32  155 1    
    67   33  156 1    
    68   33  157 1    
    69   33  158 1    
    70   34   35 am   BACKBONE|DICT|INTERRES
    71   34  159 1    
    72   35   36 2    
    73   35   37 1    
    74   37   38 1    
    75   37   39 1    
    76   37  160 1    
    77   38  161 1    
    78   38  162 1    
    79   38  163 1    
    80   39   40 am   BACKBONE|DICT|INTERRES
    81   39  164 1    
    82   40   41 2    
    83   40   42 1    
    84   42   43 1    
    85   42   44 1    
    86   42  165 1    
    87   43  166 1    
    88   43  167 1    
    89   43  168 1    
    90   44   45 am   BACKBONE|DICT|INTERRES
    91   44  169 1    
    92   45   46 2    
    93   45   47 1    
    94   47   48 1    
    95   47   49 1    
    96   47  170 1    
    97   48  171 1    
    98   48  172 1    
    99   48  173 1    
   100   49   50 am   BACKBONE|DICT|INTERRES
   101   49  174 1    
   102   50   51 2    
   103   50   52 1    
   104   52   53 1    
   105   52   54 1    
   106   52  175 1    
   107   53  176 1    
   108   53  177 1    
   109   53  178 1    
   110   54   55 am   BACKBONE|DICT|INTERRES
   111   54  179 1    
   112   55   56 2    
   113   55   57 1    
   114   57   58 1    
   115   57   59 1    
   116   57  180 1    
   117   58  181 1    
   118   58  182 1    
   119   58  183 1    
   120   59   60 am   BACKBONE|DICT|INTERRES
   121   59  184 1    
   122   60   61 2    
   123   60   62 1    
   124   62   63 1    
   125   62   64 1    
   126   62  185 1    
   127   63  186 1    
   128   63  187 1    
   129   63  188 1    
   130   64   65 am   BACKBONE|DICT|INTERRES
   131   64  189 1    
   132   65   66 2    
   133   67   68 2    
   134   67   69 am   BACKBONE|DICT|INTERRES
   135   69   70 1    
   136   69  190 1    
   137   70   71 1    
   138   70   72 1    
   139   70  191 1    
   140   71  192 1    
   141   71  193 1    
   142   71  194 1    
   143   72   73 2    
   144   72   74 am   BACKBONE|DICT|INTERRES
   145   74   75 1    
   146   74  195 1    
   147   75   76 1    
   148   75   77 1    
   149   75  196 1    
   150   76  197 1    
   151   76  198 1    
   152   76  199 1    
   153   77   78 2    
   154   77   79 am   BACKBONE|DICT|INTERRES
   155   79   80 1    
   156   79  200 1    
   157   80   81 1    
   158   80   82 1    
   159   80  201 1    
   160   81  202 1    
   161   81  203 1    
   162   81  204 1    
   163   82   83 2    
   164   82   84 am   BACKBONE|DICT|INTERRES
   165   84   85 1    
   166   84  205 1    
   167   85   86 1    
   168   85   87 1    
   169   85  206 1    
   170   86  207 1    
   171   86  208 1    
   172   86  209 1    
   173   87   88 2    
   174   87   89 am   BACKBONE|DICT|INTERRES
   175   89   90 1    
   176   89  210 1    
   177   90   91 1    
   178   90   92 1    
   179   90  211 1    
   180   91  212 1    
   181   91  213 1    
   182   91  214 1    
   183   92   93 2    
   184   92   94 am   BACKBONE|DICT|INTERRES
   185   94   95 1    
   186   94  215 1    
   187   95   96 1    
   188   95   97 1    
   189   95  216 1    
   190   96  217 1    
   191   96  218 1    
   192   96  219 1    
   193   97   98 2    
   194   97   99 am   BACKBONE|DICT|INTERRES
   195   99  100 1    
   196   99  220 1    
   197  100  101 1    
   198  100  102 1    
   199  100  221 1    
   200  101  222 1    
   201  101  223 1    
   202  101  224 1    
   203  102  103 2    
   204  102  104 am   BACKBONE|DICT|INTERRES
   205  104  105 1    
   206  104  225 1    
   207  105  106 1    
   208  105  107 1    
   209  105  226 1    
   210  106  227 1    
   211  106  228 1    
   212  106  229 1    
   213  107  108 2    
   214  107  109 am   BACKBONE|DICT|INTERRES
   215  109  110 1    
   216  109  230 1    
   217  110  111 1    
   218  110  112 1    
   219  110  231 1    
   220  111  232 1    
   221  111  233 1    
   222  111  234 1    
   223  112  113 2    
   224  112  114 am   BACKBONE|DICT|INTERRES
   225  114  115 1    
   226  114  235 1    
   227  115  116 1    
   228  115  117 1    
   229  115  236 1    
   230  116  237 1    
   231  116  238 1    
   232  116  239 1    
   233  117  118 2    
   234  117  119 am   BACKBONE|DICT|INTERRES
   235  119  120 1    
   236  119  240 1    
   237  120  121 1    
   238  120  124 1    
   239  120  241 1    
   240  121  122 am   BACKBONE|DICT|INTERRES
   241  121  123 2    
   242  122  242 1    
   243  122  243 1    
   244  124  125 1    
   245  124  244 1    
   246  124  245 1    
   247  125  126 1    
   248  126  246 1    
   249  126  247 1    
@<TRIPOS>SUBSTRUCTURE
     1 UNK         1 GROUP             0       ****    0 ROOT    
