@<TRIPOS>MOLECULE
3R540
247   249    1
SMALL
USER_CHARGES


@<TRIPOS>ATOM
      1 CA         -2.3976  -14.1002  -48.7668 C.3       0 UNK        -0.1800 
      2 C          -1.1330  -13.2787  -48.9611 C.2       0 UNK         0.5000 
      3 O          -1.2082  -12.0568  -49.0908 O.2       0 UNK        -0.5000 
      4 N           0.0281  -13.9441  -48.9699 N.am      1 UNK        -0.5000 
      5 CA          1.3537  -13.3197  -49.0023 C.3       1 UNK         0.1400 
      6 C6          2.4732  -14.3487  -49.2837 C.3       23 UNK        -0.0398 
      7 S7          2.3691  -15.0395  -50.9645 S.3       23 UNK        -0.2404 
      8 C8          3.7568  -16.2186  -50.9386 C.3       23 UNK        -0.0205 
      9 C9          3.3669  -17.5370  -50.2874 C.ar      23 UNK        -0.0193 
     10 C10         2.5663  -18.4397  -50.9872 C.ar      23 UNK        -0.1150 
     11 C11         2.1911  -19.6538  -50.4100 C.ar      23 UNK        -0.0193 
     12 C12         2.6486  -19.9762  -49.1293 C.ar      23 UNK        -0.1150 
     13 C13         3.4667  -19.0893  -48.4138 C.ar      23 UNK        -0.0193 
     14 C14         3.8138  -17.8680  -49.0050 C.ar      23 UNK        -0.1150 
     15 C15         4.0080  -19.3910  -47.0129 C.3       23 UNK        -0.0205 
     16 S16         3.6863  -21.0657  -46.3533 S.3       23 UNK        -0.2404 
     17 C17         2.1464  -20.8254  -45.4033 C.3       23 UNK        -0.0398 
     18 CA          1.1487  -21.9998  -45.5823 C.3       11 UNK         0.1400 
     19 N           0.4295  -22.3133  -44.3456 N.am      11 UNK        -0.5000 
     20 C          -0.1306  -23.5005  -44.0684 C.2       10 UNK         0.5000 
     21 O          -0.0348  -24.4870  -44.7970 O.2       10 UNK        -0.5000 
     22 CA         -0.9542  -23.6051  -42.7684 C.3       10 UNK         0.1400 
     23 CB         -0.0719  -24.1015  -41.6134 C.3       10 UNK        -0.1800 
     24 N          -1.5832  -22.3419  -42.3798 N.am      10 UNK        -0.5000 
     25 C          -2.5529  -21.7287  -43.0729 C.2       9 UNK         0.5000 
     26 O          -3.0726  -22.2076  -44.0794 O.2       9 UNK        -0.5000 
     27 CA         -2.9640  -20.3187  -42.6002 C.3       9 UNK         0.1400 
     28 CB         -4.1509  -20.4009  -41.6300 C.3       9 UNK        -0.1800 
     29 N          -1.8760  -19.5621  -41.9704 N.am      9 UNK        -0.5000 
     30 C          -0.7039  -19.2717  -42.5492 C.2       8 UNK         0.5000 
     31 O          -0.4094  -19.6113  -43.6976 O.2       8 UNK        -0.5000 
     32 CA          0.3087  -18.5005  -41.6877 C.3       8 UNK         0.1400 
     33 CB          1.7595  -18.7651  -42.1282 C.3       8 UNK        -0.1800 
     34 N           0.0496  -17.0673  -41.7498 N.am      8 UNK        -0.5000 
     35 C          -0.8692  -16.4114  -41.0300 C.2       7 UNK         0.5000 
     36 O          -1.6245  -16.9610  -40.2268 O.2       7 UNK        -0.5000 
     37 CA         -0.9567  -14.8907  -41.2397 C.3       7 UNK         0.1400 
     38 CB          0.1893  -14.1790  -40.5027 C.3       7 UNK        -0.1800 
     39 N          -0.8889  -14.5536  -42.6604 N.am      7 UNK        -0.5000 
     40 C          -1.9032  -14.0642  -43.3862 C.2       6 UNK         0.5000 
     41 O          -3.0092  -13.7861  -42.9207 O.2       6 UNK        -0.5000 
     42 CA         -1.6451  -13.8440  -44.8924 C.3       6 UNK         0.1400 
     43 CB         -1.2112  -12.3909  -45.1405 C.3       6 UNK        -0.1800 
     44 N          -0.6432  -14.7546  -45.4555 N.am      6 UNK        -0.5000 
     45 C          -0.7775  -16.0885  -45.5044 C.2       5 UNK         0.5000 
     46 O          -1.8118  -16.6719  -45.1827 O.2       5 UNK        -0.5000 
     47 CA          0.4461  -16.9243  -45.9382 C.3       5 UNK         0.1400 
     48 CB          0.2832  -17.4166  -47.3848 C.3       5 UNK        -0.1800 
     49 N           1.7597  -16.2822  -45.7813 N.am      5 UNK        -0.5000 
     50 C           2.2570  -15.7685  -44.6457 C.2       4 UNK         0.5000 
     51 O           1.6212  -15.7123  -43.5926 O.2       4 UNK        -0.5000 
     52 CA          3.6796  -15.1903  -44.6683 C.3       4 UNK         0.1400 
     53 CB          4.4549  -15.4039  -45.9820 C.3       4 UNK        -0.1800 
     54 N           3.5758  -13.7649  -44.3922 N.am      4 UNK        -0.5000 
     55 C           4.4002  -13.0538  -43.6144 C.2       3 UNK         0.5000 
     56 O           5.3748  -13.5396  -43.0374 O.2       3 UNK        -0.5000 
     57 CA          4.0722  -11.5529  -43.4303 C.3       3 UNK         0.1400 
     58 CB          5.3388  -10.6800  -43.3044 C.3       3 UNK        -0.1800 
     59 N           3.1560  -11.0106  -44.4442 N.am      3 UNK        -0.5000 
     60 C           3.3768  -10.9038  -45.7622 C.2       2 UNK         0.5000 
     61 O           4.4372  -11.1937  -46.3205 O.2       2 UNK        -0.5000 
     62 CA          2.1857  -10.4138  -46.6048 C.3       2 UNK         0.1400 
     63 CB          2.4243   -8.9812  -47.1055 C.3       2 UNK        -0.1800 
     64 N           1.9244  -11.2881  -47.7488 N.am      2 UNK        -0.5000 
     65 C           1.6165  -12.5895  -47.6709 C.2       1 UNK         0.5000 
     66 O           1.5255  -13.2167  -46.6110 O.2       1 UNK        -0.5000 
     67 C           0.1489  -21.7421  -46.7241 C.2       11 UNK         0.5000 
     68 O           0.3382  -22.2648  -47.8198 O.2       11 UNK        -0.5000 
     69 N          -0.9351  -21.0063  -46.4296 N.am      12 UNK        -0.5000 
     70 CA         -2.0510  -20.7704  -47.3525 C.3       12 UNK         0.1400 
     71 CB         -3.0775  -19.8384  -46.6929 C.3       12 UNK        -0.1800 
     72 C          -2.7228  -22.0773  -47.8209 C.2       12 UNK         0.5000 
     73 O          -3.0176  -22.2332  -49.0040 O.2       12 UNK        -0.5000 
     74 N          -2.9060  -23.0143  -46.8827 N.am      13 UNK        -0.5000 
     75 CA         -3.4558  -24.3477  -47.1177 C.3       13 UNK         0.1400 
     76 CB         -3.9234  -24.9232  -45.7712 C.3       13 UNK        -0.1800 
     77 C          -2.4877  -25.3270  -47.8159 C.2       13 UNK         0.5000 
     78 O          -2.9235  -26.4195  -48.1811 O.2       13 UNK        -0.5000 
     79 N          -1.2051  -24.9630  -47.9748 N.am      14 UNK        -0.5000 
     80 CA         -0.1892  -25.8188  -48.5967 C.3       14 UNK         0.1400 
     81 CB          1.2169  -25.3413  -48.2018 C.3       14 UNK        -0.1800 
     82 C          -0.3210  -25.8950  -50.1292 C.2       14 UNK         0.5000 
     83 O           0.1157  -26.8840  -50.7206 O.2       14 UNK        -0.5000 
     84 N          -0.9156  -24.8654  -50.7476 N.am      15 UNK        -0.5000 
     85 CA         -1.2469  -24.8445  -52.1711 C.3       15 UNK         0.1400 
     86 CB         -1.5630  -23.4042  -52.5919 C.3       15 UNK        -0.1800 
     87 C          -2.4381  -25.7684  -52.4784 C.2       15 UNK         0.5000 
     88 O          -3.3349  -25.9068  -51.6448 O.2       15 UNK        -0.5000 
     89 N          -2.4512  -26.3503  -53.6850 N.am      16 UNK        -0.5000 
     90 CA         -3.4535  -27.3234  -54.1367 C.3       16 UNK         0.1400 
     91 CB         -3.0449  -27.8631  -55.5159 C.3       16 UNK        -0.1800 
     92 C          -4.8960  -26.7806  -54.1770 C.2       16 UNK         0.5000 
     93 O          -5.8331  -27.5342  -53.9115 O.2       16 UNK        -0.5000 
     94 N          -5.0426  -25.4853  -54.4858 N.am      17 UNK        -0.5000 
     95 CA         -6.3222  -24.7703  -54.4906 C.3       17 UNK         0.1400 
     96 CB         -6.3476  -23.8149  -55.6941 C.3       17 UNK        -0.1800 
     97 C          -6.5808  -24.0137  -53.1694 C.2       17 UNK         0.5000 
     98 O          -7.6210  -23.3653  -53.0449 O.2       17 UNK        -0.5000 
     99 N          -5.6412  -24.1010  -52.2140 N.am      18 UNK        -0.5000 
    100 CA        -5.6536  -23.5002  -50.8787 C.3       18 UNK         0.1400 
    101 CB        -6.5809  -24.3123  -49.9483 C.3       18 UNK        -0.1800 
    102 C         -5.9598  -21.9882  -50.9141 C.2       18 UNK         0.5000 
    103 O         -5.1733  -21.2228  -51.4749 O.2       18 UNK        -0.5000 
    104 N         -7.1097  -21.5860  -50.3563 N.am      19 UNK        -0.5000 
    105 CA        -7.5993  -20.2076  -50.2854 C.3       19 UNK         0.1400 
    106 CB        -8.8891  -20.1853  -49.4511 C.3       19 UNK        -0.1800 
    107 C         -7.8317  -19.5315  -51.6524 C.2       19 UNK         0.5000 
    108 O         -7.8050  -18.3025  -51.7198 O.2       19 UNK        -0.5000 
    109 N         -8.0438  -20.3246  -52.7131 N.am      20 UNK        -0.5000 
    110 CA        -8.1635  -19.8315  -54.0876 C.3       20 UNK         0.1400 
    111 CB        -9.0198  -20.8091  -54.9057 C.3       20 UNK        -0.1800 
    112 C         -6.7949  -19.5831  -54.7572 C.2       20 UNK         0.5000 
    113 O         -6.7529  -18.9347  -55.8039 O.2       20 UNK        -0.5000 
    114 N         -5.7099  -20.0819  -54.1492 N.am      21 UNK        -0.5000 
    115 CA        -4.3273  -19.7853  -54.5079 C.3       21 UNK         0.1400 
    116 CB        -3.5202  -21.0978  -54.5552 C.3       21 UNK        -0.1800 
    117 C         -3.7879  -18.7461  -53.5070 C.2       21 UNK         0.5000 
    118 O         -4.2652  -17.6099  -53.5125 O.2       21 UNK        -0.5000 
    119 N         -2.8112  -19.1309  -52.6765 N.am      22 UNK        -0.5000 
    120 CA        -2.2103  -18.2759  -51.6411 C.3       22 UNK         0.1400 
    121 C         -3.0291  -18.1659  -50.3228 C.2       22 UNK         0.5000 
    122 N         -4.0776  -18.9499  -50.1121 N.am      22 UNK        -0.7600 
    123 O         -2.7151  -17.3348  -49.4778 O.2       22 UNK        -0.5000 
    124 C124       -0.7277  -18.6406  -51.3815 C.3       23 UNK        -0.0398 
    125 S125       -0.4665  -20.3536  -50.8050 S.3       23 UNK        -0.2404 
    126 C126        1.2954  -20.6152  -51.1777 C.3       23 UNK        -0.0205 
    127 H127       -2.8433  -14.3453  -49.7307 H         1 UNK         0.0600 
    128 H128       -2.1871  -15.0287  -48.2359 H         1 UNK         0.0600 
    129 H129       -3.1275  -13.5414  -48.1813 H         1 UNK         0.0600 
    130 H130        0.0187  -14.9487  -48.8869 H         1 UNK         0.3000 
    131 H131        1.3586  -12.5823  -49.8081 H         1 UNK         0.0600 
    132 H132        2.4321  -15.1687  -48.5671 H         1 UNK         0.0800 
    133 H133        3.4564  -13.8861  -49.1760 H         1 UNK         0.0800 
    134 H134        4.0717  -16.4093  -51.9656 H         1 UNK         0.0800 
    135 H135        4.6171  -15.7727  -50.4370 H         1 UNK         0.0800 
    136 H136        2.2247  -18.1873  -51.9810 H         1 UNK         0.1150 
    137 H137        2.3571  -20.9235  -48.7034 H         1 UNK         0.1150 
    138 H138        4.4485  -17.1755  -48.4715 H         1 UNK         0.1150 
    139 H139        5.0902  -19.2542  -47.0331 H         1 UNK         0.0800 
    140 H140        3.6226  -18.6514  -46.3111 H         1 UNK         0.0800 
    141 H141        1.6897  -19.8649  -45.6465 H         1 UNK         0.0800 
    142 H142        2.4482  -20.7475  -44.3584 H         1 UNK         0.0800 
    143 H143        1.7192  -22.8923  -45.8503 H         1 UNK         0.0600 
    144 H144        0.2358  -21.5268  -43.7380 H         1 UNK         0.3000 
    145 H145       -1.7448  -24.3395  -42.9361 H         1 UNK         0.0600 
    146 H146       -0.6572  -24.2525  -40.7062 H         1 UNK         0.0600 
    147 H147        0.3938  -25.0565  -41.8608 H         1 UNK         0.0600 
    148 H148        0.7278  -23.3957  -41.3849 H         1 UNK         0.0600 
    149 H149       -1.2172  -21.8833  -41.5587 H         1 UNK         0.3000 
    150 H150       -3.2812  -19.7571  -43.4807 H         1 UNK         0.0600 
    151 H151       -4.9878  -20.9359  -42.0811 H         1 UNK         0.0600 
    152 H152       -4.5095  -19.4073  -41.3604 H         1 UNK         0.0600 
    153 H153       -3.8838  -20.9232  -40.7105 H         1 UNK         0.0600 
    154 H154       -2.0534  -19.1997  -41.0429 H         1 UNK         0.3000 
    155 H155        0.2108  -18.8396  -40.6542 H         1 UNK         0.0600 
    156 H156        1.9353  -18.4599  -43.1600 H         1 UNK         0.0600 
    157 H157        2.0011  -19.8257  -42.0526 H         1 UNK         0.0600 
    158 H158        2.4663  -18.2256  -41.4976 H         1 UNK         0.0600 
    159 H159        0.6273  -16.5437  -42.4043 H         1 UNK         0.3000 
    160 H160       -1.8993  -14.5512  -40.8057 H         1 UNK         0.0600 
    161 H161        0.0999  -13.0963  -40.5925 H         1 UNK         0.0600 
    162 H162        1.1650  -14.4667  -40.8970 H         1 UNK         0.0600 
    163 H163        0.1793  -14.4193  -39.4388 H         1 UNK         0.0600 
    164 H164       -0.0236  -14.7895  -43.1359 H         1 UNK         0.3000 
    165 H165       -2.5866  -14.0159  -45.4180 H         1 UNK         0.0600 
    166 H166       -1.1199  -12.1789  -46.2046 H         1 UNK         0.0600 
    167 H167       -1.9411  -11.6891  -44.7352 H         1 UNK         0.0600 
    168 H168       -0.2510  -12.1742  -44.6711 H         1 UNK         0.0600 
    169 H169        0.2278  -14.3334  -45.7673 H         1 UNK         0.3000 
    170 H170        0.4519  -17.8015  -45.2924 H         1 UNK         0.0600 
    171 H171       -0.7134  -17.8253  -47.5555 H         1 UNK         0.0600 
    172 H172        0.4364  -16.6193  -48.1098 H         1 UNK         0.0600 
    173 H173        0.9876  -18.2145  -47.6078 H         1 UNK         0.0600 
    174 H174        2.3409  -16.2559  -46.6037 H         1 UNK         0.3000 
    175 H175        4.2223  -15.6893  -43.8629 H         1 UNK         0.0600 
    176 H176        3.9841  -14.8937  -46.8208 H         1 UNK         0.0600 
    177 H177        5.4693  -15.0139  -45.8964 H         1 UNK         0.0600 
    178 H178        4.5438  -16.4623  -46.2218 H         1 UNK         0.0600 
    179 H179        2.7945  -13.2973  -44.8364 H         1 UNK         0.3000 
    180 H180        3.5376  -11.4855  -42.4818 H         1 UNK         0.0600 
    181 H181        5.9783  -10.7620  -44.1835 H         1 UNK         0.0600 
    182 H182        5.9349  -10.9772  -42.4409 H         1 UNK         0.0600 
    183 H183        5.0823   -9.6289  -43.1720 H         1 UNK         0.0600 
    184 H184        2.2462  -10.7449  -44.0934 H         1 UNK         0.3000 
    185 H185        1.2874  -10.4127  -45.9839 H         1 UNK         0.0600 
    186 H186        2.6024   -8.3010  -46.2715 H         1 UNK         0.0600 
    187 H187        3.2907   -8.9247  -47.7657 H         1 UNK         0.0600 
    188 H188        1.5596   -8.6042  -47.6520 H         1 UNK         0.0600 
    189 H189        1.9869  -10.8554  -48.6585 H         1 UNK         0.3000 
    190 H190       -1.0101  -20.6010  -45.5042 H         1 UNK         0.3000 
    191 H191       -1.6522  -20.2611  -48.2292 H         1 UNK         0.0600 
    192 H192       -3.5270  -20.2873  -45.8090 H         1 UNK         0.0600 
    193 H193       -3.8889  -19.6044  -47.3810 H         1 UNK         0.0600 
    194 H194       -2.6220  -18.8946  -46.3970 H         1 UNK         0.0600 
    195 H195       -2.6958  -22.7785  -45.9173 H         1 UNK         0.3000 
    196 H196       -4.3294  -24.2464  -47.7642 H         1 UNK         0.0600 
    197 H197       -3.0902  -25.0419  -45.0774 H         1 UNK         0.0600 
    198 H198       -4.3878  -25.9018  -45.8993 H         1 UNK         0.0600 
    199 H199       -4.6619  -24.2744  -45.2997 H         1 UNK         0.0600 
    200 H200       -0.9044  -24.0436  -47.6747 H         1 UNK         0.3000 
    201 H201       -0.3145  -26.8304  -48.2046 H         1 UNK         0.0600 
    202 H202        1.3093  -25.2184  -47.1228 H         1 UNK         0.0600 
    203 H203        1.4712  -24.3932  -48.6752 H         1 UNK         0.0600 
    204 H204        1.9704  -26.0661  -48.5119 H         1 UNK         0.0600 
    205 H205       -1.2781  -24.1091  -50.1837 H         1 UNK         0.3000 
    206 H206       -0.3791  -25.1890  -52.7376 H         1 UNK         0.0600 
    207 H207       -0.6878  -22.7662  -52.4764 H         1 UNK         0.0600 
    208 H208       -1.8550  -23.3593  -53.6413 H         1 UNK         0.0600 
    209 H209       -2.3734  -22.9778  -51.9981 H         1 UNK         0.0600 
    210 H210       -1.6875  -26.1714  -54.3213 H         1 UNK         0.3000 
    211 H211       -3.4415  -28.1559  -53.4300 H         1 UNK         0.0600 
    212 H212       -3.0014  -27.0690  -56.2625 H         1 UNK         0.0600 
    213 H213       -3.7578  -28.6086  -55.8711 H         1 UNK         0.0600 
    214 H214       -2.0672  -28.3440  -55.4785 H         1 UNK         0.0600 
    215 H215       -4.2173  -24.9438  -54.6978 H         1 UNK         0.3000 
    216 H216       -7.1405  -25.4818  -54.6185 H         1 UNK         0.0600 
    217 H217       -7.3590  -23.4567  -55.8807 H         1 UNK         0.0600 
    218 H218       -6.0157  -24.3122  -56.6057 H         1 UNK         0.0600 
    219 H219       -5.7152  -22.9434  -55.5349 H         1 UNK         0.0600 
    220 H220       -4.8408  -24.6954  -52.3925 H         1 UNK         0.3000 
    221 H221       -4.6380  -23.5972  -50.4956 H         1 UNK         0.0600 
    222 H222       -7.6113  -24.3282  -50.3053 H         1 UNK         0.0600 
    223 H223       -6.2426  -25.3464  -49.8780 H         1 UNK         0.0600 
    224 H224       -6.5795  -23.9087  -48.9350 H         1 UNK         0.0600 
    225 H225       -7.7109  -22.2912  -49.9562 H         1 UNK         0.3000 
    226 H226       -6.8462  -19.6189  -49.7594 H         1 UNK         0.0600 
    227 H227       -8.7166  -20.5703  -48.4459 H         1 UNK         0.0600 
    228 H228       -9.2704  -19.1687  -49.3463 H         1 UNK         0.0600 
    229 H229       -9.6752  -20.7849  -49.9118 H         1 UNK         0.0600 
    230 H230       -8.0329  -21.3322  -52.5919 H         1 UNK         0.3000 
    231 H231       -8.6881  -18.8737  -54.0757 H         1 UNK         0.0600 
    232 H232      -10.0178  -20.9089  -54.4788 H         1 UNK         0.0600 
    233 H233       -8.5740  -21.8002  -54.9433 H         1 UNK         0.0600 
    234 H234       -9.1391  -20.4628  -55.9331 H         1 UNK         0.0600 
    235 H235       -5.8287  -20.5494  -53.2569 H         1 UNK         0.3000 
    236 H236       -4.2721  -19.3272  -55.4973 H         1 UNK         0.0600 
    237 H237       -2.4539  -20.9098  -54.6876 H         1 UNK         0.0600 
    238 H238       -3.6538  -21.6876  -53.6489 H         1 UNK         0.0600 
    239 H239       -3.8307  -21.7111  -55.3992 H         1 UNK         0.0600 
    240 H240       -2.4975  -20.0903  -52.6899 H         1 UNK         0.3000 
    241 H241       -2.1961  -17.2580  -52.0357 H         1 UNK         0.0600 
    242 H242       -4.5946  -18.8375  -49.2584 H         1 UNK         0.3800 
    243 H243       -4.3252  -19.6904  -50.7624 H         1 UNK         0.3800 
    244 H244       -0.2879  -17.9567  -50.6532 H         1 UNK         0.0800 
    245 H245       -0.1640  -18.4978  -52.3038 H         1 UNK         0.0800 
    246 H246        1.5551  -21.6440  -50.9231 H         1 UNK         0.0800 
    247 H247        1.4591  -20.5156  -52.2517 H         1 UNK         0.0800 
@<TRIPOS>BOND
     1    1    2 1    
     2    1  127 1    
     3    1  128 1    
     4    1  129 1    
     5    2    3 2    
     6    2    4 am   BACKBONE|DICT|INTERRES
     7    4    5 1    
     8    4  130 1    
     9    5    6 1    
    10    5   65 1    
    11    5  131 1    
    12    6    7 1    
    13    6  132 1    
    14    6  133 1    
    15    7    8 1    
    16    8    9 1    
    17    8  134 1    
    18    8  135 1    
    19    9   10 ar   
    20    9   14 ar   
    21   10   11 ar   
    22   10  136 1    
    23   11   12 ar   
    24   11  126 1    
    25   12   13 ar   
    26   12  137 1    
    27   13   14 ar   
    28   13   15 1    
    29   14  138 1    
    30   15   16 1    
    31   15  139 1    
    32   15  140 1    
    33   16   17 1    
    34   17   18 1    
    35   17  141 1    
    36   17  142 1    
    37   18   19 1    
    38   18   67 1    
    39   18  143 1    
    40   19   20 am   BACKBONE|DICT|INTERRES
    41   19  144 1    
    42   20   21 2    
    43   20   22 1    
    44   22   23 1    
    45   22   24 1    
    46   22  145 1    
    47   23  146 1    
    48   23  147 1    
    49   23  148 1    
    50   24   25 am   BACKBONE|DICT|INTERRES
    51   24  149 1    
    52   25   26 2    
    53   25   27 1    
    54   27   28 1    
    55   27   29 1    
    56   27  150 1    
    57   28  151 1    
    58   28  152 1    
    59   28  153 1    
    60   29   30 am   BACKBONE|DICT|INTERRES
    61   29  154 1    
    62   30   31 2    
    63   30   32 1    
    64   32   33 1    
    65   32   34 1    
    66   32  155 1    
    67   33  156 1    
    68   33  157 1    
    69   33  158 1    
    70   34   35 am   BACKBONE|DICT|INTERRES
    71   34  159 1    
    72   35   36 2    
    73   35   37 1    
    74   37   38 1    
    75   37   39 1    
    76   37  160 1    
    77   38  161 1    
    78   38  162 1    
    79   38  163 1    
    80   39   40 am   BACKBONE|DICT|INTERRES
    81   39  164 1    
    82   40   41 2    
    83   40   42 1    
    84   42   43 1    
    85   42   44 1    
    86   42  165 1    
    87   43  166 1    
    88   43  167 1    
    89   43  168 1    
    90   44   45 am   BACKBONE|DICT|INTERRES
    91   44  169 1    
    92   45   46 2    
    93   45   47 1    
    94   47   48 1    
    95   47   49 1    
    96   47  170 1    
    97   48  171 1    
    98   48  172 1    
    99   48  173 1    
   100   49   50 am   BACKBONE|DICT|INTERRES
   101   49  174 1    
   102   50   51 2    
   103   50   52 1    
   104   52   53 1    
   105   52   54 1    
   106   52  175 1    
   107   53  176 1    
   108   53  177 1    
   109   53  178 1    
   110   54   55 am   BACKBONE|DICT|INTERRES
   111   54  179 1    
   112   55   56 2    
   113   55   57 1    
   114   57   58 1    
   115   57   59 1    
   116   57  180 1    
   117   58  181 1    
   118   58  182 1    
   119   58  183 1    
   120   59   60 am   BACKBONE|DICT|INTERRES
   121   59  184 1    
   122   60   61 2    
   123   60   62 1    
   124   62   63 1    
   125   62   64 1    
   126   62  185 1    
   127   63  186 1    
   128   63  187 1    
   129   63  188 1    
   130   64   65 am   BACKBONE|DICT|INTERRES
   131   64  189 1    
   132   65   66 2    
   133   67   68 2    
   134   67   69 am   BACKBONE|DICT|INTERRES
   135   69   70 1    
   136   69  190 1    
   137   70   71 1    
   138   70   72 1    
   139   70  191 1    
   140   71  192 1    
   141   71  193 1    
   142   71  194 1    
   143   72   73 2    
   144   72   74 am   BACKBONE|DICT|INTERRES
   145   74   75 1    
   146   74  195 1    
   147   75   76 1    
   148   75   77 1    
   149   75  196 1    
   150   76  197 1    
   151   76  198 1    
   152   76  199 1    
   153   77   78 2    
   154   77   79 am   BACKBONE|DICT|INTERRES
   155   79   80 1    
   156   79  200 1    
   157   80   81 1    
   158   80   82 1    
   159   80  201 1    
   160   81  202 1    
   161   81  203 1    
   162   81  204 1    
   163   82   83 2    
   164   82   84 am   BACKBONE|DICT|INTERRES
   165   84   85 1    
   166   84  205 1    
   167   85   86 1    
   168   85   87 1    
   169   85  206 1    
   170   86  207 1    
   171   86  208 1    
   172   86  209 1    
   173   87   88 2    
   174   87   89 am   BACKBONE|DICT|INTERRES
   175   89   90 1    
   176   89  210 1    
   177   90   91 1    
   178   90   92 1    
   179   90  211 1    
   180   91  212 1    
   181   91  213 1    
   182   91  214 1    
   183   92   93 2    
   184   92   94 am   BACKBONE|DICT|INTERRES
   185   94   95 1    
   186   94  215 1    
   187   95   96 1    
   188   95   97 1    
   189   95  216 1    
   190   96  217 1    
   191   96  218 1    
   192   96  219 1    
   193   97   98 2    
   194   97   99 am   BACKBONE|DICT|INTERRES
   195   99  100 1    
   196   99  220 1    
   197  100  101 1    
   198  100  102 1    
   199  100  221 1    
   200  101  222 1    
   201  101  223 1    
   202  101  224 1    
   203  102  103 2    
   204  102  104 am   BACKBONE|DICT|INTERRES
   205  104  105 1    
   206  104  225 1    
   207  105  106 1    
   208  105  107 1    
   209  105  226 1    
   210  106  227 1    
   211  106  228 1    
   212  106  229 1    
   213  107  108 2    
   214  107  109 am   BACKBONE|DICT|INTERRES
   215  109  110 1    
   216  109  230 1    
   217  110  111 1    
   218  110  112 1    
   219  110  231 1    
   220  111  232 1    
   221  111  233 1    
   222  111  234 1    
   223  112  113 2    
   224  112  114 am   BACKBONE|DICT|INTERRES
   225  114  115 1    
   226  114  235 1    
   227  115  116 1    
   228  115  117 1    
   229  115  236 1    
   230  116  237 1    
   231  116  238 1    
   232  116  239 1    
   233  117  118 2    
   234  117  119 am   BACKBONE|DICT|INTERRES
   235  119  120 1    
   236  119  240 1    
   237  120  121 1    
   238  120  124 1    
   239  120  241 1    
   240  121  122 am   BACKBONE|DICT|INTERRES
   241  121  123 2    
   242  122  242 1    
   243  122  243 1    
   244  124  125 1    
   245  124  244 1    
   246  124  245 1    
   247  125  126 1    
   248  126  246 1    
   249  126  247 1    
@<TRIPOS>SUBSTRUCTURE
     1 UNK         1 GROUP             0       ****    0 ROOT    
