@<TRIPOS>MOLECULE
3R540
247   249    1
SMALL
USER_CHARGES


@<TRIPOS>ATOM
      1 CA         -2.9981  -14.8383  -43.3389 C.3       0 UNK        -0.1800 
      2 C          -3.0240  -13.8640  -44.5086 C.2       0 UNK         0.5000 
      3 O          -3.6186  -12.7909  -44.4010 O.2       0 UNK        -0.5000 
      4 N          -2.3821  -14.2309  -45.6244 N.am      1 UNK        -0.5000 
      5 CA         -2.3246  -13.4724  -46.8796 C.3       1 UNK         0.1400 
      6 C6         -2.0235  -14.3961  -48.0885 C.3       23 UNK        -0.0398 
      7 S7         -3.3176  -15.6671  -48.3058 S.3       23 UNK        -0.2404 
      8 C8         -2.8855  -16.3626  -49.9293 C.3       23 UNK        -0.0205 
      9 C9         -1.8558  -17.4757  -49.8170 C.ar      23 UNK        -0.0193 
     10 C10        -0.4944  -17.1898  -49.9346 C.ar      23 UNK        -0.1150 
     11 C11         0.4489  -18.2179  -49.8849 C.ar      23 UNK        -0.0193 
     12 C12         0.0218  -19.5375  -49.7234 C.ar      23 UNK        -0.1150 
     13 C13        -1.3395  -19.8445  -49.5839 C.ar      23 UNK        -0.0193 
     14 C14        -2.2673  -18.7986  -49.6246 C.ar      23 UNK        -0.1150 
     15 C15        -1.8678  -21.2740  -49.4084 C.3       23 UNK        -0.0205 
     16 S16        -0.6290  -22.6165  -49.5090 S.3       23 UNK        -0.2404 
     17 C17         0.2811  -22.3532  -47.9469 C.3       23 UNK        -0.0398 
     18 CA          0.2442  -23.5036  -46.9149 C.3       11 UNK         0.1400 
     19 N           0.9557  -23.0996  -45.6992 N.am      11 UNK        -0.5000 
     20 C           1.2192  -23.8661  -44.6332 C.2       10 UNK         0.5000 
     21 O           0.8919  -25.0489  -44.5399 O.2       10 UNK        -0.5000 
     22 CA          1.9348  -23.1701  -43.4615 C.3       10 UNK         0.1400 
     23 CB          3.4333  -22.9943  -43.7519 C.3       10 UNK        -0.1800 
     24 N           1.3362  -21.8666  -43.1704 N.am      10 UNK        -0.5000 
     25 C           0.1623  -21.7057  -42.5438 C.2       9 UNK         0.5000 
     26 O          -0.4889  -22.6353  -42.0671 O.2       9 UNK        -0.5000 
     27 CA         -0.3921  -20.2711  -42.4490 C.3       9 UNK         0.1400 
     28 CB          0.1479  -19.5670  -41.1953 C.3       9 UNK        -0.1800 
     29 N          -0.1021  -19.4522  -43.6276 N.am      9 UNK        -0.5000 
     30 C          -0.5552  -19.7034  -44.8640 C.2       8 UNK         0.5000 
     31 O          -1.2858  -20.6514  -45.1442 O.2       8 UNK        -0.5000 
     32 CA         -0.0671  -18.7736  -45.9879 C.3       8 UNK         0.1400 
     33 CB         -0.8937  -17.4841  -46.0280 C.3       8 UNK        -0.1800 
     34 N           1.3545  -18.4482  -45.8805 N.am      8 UNK        -0.5000 
     35 C           2.3547  -19.3402  -45.9084 C.2       7 UNK         0.5000 
     36 O           2.1893  -20.5513  -46.0484 O.2       7 UNK        -0.5000 
     37 CA          3.7731  -18.7919  -45.6881 C.3       7 UNK         0.1400 
     38 CB          4.3497  -18.2023  -46.9839 C.3       7 UNK        -0.1800 
     39 N           3.7908  -17.7783  -44.6354 N.am      7 UNK        -0.5000 
     40 C           3.7045  -18.0510  -43.3263 C.2       6 UNK         0.5000 
     41 O           3.6604  -19.1925  -42.8660 O.2       6 UNK        -0.5000 
     42 CA          3.6241  -16.8411  -42.3754 C.3       6 UNK         0.1400 
     43 CB          5.0302  -16.3237  -42.0371 C.3       6 UNK        -0.1800 
     44 N           2.8210  -15.7419  -42.9171 N.am      6 UNK        -0.5000 
     45 C           1.4996  -15.8116  -43.1272 C.2       5 UNK         0.5000 
     46 O           0.8193  -16.8039  -42.8705 O.2       5 UNK        -0.5000 
     47 CA          0.8243  -14.5873  -43.7719 C.3       5 UNK         0.1400 
     48 CB          0.3976  -13.5818  -42.6936 C.3       5 UNK        -0.1800 
     49 N           1.6147  -13.9108  -44.8068 N.am      5 UNK        -0.5000 
     50 C           2.1354  -14.5027  -45.8944 C.2       4 UNK         0.5000 
     51 O           2.0444  -15.7118  -46.1055 O.2       4 UNK        -0.5000 
     52 CA          2.8798  -13.6239  -46.9181 C.3       4 UNK         0.1400 
     53 CB          2.5438  -14.0376  -48.3608 C.3       4 UNK        -0.1800 
     54 N           2.5734  -12.2047  -46.7531 N.am      4 UNK        -0.5000 
     55 C           3.3633  -11.3087  -46.1463 C.2       3 UNK         0.5000 
     56 O           4.4583  -11.5867  -45.6565 O.2       3 UNK        -0.5000 
     57 CA          2.8463   -9.8577  -46.0557 C.3       3 UNK         0.1400 
     58 CB          3.5265   -8.9789  -47.1167 C.3       3 UNK        -0.1800 
     59 N           1.3939   -9.7341  -46.2016 N.am      3 UNK        -0.5000 
     60 C           0.4909  -10.2136  -45.3365 C.2       2 UNK         0.5000 
     61 O           0.7972  -10.8035  -44.3005 O.2       2 UNK        -0.5000 
     62 CA         -1.0001  -10.0328  -45.6896 C.3       2 UNK         0.1400 
     63 CB         -1.2546   -9.0867  -46.8848 C.3       2 UNK        -0.1800 
     64 N          -1.6762  -11.3140  -45.9146 N.am      2 UNK        -0.5000 
     65 C          -1.3462  -12.2779  -46.7860 C.2       1 UNK         0.5000 
     66 O          -0.3346  -12.2458  -47.4899 O.2       1 UNK        -0.5000 
     67 C          -1.1842  -24.0125  -46.6225 C.2       11 UNK         0.5000 
     68 O          -1.6080  -24.9901  -47.2372 O.2       11 UNK        -0.5000 
     69 N          -1.8727  -23.3987  -45.6496 N.am      12 UNK        -0.5000 
     70 CA         -3.2160  -23.7568  -45.1810 C.3       12 UNK         0.1400 
     71 CB         -3.6435  -22.7644  -44.0884 C.3       12 UNK        -0.1800 
     72 C          -3.3804  -25.2103  -44.6807 C.2       12 UNK         0.5000 
     73 O          -4.5118  -25.6870  -44.5848 O.2       12 UNK        -0.5000 
     74 N          -2.2703  -25.8952  -44.3709 N.am      13 UNK        -0.5000 
     75 CA         -2.2529  -27.3152  -44.0207 C.3       13 UNK         0.1400 
     76 CB         -0.9789  -27.6120  -43.2147 C.3       13 UNK        -0.1800 
     77 C          -2.3387  -28.2463  -45.2493 C.2       13 UNK         0.5000 
     78 O          -2.6812  -29.4175  -45.0796 O.2       13 UNK        -0.5000 
     79 N          -2.0101  -27.7369  -46.4455 N.am      14 UNK        -0.5000 
     80 CA         -1.9333  -28.5024  -47.6927 C.3       14 UNK         0.1400 
     81 CB         -0.4970  -28.4184  -48.2344 C.3       14 UNK        -0.1800 
     82 C          -2.9298  -28.0030  -48.7532 C.2       14 UNK         0.5000 
     83 O          -3.4900  -28.8209  -49.4848 O.2       14 UNK        -0.5000 
     84 N          -3.1311  -26.6840  -48.8263 N.am      15 UNK        -0.5000 
     85 CA         -4.0231  -26.0006  -49.7581 C.3       15 UNK         0.1400 
     86 CB         -3.2097  -25.4970  -50.9684 C.3       15 UNK        -0.1800 
     87 C          -4.7760  -24.8878  -49.0063 C.2       15 UNK         0.5000 
     88 O          -5.0600  -25.0450  -47.8182 O.2       15 UNK        -0.5000 
     89 N          -5.1076  -23.7938  -49.6983 N.am      16 UNK        -0.5000 
     90 CA         -5.8133  -22.6287  -49.1757 C.3       16 UNK         0.1400 
     91 CB         -7.2991  -22.9662  -48.9356 C.3       16 UNK        -0.1800 
     92 C          -5.6830  -21.4865  -50.1912 C.2       16 UNK         0.5000 
     93 O          -5.3033  -21.7266  -51.3403 O.2       16 UNK        -0.5000 
     94 N          -6.0604  -20.2705  -49.7747 N.am      17 UNK        -0.5000 
     95 CA         -6.1167  -19.0725  -50.6225 C.3       17 UNK         0.1400 
     96 CB         -6.4521  -17.8564  -49.7468 C.3       17 UNK        -0.1800 
     97 C          -7.1106  -19.1861  -51.7977 C.2       17 UNK         0.5000 
     98 O          -6.9366  -18.5052  -52.8078 O.2       17 UNK        -0.5000 
     99 N          -8.1000  -20.0831  -51.6736 N.am      18 UNK        -0.5000 
    100 CA        -9.0452  -20.4633  -52.7264 C.3       18 UNK         0.1400 
    101 CB       -10.1071  -21.3954  -52.1231 C.3       18 UNK        -0.1800 
    102 C         -8.3798  -21.1275  -53.9516 C.2       18 UNK         0.5000 
    103 O         -8.9482  -21.0798  -55.0426 O.2       18 UNK        -0.5000 
    104 N         -7.1834  -21.7053  -53.7650 N.am      19 UNK        -0.5000 
    105 CA        -6.3473  -22.2686  -54.8278 C.3       19 UNK         0.1400 
    106 CB        -5.5421  -23.4456  -54.2488 C.3       19 UNK        -0.1800 
    107 C         -5.4087  -21.2186  -55.4629 C.2       19 UNK         0.5000 
    108 O         -4.5596  -21.5887  -56.2753 O.2       19 UNK        -0.5000 
    109 N         -5.5420  -19.9436  -55.0633 N.am      20 UNK        -0.5000 
    110 CA        -4.7313  -18.7679  -55.4037 C.3       20 UNK         0.1400 
    111 CB        -4.6656  -18.5178  -56.9231 C.3       20 UNK        -0.1800 
    112 C         -3.3327  -18.7977  -54.7624 C.2       20 UNK         0.5000 
    113 O         -2.9671  -17.8406  -54.0805 O.2       20 UNK        -0.5000 
    114 N         -2.6074  -19.9072  -54.9588 N.am      21 UNK        -0.5000 
    115 CA        -1.2879  -20.2235  -54.4118 C.3       21 UNK         0.1400 
    116 CB        -1.3933  -20.4795  -52.8950 C.3       21 UNK        -0.1800 
    117 C         -0.2233  -19.1801  -54.8140 C.2       21 UNK         0.5000 
    118 O          0.0619  -19.0566  -56.0069 O.2       21 UNK        -0.5000 
    119 N          0.3628  -18.4828  -53.8324 N.am      22 UNK        -0.5000 
    120 CA         1.4103  -17.4659  -54.0102 C.3       22 UNK         0.1400 
    121 C          0.9527  -16.2567  -54.8740 C.2       22 UNK         0.5000 
    122 N          1.7570  -15.8342  -55.8404 N.am      22 UNK        -0.7600 
    123 O         -0.0992  -15.6662  -54.6420 O.2       22 UNK        -0.5000 
    124 C124        1.9587  -16.9664  -52.6498 C.3       23 UNK        -0.0398 
    125 S125        2.6289  -18.3130  -51.6138 S.3       23 UNK        -0.2404 
    126 C126        1.9344  -17.9110  -49.9801 C.3       23 UNK        -0.0205 
    127 H127       -4.0097  -15.1729  -43.1100 H         1 UNK         0.0600 
    128 H128       -2.5928  -14.3506  -42.4526 H         1 UNK         0.0600 
    129 H129       -2.3903  -15.7178  -43.5511 H         1 UNK         0.0600 
    130 H130       -1.9352  -15.1342  -45.6580 H         1 UNK         0.3000 
    131 H131       -3.3121  -13.0386  -47.0527 H         1 UNK         0.0600 
    132 H132       -1.9706  -13.8080  -49.0065 H         1 UNK         0.0800 
    133 H133       -1.0527  -14.8805  -47.9777 H         1 UNK         0.0800 
    134 H134       -3.7901  -16.7521  -50.3969 H         1 UNK         0.0800 
    135 H135       -2.5261  -15.5752  -50.5934 H         1 UNK         0.0800 
    136 H136       -0.1712  -16.1671  -50.0674 H         1 UNK         0.1150 
    137 H137        0.7711  -20.3132  -49.7083 H         1 UNK         0.1150 
    138 H138       -3.3199  -19.0178  -49.5221 H         1 UNK         0.1150 
    139 H139       -2.3919  -21.3473  -48.4541 H         1 UNK         0.0800 
    140 H140       -2.6127  -21.4603  -50.1827 H         1 UNK         0.0800 
    141 H141        1.3189  -22.1398  -48.2065 H         1 UNK         0.0800 
    142 H142       -0.0946  -21.4467  -47.4779 H         1 UNK         0.0800 
    143 H143        0.7948  -24.3457  -47.3388 H         1 UNK         0.0600 
    144 H144        1.3034  -22.1434  -45.6941 H         1 UNK         0.3000 
    145 H145        1.8353  -23.8072  -42.5799 H         1 UNK         0.0600 
    146 H146        3.9475  -22.5432  -42.9030 H         1 UNK         0.0600 
    147 H147        3.9075  -23.9571  -43.9463 H         1 UNK         0.0600 
    148 H148        3.6090  -22.3606  -44.6215 H         1 UNK         0.0600 
    149 H149        1.8102  -21.0511  -43.5337 H         1 UNK         0.3000 
    150 H150       -1.4777  -20.3455  -42.3571 H         1 UNK         0.0600 
    151 H151       -0.0494  -20.1556  -40.2985 H         1 UNK         0.0600 
    152 H152       -0.3251  -18.5948  -41.0557 H         1 UNK         0.0600 
    153 H153        1.2254  -19.4090  -41.2566 H         1 UNK         0.0600 
    154 H154        0.4469  -18.6117  -43.4700 H         1 UNK         0.3000 
    155 H155       -0.2128  -19.2844  -46.9378 H         1 UNK         0.0600 
    156 H156       -0.5370  -16.8206  -46.8145 H         1 UNK         0.0600 
    157 H157       -0.8454  -16.9513  -45.0805 H         1 UNK         0.0600 
    158 H158       -1.9425  -17.7021  -46.2335 H         1 UNK         0.0600 
    159 H159        1.5910  -17.4609  -45.8115 H         1 UNK         0.3000 
    160 H160        4.4112  -19.6244  -45.3835 H         1 UNK         0.0600 
    161 H161        3.7520  -17.3693  -47.3548 H         1 UNK         0.0600 
    162 H162        4.3879  -18.9574  -47.7698 H         1 UNK         0.0600 
    163 H163        5.3672  -17.8417  -46.8328 H         1 UNK         0.0600 
    164 H164        3.7449  -16.8148  -44.9350 H         1 UNK         0.3000 
    165 H165        3.1535  -17.1796  -41.4497 H         1 UNK         0.0600 
    166 H166        5.5445  -15.9444  -42.9210 H         1 UNK         0.0600 
    167 H167        4.9882  -15.5200  -41.3017 H         1 UNK         0.0600 
    168 H168        5.6466  -17.1180  -41.6139 H         1 UNK         0.0600 
    169 H169        3.3066  -14.8910  -43.1603 H         1 UNK         0.3000 
    170 H170       -0.0783  -14.9518  -44.2581 H         1 UNK         0.0600 
    171 H171       -0.1084  -14.0800  -41.8654 H         1 UNK         0.0600 
    172 H172        1.2527  -13.0449  -42.2816 H         1 UNK         0.0600 
    173 H173       -0.3003  -12.8486  -43.0966 H         1 UNK         0.0600 
    174 H174        1.7095  -12.9076  -44.7131 H         1 UNK         0.3000 
    175 H175        3.9466  -13.7980  -46.7657 H         1 UNK         0.0600 
    176 H176        3.0291  -13.3824  -49.0842 H         1 UNK         0.0600 
    177 H177        2.8926  -15.0501  -48.5612 H         1 UNK         0.0600 
    178 H178        1.4703  -14.0127  -48.5511 H         1 UNK         0.0600 
    179 H179        1.6604  -11.9128  -47.0884 H         1 UNK         0.3000 
    180 H180        3.1187   -9.4765  -45.0694 H         1 UNK         0.0600 
    181 H181        3.2748   -9.3021  -48.1276 H         1 UNK         0.0600 
    182 H182        4.6124   -9.0185  -47.0203 H         1 UNK         0.0600 
    183 H183        3.2311   -7.9346  -47.0134 H         1 UNK         0.0600 
    184 H184        1.0613   -9.2829  -47.0413 H         1 UNK         0.3000 
    185 H185       -1.4668   -9.5868  -44.8102 H         1 UNK         0.0600 
    186 H186       -2.3233   -8.9298  -47.0323 H         1 UNK         0.0600 
    187 H187       -0.8109   -8.1050  -46.7141 H         1 UNK         0.0600 
    188 H188       -0.8511   -9.4811  -47.8181 H         1 UNK         0.0600 
    189 H189       -2.4820  -11.4971  -45.3231 H         1 UNK         0.3000 
    190 H190       -1.4748  -22.5556  -45.2445 H         1 UNK         0.3000 
    191 H191       -3.8917  -23.6289  -46.0264 H         1 UNK         0.0600 
    192 H192       -4.6456  -22.9900  -43.7217 H         1 UNK         0.0600 
    193 H193       -3.6637  -21.7429  -44.4678 H         1 UNK         0.0600 
    194 H194       -2.9666  -22.7935  -43.2344 H         1 UNK         0.0600 
    195 H195       -1.3706  -25.4392  -44.4619 H         1 UNK         0.3000 
    196 H196       -3.1115  -27.5316  -43.3814 H         1 UNK         0.0600 
    197 H197       -0.9713  -28.6446  -42.8636 H         1 UNK         0.0600 
    198 H198       -0.9063  -26.9695  -42.3369 H         1 UNK         0.0600 
    199 H199       -0.0802  -27.4646  -43.8145 H         1 UNK         0.0600 
    200 H200       -1.7868  -26.7487  -46.5126 H         1 UNK         0.3000 
    201 H201       -2.1600  -29.5549  -47.5114 H         1 UNK         0.0600 
    202 H202        0.2154  -28.8401  -47.5252 H         1 UNK         0.0600 
    203 H203       -0.2012  -27.3871  -48.4324 H         1 UNK         0.0600 
    204 H204       -0.3965  -28.9753  -49.1669 H         1 UNK         0.0600 
    205 H205       -2.6439  -26.0695  -48.1757 H         1 UNK         0.3000 
    206 H206       -4.7849  -26.6954  -50.1167 H         1 UNK         0.0600 
    207 H207       -2.6526  -26.3116  -51.4313 H         1 UNK         0.0600 
    208 H208       -3.8555  -25.0774  -51.7405 H         1 UNK         0.0600 
    209 H209       -2.4916  -24.7299  -50.6772 H         1 UNK         0.0600 
    210 H210       -4.8260  -23.6970  -50.6664 H         1 UNK         0.3000 
    211 H211       -5.3435  -22.3164  -48.2407 H         1 UNK         0.0600 
    212 H212       -7.7882  -23.2940  -49.8539 H         1 UNK         0.0600 
    213 H213       -7.8484  -22.1023  -48.5601 H         1 UNK         0.0600 
    214 H214       -7.4160  -23.7587  -48.1967 H         1 UNK         0.0600 
    215 H215       -6.3699  -20.1540  -48.8202 H         1 UNK         0.3000 
    216 H216       -5.1266  -18.9230  -51.0580 H         1 UNK         0.0600 
    217 H217       -6.4560  -16.9388  -50.3367 H         1 UNK         0.0600 
    218 H218       -5.7173  -17.7265  -48.9521 H         1 UNK         0.0600 
    219 H219       -7.4346  -17.9530  -49.2832 H         1 UNK         0.0600 
    220 H220       -8.1738  -20.5872  -50.8030 H         1 UNK         0.3000 
    221 H221       -9.5409  -19.5551  -53.0751 H         1 UNK         0.0600 
    222 H222       -9.6632  -22.3137  -51.7365 H         1 UNK         0.0600 
    223 H223      -10.6412  -20.9097  -51.3062 H         1 UNK         0.0600 
    224 H224      -10.8490  -21.6789  -52.8709 H         1 UNK         0.0600 
    225 H225       -6.7619  -21.6830  -52.8429 H         1 UNK         0.3000 
    226 H226       -6.9852  -22.6580  -55.6237 H         1 UNK         0.0600 
    227 H227       -6.1926  -24.1667  -53.7536 H         1 UNK         0.0600 
    228 H228       -5.0092  -23.9792  -55.0367 H         1 UNK         0.0600 
    229 H229       -4.7989  -23.1096  -53.5254 H         1 UNK         0.0600 
    230 H230       -6.2450  -19.7551  -54.3584 H         1 UNK         0.3000 
    231 H231       -5.2577  -17.9192  -54.9643 H         1 UNK         0.0600 
    232 H232       -4.1705  -17.5694  -57.1350 H         1 UNK         0.0600 
    233 H233       -5.6640  -18.4677  -57.3575 H         1 UNK         0.0600 
    234 H234       -4.1092  -19.2946  -57.4475 H         1 UNK         0.0600 
    235 H235       -3.0258  -20.6217  -55.5470 H         1 UNK         0.3000 
    236 H236       -0.9814  -21.1610  -54.8779 H         1 UNK         0.0600 
    237 H237       -2.1032  -21.2794  -52.6832 H         1 UNK         0.0600 
    238 H238       -0.4339  -20.7834  -52.4745 H         1 UNK         0.0600 
    239 H239       -1.7306  -19.5925  -52.3596 H         1 UNK         0.0600 
    240 H240        0.0543  -18.6327  -52.8830 H         1 UNK         0.3000 
    241 H241        2.2311  -17.9596  -54.5343 H         1 UNK         0.0600 
    242 H242        2.6285  -16.2986  -56.0456 H         1 UNK         0.3800 
    243 H243        1.4791  -15.0399  -56.3959 H         1 UNK         0.3800 
    244 H244        2.7632  -16.2461  -52.8079 H         1 UNK         0.0800 
    245 H245        1.1798  -16.4313  -52.1056 H         1 UNK         0.0800 
    246 H246        2.1291  -16.8644  -49.7483 H         1 UNK         0.0800 
    247 H247        2.4617  -18.4938  -49.2250 H         1 UNK         0.0800 
@<TRIPOS>BOND
     1    1    2 1    
     2    1  127 1    
     3    1  128 1    
     4    1  129 1    
     5    2    3 2    
     6    2    4 am   BACKBONE|DICT|INTERRES
     7    4    5 1    
     8    4  130 1    
     9    5    6 1    
    10    5   65 1    
    11    5  131 1    
    12    6    7 1    
    13    6  132 1    
    14    6  133 1    
    15    7    8 1    
    16    8    9 1    
    17    8  134 1    
    18    8  135 1    
    19    9   10 ar   
    20    9   14 ar   
    21   10   11 ar   
    22   10  136 1    
    23   11   12 ar   
    24   11  126 1    
    25   12   13 ar   
    26   12  137 1    
    27   13   14 ar   
    28   13   15 1    
    29   14  138 1    
    30   15   16 1    
    31   15  139 1    
    32   15  140 1    
    33   16   17 1    
    34   17   18 1    
    35   17  141 1    
    36   17  142 1    
    37   18   19 1    
    38   18   67 1    
    39   18  143 1    
    40   19   20 am   BACKBONE|DICT|INTERRES
    41   19  144 1    
    42   20   21 2    
    43   20   22 1    
    44   22   23 1    
    45   22   24 1    
    46   22  145 1    
    47   23  146 1    
    48   23  147 1    
    49   23  148 1    
    50   24   25 am   BACKBONE|DICT|INTERRES
    51   24  149 1    
    52   25   26 2    
    53   25   27 1    
    54   27   28 1    
    55   27   29 1    
    56   27  150 1    
    57   28  151 1    
    58   28  152 1    
    59   28  153 1    
    60   29   30 am   BACKBONE|DICT|INTERRES
    61   29  154 1    
    62   30   31 2    
    63   30   32 1    
    64   32   33 1    
    65   32   34 1    
    66   32  155 1    
    67   33  156 1    
    68   33  157 1    
    69   33  158 1    
    70   34   35 am   BACKBONE|DICT|INTERRES
    71   34  159 1    
    72   35   36 2    
    73   35   37 1    
    74   37   38 1    
    75   37   39 1    
    76   37  160 1    
    77   38  161 1    
    78   38  162 1    
    79   38  163 1    
    80   39   40 am   BACKBONE|DICT|INTERRES
    81   39  164 1    
    82   40   41 2    
    83   40   42 1    
    84   42   43 1    
    85   42   44 1    
    86   42  165 1    
    87   43  166 1    
    88   43  167 1    
    89   43  168 1    
    90   44   45 am   BACKBONE|DICT|INTERRES
    91   44  169 1    
    92   45   46 2    
    93   45   47 1    
    94   47   48 1    
    95   47   49 1    
    96   47  170 1    
    97   48  171 1    
    98   48  172 1    
    99   48  173 1    
   100   49   50 am   BACKBONE|DICT|INTERRES
   101   49  174 1    
   102   50   51 2    
   103   50   52 1    
   104   52   53 1    
   105   52   54 1    
   106   52  175 1    
   107   53  176 1    
   108   53  177 1    
   109   53  178 1    
   110   54   55 am   BACKBONE|DICT|INTERRES
   111   54  179 1    
   112   55   56 2    
   113   55   57 1    
   114   57   58 1    
   115   57   59 1    
   116   57  180 1    
   117   58  181 1    
   118   58  182 1    
   119   58  183 1    
   120   59   60 am   BACKBONE|DICT|INTERRES
   121   59  184 1    
   122   60   61 2    
   123   60   62 1    
   124   62   63 1    
   125   62   64 1    
   126   62  185 1    
   127   63  186 1    
   128   63  187 1    
   129   63  188 1    
   130   64   65 am   BACKBONE|DICT|INTERRES
   131   64  189 1    
   132   65   66 2    
   133   67   68 2    
   134   67   69 am   BACKBONE|DICT|INTERRES
   135   69   70 1    
   136   69  190 1    
   137   70   71 1    
   138   70   72 1    
   139   70  191 1    
   140   71  192 1    
   141   71  193 1    
   142   71  194 1    
   143   72   73 2    
   144   72   74 am   BACKBONE|DICT|INTERRES
   145   74   75 1    
   146   74  195 1    
   147   75   76 1    
   148   75   77 1    
   149   75  196 1    
   150   76  197 1    
   151   76  198 1    
   152   76  199 1    
   153   77   78 2    
   154   77   79 am   BACKBONE|DICT|INTERRES
   155   79   80 1    
   156   79  200 1    
   157   80   81 1    
   158   80   82 1    
   159   80  201 1    
   160   81  202 1    
   161   81  203 1    
   162   81  204 1    
   163   82   83 2    
   164   82   84 am   BACKBONE|DICT|INTERRES
   165   84   85 1    
   166   84  205 1    
   167   85   86 1    
   168   85   87 1    
   169   85  206 1    
   170   86  207 1    
   171   86  208 1    
   172   86  209 1    
   173   87   88 2    
   174   87   89 am   BACKBONE|DICT|INTERRES
   175   89   90 1    
   176   89  210 1    
   177   90   91 1    
   178   90   92 1    
   179   90  211 1    
   180   91  212 1    
   181   91  213 1    
   182   91  214 1    
   183   92   93 2    
   184   92   94 am   BACKBONE|DICT|INTERRES
   185   94   95 1    
   186   94  215 1    
   187   95   96 1    
   188   95   97 1    
   189   95  216 1    
   190   96  217 1    
   191   96  218 1    
   192   96  219 1    
   193   97   98 2    
   194   97   99 am   BACKBONE|DICT|INTERRES
   195   99  100 1    
   196   99  220 1    
   197  100  101 1    
   198  100  102 1    
   199  100  221 1    
   200  101  222 1    
   201  101  223 1    
   202  101  224 1    
   203  102  103 2    
   204  102  104 am   BACKBONE|DICT|INTERRES
   205  104  105 1    
   206  104  225 1    
   207  105  106 1    
   208  105  107 1    
   209  105  226 1    
   210  106  227 1    
   211  106  228 1    
   212  106  229 1    
   213  107  108 2    
   214  107  109 am   BACKBONE|DICT|INTERRES
   215  109  110 1    
   216  109  230 1    
   217  110  111 1    
   218  110  112 1    
   219  110  231 1    
   220  111  232 1    
   221  111  233 1    
   222  111  234 1    
   223  112  113 2    
   224  112  114 am   BACKBONE|DICT|INTERRES
   225  114  115 1    
   226  114  235 1    
   227  115  116 1    
   228  115  117 1    
   229  115  236 1    
   230  116  237 1    
   231  116  238 1    
   232  116  239 1    
   233  117  118 2    
   234  117  119 am   BACKBONE|DICT|INTERRES
   235  119  120 1    
   236  119  240 1    
   237  120  121 1    
   238  120  124 1    
   239  120  241 1    
   240  121  122 am   BACKBONE|DICT|INTERRES
   241  121  123 2    
   242  122  242 1    
   243  122  243 1    
   244  124  125 1    
   245  124  244 1    
   246  124  245 1    
   247  125  126 1    
   248  126  246 1    
   249  126  247 1    
@<TRIPOS>SUBSTRUCTURE
     1 UNK         1 GROUP             0       ****    0 ROOT    
