@<TRIPOS>MOLECULE
3R540
247   249    1
SMALL
USER_CHARGES


@<TRIPOS>ATOM
      1 CA          6.2922  -13.9269  -44.7685 C.3       0 UNK        -0.1800 
      2 C           5.3862  -13.3298  -45.8362 C.2       0 UNK         0.5000 
      3 O           5.8753  -12.6798  -46.7597 O.2       0 UNK        -0.5000 
      4 N           4.0734  -13.5474  -45.6947 N.am      1 UNK        -0.5000 
      5 CA          2.9842  -12.9999  -46.5124 C.3       1 UNK         0.1400 
      6 C6          3.0461  -13.3793  -48.0161 C.3       23 UNK        -0.0398 
      7 S7          2.8806  -15.1790  -48.2594 S.3       23 UNK        -0.2404 
      8 C8          2.5612  -15.2501  -50.0496 C.3       23 UNK        -0.0205 
      9 C9          2.0090  -16.6007  -50.4874 C.ar      23 UNK        -0.0193 
     10 C10         0.7582  -16.6794  -51.1098 C.ar      23 UNK        -0.1150 
     11 C11         0.2680  -17.9074  -51.5615 C.ar      23 UNK        -0.0193 
     12 C12         1.0348  -19.0603  -51.3849 C.ar      23 UNK        -0.1150 
     13 C13         2.2689  -19.0070  -50.7297 C.ar      23 UNK        -0.0193 
     14 C14         2.7559  -17.7690  -50.2981 C.ar      23 UNK        -0.1150 
     15 C15         3.0881  -20.2735  -50.4904 C.3       23 UNK        -0.0205 
     16 S16         2.0896  -21.7220  -49.9932 S.3       23 UNK        -0.2404 
     17 C17         1.2213  -21.0629  -48.5318 C.3       23 UNK        -0.0398 
     18 CA          0.5367  -22.1613  -47.6864 C.3       11 UNK         0.1400 
     19 N           0.2915  -21.7031  -46.3193 N.am      11 UNK        -0.5000 
     20 C          -0.1412  -22.4699  -45.3101 C.2       10 UNK         0.5000 
     21 O          -0.3322  -23.6822  -45.4024 O.2       10 UNK        -0.5000 
     22 CA         -0.4639  -21.7437  -43.9920 C.3       10 UNK         0.1400 
     23 CB          0.8106  -21.4912  -43.1725 C.3       10 UNK        -0.1800 
     24 N          -1.1593  -20.4768  -44.2249 N.am      10 UNK        -0.5000 
     25 C          -2.4043  -20.3801  -44.7129 C.2       9 UNK         0.5000 
     26 O          -3.1184  -21.3511  -44.9608 O.2       9 UNK        -0.5000 
     27 CA         -2.9175  -18.9631  -45.0205 C.3       9 UNK         0.1400 
     28 CB         -3.4681  -18.2920  -43.7535 C.3       9 UNK        -0.1800 
     29 N          -1.8817  -18.1196  -45.6189 N.am      9 UNK        -0.5000 
     30 C          -1.3946  -18.3013  -46.8564 C.2       8 UNK         0.5000 
     31 O          -1.7727  -19.1954  -47.6083 O.2       8 UNK        -0.5000 
     32 CA         -0.2632  -17.3642  -47.3162 C.3       8 UNK         0.1400 
     33 CB         -0.8531  -16.0763  -47.9108 C.3       8 UNK        -0.1800 
     34 N           0.6661  -17.0252  -46.2386 N.am      8 UNK        -0.5000 
     35 C           1.3940  -17.9104  -45.5430 C.2       7 UNK         0.5000 
     36 O           1.3999  -19.1189  -45.7735 O.2       7 UNK        -0.5000 
     37 CA          2.2084  -17.3698  -44.3532 C.3       7 UNK         0.1400 
     38 CB          3.6688  -17.1321  -44.7645 C.3       7 UNK        -0.1800 
     39 N           1.6689  -16.1400  -43.7666 N.am      7 UNK        -0.5000 
     40 C           0.4570  -15.9811  -43.2208 C.2       6 UNK         0.5000 
     41 O          -0.3880  -16.8773  -43.1856 O.2       6 UNK        -0.5000 
     42 CA          0.1453  -14.5828  -42.6376 C.3       6 UNK         0.1400 
     43 CB         -1.2329  -14.5221  -41.9553 C.3       6 UNK        -0.1800 
     44 N           1.1591  -14.1016  -41.6922 N.am      6 UNK        -0.5000 
     45 C           2.3833  -13.6634  -42.0096 C.2       5 UNK         0.5000 
     46 O           2.8250  -13.6548  -43.1616 O.2       5 UNK        -0.5000 
     47 CA          3.2213  -13.0946  -40.8593 C.3       5 UNK         0.1400 
     48 CB          4.7032  -12.9054  -41.2418 C.3       5 UNK        -0.1800 
     49 N           2.6457  -11.8149  -40.4534 N.am      5 UNK        -0.5000 
     50 C           2.7500  -11.2843  -39.2274 C.2       4 UNK         0.5000 
     51 O           3.2882  -11.8704  -38.2868 O.2       4 UNK        -0.5000 
     52 CA          2.1949   -9.8619  -38.9979 C.3       4 UNK         0.1400 
     53 CB          3.3088   -8.9208  -38.5079 C.3       4 UNK        -0.1800 
     54 N           1.6040   -9.2769  -40.2024 N.am      4 UNK        -0.5000 
     55 C           0.2970   -9.2550  -40.4934 C.2       3 UNK         0.5000 
     56 O          -0.5780   -9.7135  -39.7582 O.2       3 UNK        -0.5000 
     57 CA         -0.0977   -8.6290  -41.8491 C.3       3 UNK         0.1400 
     58 CB         -0.4748   -7.1508  -41.6672 C.3       3 UNK        -0.1800 
     59 N           0.9402   -8.7351  -42.8839 N.am      3 UNK        -0.5000 
     60 C           1.4113   -9.8933  -43.3623 C.2       2 UNK         0.5000 
     61 O           1.0263  -10.9921  -42.9578 O.2       2 UNK        -0.5000 
     62 CA          2.5213   -9.8128  -44.4217 C.3       2 UNK         0.1400 
     63 CB          3.8324   -9.2999  -43.8017 C.3       2 UNK        -0.1800 
     64 N           2.7533  -11.1498  -44.9571 N.am      2 UNK        -0.5000 
     65 C           2.8332  -11.4879  -46.2480 C.2       1 UNK         0.5000 
     66 O           2.7974  -10.6799  -47.1780 O.2       1 UNK        -0.5000 
     67 C          -0.7541  -22.6936  -48.3472 C.2       11 UNK         0.5000 
     68 O          -0.7375  -23.7894  -48.9066 O.2       11 UNK        -0.5000 
     69 N          -1.8630  -21.9501  -48.2155 N.am      12 UNK        -0.5000 
     70 CA         -3.1914  -22.3489  -48.6815 C.3       12 UNK         0.1400 
     71 CB         -4.1818  -21.1888  -48.5078 C.3       12 UNK        -0.1800 
     72 C          -3.7159  -23.6153  -47.9833 C.2       12 UNK         0.5000 
     73 O          -4.2639  -24.4869  -48.6549 O.2       12 UNK        -0.5000 
     74 N          -3.5088  -23.7223  -46.6631 N.am      13 UNK        -0.5000 
     75 CA         -3.8605  -24.9033  -45.8715 C.3       13 UNK         0.1400 
     76 CB         -3.6686  -24.6042  -44.3772 C.3       13 UNK        -0.1800 
     77 C          -3.0727  -26.1610  -46.2864 C.2       13 UNK         0.5000 
     78 O          -3.6494  -27.2483  -46.3263 O.2       13 UNK        -0.5000 
     79 N          -1.7839  -25.9880  -46.6111 N.am      14 UNK        -0.5000 
     80 CA         -0.9130  -27.0418  -47.1306 C.3       14 UNK         0.1400 
     81 CB          0.5514  -26.5829  -47.0512 C.3       14 UNK        -0.1800 
     82 C          -1.2832  -27.4608  -48.5664 C.2       14 UNK         0.5000 
     83 O          -1.3032  -28.6566  -48.8610 O.2       14 UNK        -0.5000 
     84 N          -1.5717  -26.4760  -49.4290 N.am      15 UNK        -0.5000 
     85 CA         -1.9762  -26.6757  -50.8222 C.3       15 UNK         0.1400 
     86 CB         -1.8918  -25.3369  -51.5706 C.3       15 UNK        -0.1800 
     87 C          -3.3771  -27.3002  -50.9655 C.2       15 UNK         0.5000 
     88 O          -3.5906  -28.0969  -51.8807 O.2       15 UNK        -0.5000 
     89 N          -4.2961  -26.9401  -50.0578 N.am      16 UNK        -0.5000 
     90 CA         -5.6726  -27.4236  -49.9386 C.3       16 UNK         0.1400 
     91 CB         -5.6846  -28.8881  -49.4477 C.3       16 UNK        -0.1800 
     92 C          -6.4714  -27.1861  -51.2354 C.2       16 UNK         0.5000 
     93 O          -6.7956  -26.0393  -51.5421 O.2       16 UNK        -0.5000 
     94 N          -6.7438  -28.2534  -51.9973 N.am      17 UNK        -0.5000 
     95 CA         -7.4247  -28.2069  -53.2934 C.3       17 UNK         0.1400 
     96 CB         -7.7165  -29.6435  -53.7530 C.3       17 UNK        -0.1800 
     97 C          -6.6455  -27.4399  -54.3827 C.2       17 UNK         0.5000 
     98 O          -7.2629  -26.9438  -55.3256 O.2       17 UNK        -0.5000 
     99 N          -5.3164  -27.3428  -54.2357 N.am      18 UNK        -0.5000 
    100 CA        -4.4295  -26.6273  -55.1535 C.3       18 UNK         0.1400 
    101 CB        -3.0554  -27.3178  -55.1580 C.3       18 UNK        -0.1800 
    102 C         -4.2909  -25.1258  -54.8269 C.2       18 UNK         0.5000 
    103 O         -3.5967  -24.4231  -55.5625 O.2       18 UNK        -0.5000 
    104 N         -4.9337  -24.6385  -53.7535 N.am      19 UNK        -0.5000 
    105 CA        -4.8614  -23.2547  -53.2651 C.3       19 UNK         0.1400 
    106 CB        -5.2784  -23.2283  -51.7848 C.3       19 UNK        -0.1800 
    107 C         -5.6758  -22.2447  -54.1084 C.2       19 UNK         0.5000 
    108 O         -6.3619  -21.3845  -53.5484 O.2       19 UNK        -0.5000 
    109 N         -5.5892  -22.3528  -55.4394 N.am      20 UNK        -0.5000 
    110 CA        -6.2154  -21.4544  -56.4068 C.3       20 UNK         0.1400 
    111 CB        -6.0127  -22.0160  -57.8224 C.3       20 UNK        -0.1800 
    112 C         -5.6398  -20.0324  -56.2855 C.2       20 UNK         0.5000 
    113 O         -4.4199  -19.8658  -56.3555 O.2       20 UNK        -0.5000 
    114 N         -6.5292  -19.0517  -56.0717 N.am      21 UNK        -0.5000 
    115 CA        -6.2309  -17.6400  -55.7925 C.3       21 UNK         0.1400 
    116 CB        -5.6170  -16.9527  -57.0308 C.3       21 UNK        -0.1800 
    117 C         -5.3891  -17.4415  -54.5100 C.2       21 UNK         0.5000 
    118 O         -4.5678  -16.5249  -54.4433 O.2       21 UNK        -0.5000 
    119 N         -5.6074  -18.3121  -53.5174 N.am      22 UNK        -0.5000 
    120 CA        -4.8907  -18.3396  -52.2375 C.3       22 UNK         0.1400 
    121 C         -5.8258  -18.7620  -51.0739 C.2       22 UNK         0.5000 
    122 N         -6.6484  -19.7915  -51.2410 N.am      22 UNK        -0.7600 
    123 O         -5.8336  -18.1308  -50.0212 O.2       22 UNK        -0.5000 
    124 C124       -3.6224  -19.2279  -52.3254 C.3       23 UNK        -0.0398 
    125 S125       -2.3232  -18.7459  -51.1404 S.3       23 UNK        -0.2404 
    126 C126       -1.0833  -18.0075  -52.2489 C.3       23 UNK        -0.0205 
    127 H127        7.0289  -14.5868  -45.2266 H         1 UNK         0.0600 
    128 H128        5.7280  -14.5049  -44.0360 H         1 UNK         0.0600 
    129 H129        6.8218  -13.1343  -44.2400 H         1 UNK         0.0600 
    130 H130        3.7612  -13.9876  -44.8371 H         1 UNK         0.3000 
    131 H131        2.0703  -13.4441  -46.1140 H         1 UNK         0.0600 
    132 H132        2.2308  -12.8938  -48.5549 H         1 UNK         0.0800 
    133 H133        3.9689  -13.0329  -48.4819 H         1 UNK         0.0800 
    134 H134        3.4887  -15.0490  -50.5872 H         1 UNK         0.0800 
    135 H135        1.8663  -14.4547  -50.3229 H         1 UNK         0.0800 
    136 H136        0.1696  -15.7843  -51.2532 H         1 UNK         0.1150 
    137 H137        0.6517  -20.0073  -51.7381 H         1 UNK         0.1150 
    138 H138        3.7182  -17.7095  -49.8091 H         1 UNK         0.1150 
    139 H139        3.6288  -20.5170  -51.4056 H         1 UNK         0.0800 
    140 H140        3.8428  -20.0973  -49.7222 H         1 UNK         0.0800 
    141 H141        0.5036  -20.3013  -48.8409 H         1 UNK         0.0800 
    142 H142        1.9686  -20.5455  -47.9289 H         1 UNK         0.0800 
    143 H143        1.2285  -23.0026  -47.6043 H         1 UNK         0.0600 
    144 H144        0.4780  -20.7211  -46.1335 H         1 UNK         0.3000 
    145 H145       -1.1214  -22.3898  -43.4065 H         1 UNK         0.0600 
    146 H146        0.5778  -21.0219  -42.2165 H         1 UNK         0.0600 
    147 H147        1.5130  -20.8459  -43.7003 H         1 UNK         0.0600 
    148 H148        1.3256  -22.4284  -42.9577 H         1 UNK         0.0600 
    149 H149       -0.6331  -19.6281  -44.0739 H         1 UNK         0.3000 
    150 H150       -3.7367  -19.0529  -45.7372 H         1 UNK         0.0600 
    151 H151       -4.2879  -18.8746  -43.3314 H         1 UNK         0.0600 
    152 H152       -3.8544  -17.2958  -43.9696 H         1 UNK         0.0600 
    153 H153       -2.7050  -18.1956  -42.9807 H         1 UNK         0.0600 
    154 H154       -1.4699  -17.4129  -45.0222 H         1 UNK         0.3000 
    155 H155        0.3027  -17.8762  -48.0975 H         1 UNK         0.0600 
    156 H156       -1.5291  -16.3065  -48.7359 H         1 UNK         0.0600 
    157 H157       -0.0745  -15.4264  -48.3075 H         1 UNK         0.0600 
    158 H158       -1.4181  -15.5102  -47.1694 H         1 UNK         0.0600 
    159 H159        0.7348  -16.0514  -45.9872 H         1 UNK         0.3000 
    160 H160        2.1920  -18.1360  -43.5757 H         1 UNK         0.0600 
    161 H161        3.7486  -16.3775  -45.5468 H         1 UNK         0.0600 
    162 H162        4.1190  -18.0482  -45.1490 H         1 UNK         0.0600 
    163 H163        4.2718  -16.8051  -43.9172 H         1 UNK         0.0600 
    164 H164        2.2927  -15.3410  -43.7167 H         1 UNK         0.3000 
    165 H165        0.1203  -13.8912  -43.4826 H         1 UNK         0.0600 
    166 H166       -1.4584  -13.5115  -41.6138 H         1 UNK         0.0600 
    167 H167       -2.0266  -14.8132  -42.6447 H         1 UNK         0.0600 
    168 H168       -1.2844  -15.1885  -41.0935 H         1 UNK         0.0600 
    169 H169        0.8771  -14.0697  -40.7233 H         1 UNK         0.3000 
    170 H170        3.1638  -13.8078  -40.0344 H         1 UNK         0.0600 
    171 H171        4.8225  -12.1867  -42.0534 H         1 UNK         0.0600 
    172 H172        5.2890  -12.5511  -40.3937 H         1 UNK         0.0600 
    173 H173        5.1447  -13.8474  -41.5687 H         1 UNK         0.0600 
    174 H174        2.1155  -11.3271  -41.1673 H         1 UNK         0.3000 
    175 H175        1.4432   -9.9333  -38.2093 H         1 UNK         0.0600 
    176 H176        4.1122   -8.8324  -39.2403 H         1 UNK         0.0600 
    177 H177        2.9215   -7.9208  -38.3121 H         1 UNK         0.0600 
    178 H178        3.7502   -9.2822  -37.5782 H         1 UNK         0.0600 
    179 H179        2.2469   -8.8729  -40.8675 H         1 UNK         0.3000 
    180 H180       -0.9795   -9.1639  -42.2080 H         1 UNK         0.0600 
    181 H181       -0.8447   -6.7199  -42.5977 H         1 UNK         0.0600 
    182 H182        0.3772   -6.5560  -41.3356 H         1 UNK         0.0600 
    183 H183       -1.2640   -7.0373  -40.9225 H         1 UNK         0.0600 
    184 H184        1.3015   -7.8659  -43.2503 H         1 UNK         0.3000 
    185 H185        2.1931   -9.1322  -45.2099 H         1 UNK         0.0600 
    186 H186        4.1584   -9.9279  -42.9716 H         1 UNK         0.0600 
    187 H187        4.6341   -9.2834  -44.5403 H         1 UNK         0.0600 
    188 H188        3.7221   -8.2831  -43.4235 H         1 UNK         0.0600 
    189 H189        2.7271  -11.8932  -44.2660 H         1 UNK         0.3000 
    190 H190       -1.7951  -21.0247  -47.7970 H         1 UNK         0.3000 
    191 H191       -3.1096  -22.5659  -49.7477 H         1 UNK         0.0600 
    192 H192       -3.8648  -20.3114  -49.0703 H         1 UNK         0.0600 
    193 H193       -4.2810  -20.8958  -47.4627 H         1 UNK         0.0600 
    194 H194       -5.1739  -21.4625  -48.8689 H         1 UNK         0.0600 
    195 H195       -3.1037  -22.9382  -46.1611 H         1 UNK         0.3000 
    196 H196       -4.9196  -25.1093  -46.0396 H         1 UNK         0.0600 
    197 H197       -4.2881  -23.7650  -44.0607 H         1 UNK         0.0600 
    198 H198       -2.6321  -24.3616  -44.1435 H         1 UNK         0.0600 
    199 H199       -3.9499  -25.4639  -43.7678 H         1 UNK         0.0600 
    200 H200       -1.3706  -25.0685  -46.4945 H         1 UNK         0.3000 
    201 H201       -1.0241  -27.9188  -46.4895 H         1 UNK         0.0600 
    202 H202        0.8358  -26.3517  -46.0245 H         1 UNK         0.0600 
    203 H203        0.7305  -25.6926  -47.6543 H         1 UNK         0.0600 
    204 H204        1.2248  -27.3629  -47.4085 H         1 UNK         0.0600 
    205 H205       -1.4622  -25.5121  -49.1227 H         1 UNK         0.3000 
    206 H206       -1.2652  -27.3636  -51.2841 H         1 UNK         0.0600 
    207 H207       -2.5183  -24.5774  -51.1048 H         1 UNK         0.0600 
    208 H208       -0.8695  -24.9587  -51.5819 H         1 UNK         0.0600 
    209 H209       -2.2107  -25.4397  -52.6074 H         1 UNK         0.0600 
    210 H210       -4.0571  -26.1891  -49.4148 H         1 UNK         0.3000 
    211 H211       -6.1475  -26.8128  -49.1694 H         1 UNK         0.0600 
    212 H212       -5.1659  -29.5612  -50.1310 H         1 UNK         0.0600 
    213 H213       -6.7048  -29.2543  -49.3259 H         1 UNK         0.0600 
    214 H214       -5.1963  -28.9708  -48.4763 H         1 UNK         0.0600 
    215 H215       -6.4101  -29.1564  -51.6929 H         1 UNK         0.3000 
    216 H216       -8.3775  -27.6925  -53.1518 H         1 UNK         0.0600 
    217 H217       -8.2513  -29.6491  -54.7037 H         1 UNK         0.0600 
    218 H218       -8.3380  -30.1713  -53.0294 H         1 UNK         0.0600 
    219 H219       -6.7980  -30.2158  -53.8894 H         1 UNK         0.0600 
    220 H220       -4.8777  -27.7603  -53.4202 H         1 UNK         0.3000 
    221 H221       -4.8332  -26.6953  -56.1658 H         1 UNK         0.0600 
    222 H222       -2.5619  -27.2490  -54.1892 H         1 UNK         0.0600 
    223 H223       -3.1460  -28.3739  -55.4126 H         1 UNK         0.0600 
    224 H224       -2.3910  -26.8645  -55.8947 H         1 UNK         0.0600 
    225 H225       -5.5233  -25.2635  -53.2173 H         1 UNK         0.3000 
    226 H226       -3.8181  -22.9366  -53.3151 H         1 UNK         0.0600 
    227 H227       -4.7600  -23.9943  -51.2114 H         1 UNK         0.0600 
    228 H228       -5.0491  -22.2663  -51.3274 H         1 UNK         0.0600 
    229 H229       -6.3489  -23.3988  -51.6662 H         1 UNK         0.0600 
    230 H230       -4.9452  -23.0458  -55.8062 H         1 UNK         0.3000 
    231 H231       -7.2869  -21.4294  -56.1978 H         1 UNK         0.0600 
    232 H232       -6.4805  -21.3719  -58.5681 H         1 UNK         0.0600 
    233 H233       -6.4584  -23.0060  -57.9214 H         1 UNK         0.0600 
    234 H234       -4.9547  -22.0980  -58.0752 H         1 UNK         0.0600 
    235 H235       -7.5076  -19.3008  -56.0223 H         1 UNK         0.3000 
    236 H236       -7.1904  -17.1597  -55.5960 H         1 UNK         0.0600 
    237 H237       -4.6182  -17.3299  -57.2517 H         1 UNK         0.0600 
    238 H238       -6.2366  -17.1056  -57.9143 H         1 UNK         0.0600 
    239 H239       -5.5322  -15.8761  -56.8785 H         1 UNK         0.0600 
    240 H240       -6.3007  -19.0369  -53.6452 H         1 UNK         0.3000 
    241 H241       -4.5761  -17.3176  -52.0150 H         1 UNK         0.0600 
    242 H242       -7.2707  -20.0437  -50.4905 H         1 UNK         0.3800 
    243 H243       -6.6272  -20.3634  -52.0830 H         1 UNK         0.3800 
    244 H244       -3.8662  -20.2791  -52.1679 H         1 UNK         0.0800 
    245 H245       -3.2055  -19.1822  -53.3322 H         1 UNK         0.0800 
    246 H246       -1.4306  -17.0270  -52.5783 H         1 UNK         0.0800 
    247 H247       -0.9735  -18.6176  -53.1467 H         1 UNK         0.0800 
@<TRIPOS>BOND
     1    1    2 1    
     2    1  127 1    
     3    1  128 1    
     4    1  129 1    
     5    2    3 2    
     6    2    4 am   BACKBONE|DICT|INTERRES
     7    4    5 1    
     8    4  130 1    
     9    5    6 1    
    10    5   65 1    
    11    5  131 1    
    12    6    7 1    
    13    6  132 1    
    14    6  133 1    
    15    7    8 1    
    16    8    9 1    
    17    8  134 1    
    18    8  135 1    
    19    9   10 ar   
    20    9   14 ar   
    21   10   11 ar   
    22   10  136 1    
    23   11   12 ar   
    24   11  126 1    
    25   12   13 ar   
    26   12  137 1    
    27   13   14 ar   
    28   13   15 1    
    29   14  138 1    
    30   15   16 1    
    31   15  139 1    
    32   15  140 1    
    33   16   17 1    
    34   17   18 1    
    35   17  141 1    
    36   17  142 1    
    37   18   19 1    
    38   18   67 1    
    39   18  143 1    
    40   19   20 am   BACKBONE|DICT|INTERRES
    41   19  144 1    
    42   20   21 2    
    43   20   22 1    
    44   22   23 1    
    45   22   24 1    
    46   22  145 1    
    47   23  146 1    
    48   23  147 1    
    49   23  148 1    
    50   24   25 am   BACKBONE|DICT|INTERRES
    51   24  149 1    
    52   25   26 2    
    53   25   27 1    
    54   27   28 1    
    55   27   29 1    
    56   27  150 1    
    57   28  151 1    
    58   28  152 1    
    59   28  153 1    
    60   29   30 am   BACKBONE|DICT|INTERRES
    61   29  154 1    
    62   30   31 2    
    63   30   32 1    
    64   32   33 1    
    65   32   34 1    
    66   32  155 1    
    67   33  156 1    
    68   33  157 1    
    69   33  158 1    
    70   34   35 am   BACKBONE|DICT|INTERRES
    71   34  159 1    
    72   35   36 2    
    73   35   37 1    
    74   37   38 1    
    75   37   39 1    
    76   37  160 1    
    77   38  161 1    
    78   38  162 1    
    79   38  163 1    
    80   39   40 am   BACKBONE|DICT|INTERRES
    81   39  164 1    
    82   40   41 2    
    83   40   42 1    
    84   42   43 1    
    85   42   44 1    
    86   42  165 1    
    87   43  166 1    
    88   43  167 1    
    89   43  168 1    
    90   44   45 am   BACKBONE|DICT|INTERRES
    91   44  169 1    
    92   45   46 2    
    93   45   47 1    
    94   47   48 1    
    95   47   49 1    
    96   47  170 1    
    97   48  171 1    
    98   48  172 1    
    99   48  173 1    
   100   49   50 am   BACKBONE|DICT|INTERRES
   101   49  174 1    
   102   50   51 2    
   103   50   52 1    
   104   52   53 1    
   105   52   54 1    
   106   52  175 1    
   107   53  176 1    
   108   53  177 1    
   109   53  178 1    
   110   54   55 am   BACKBONE|DICT|INTERRES
   111   54  179 1    
   112   55   56 2    
   113   55   57 1    
   114   57   58 1    
   115   57   59 1    
   116   57  180 1    
   117   58  181 1    
   118   58  182 1    
   119   58  183 1    
   120   59   60 am   BACKBONE|DICT|INTERRES
   121   59  184 1    
   122   60   61 2    
   123   60   62 1    
   124   62   63 1    
   125   62   64 1    
   126   62  185 1    
   127   63  186 1    
   128   63  187 1    
   129   63  188 1    
   130   64   65 am   BACKBONE|DICT|INTERRES
   131   64  189 1    
   132   65   66 2    
   133   67   68 2    
   134   67   69 am   BACKBONE|DICT|INTERRES
   135   69   70 1    
   136   69  190 1    
   137   70   71 1    
   138   70   72 1    
   139   70  191 1    
   140   71  192 1    
   141   71  193 1    
   142   71  194 1    
   143   72   73 2    
   144   72   74 am   BACKBONE|DICT|INTERRES
   145   74   75 1    
   146   74  195 1    
   147   75   76 1    
   148   75   77 1    
   149   75  196 1    
   150   76  197 1    
   151   76  198 1    
   152   76  199 1    
   153   77   78 2    
   154   77   79 am   BACKBONE|DICT|INTERRES
   155   79   80 1    
   156   79  200 1    
   157   80   81 1    
   158   80   82 1    
   159   80  201 1    
   160   81  202 1    
   161   81  203 1    
   162   81  204 1    
   163   82   83 2    
   164   82   84 am   BACKBONE|DICT|INTERRES
   165   84   85 1    
   166   84  205 1    
   167   85   86 1    
   168   85   87 1    
   169   85  206 1    
   170   86  207 1    
   171   86  208 1    
   172   86  209 1    
   173   87   88 2    
   174   87   89 am   BACKBONE|DICT|INTERRES
   175   89   90 1    
   176   89  210 1    
   177   90   91 1    
   178   90   92 1    
   179   90  211 1    
   180   91  212 1    
   181   91  213 1    
   182   91  214 1    
   183   92   93 2    
   184   92   94 am   BACKBONE|DICT|INTERRES
   185   94   95 1    
   186   94  215 1    
   187   95   96 1    
   188   95   97 1    
   189   95  216 1    
   190   96  217 1    
   191   96  218 1    
   192   96  219 1    
   193   97   98 2    
   194   97   99 am   BACKBONE|DICT|INTERRES
   195   99  100 1    
   196   99  220 1    
   197  100  101 1    
   198  100  102 1    
   199  100  221 1    
   200  101  222 1    
   201  101  223 1    
   202  101  224 1    
   203  102  103 2    
   204  102  104 am   BACKBONE|DICT|INTERRES
   205  104  105 1    
   206  104  225 1    
   207  105  106 1    
   208  105  107 1    
   209  105  226 1    
   210  106  227 1    
   211  106  228 1    
   212  106  229 1    
   213  107  108 2    
   214  107  109 am   BACKBONE|DICT|INTERRES
   215  109  110 1    
   216  109  230 1    
   217  110  111 1    
   218  110  112 1    
   219  110  231 1    
   220  111  232 1    
   221  111  233 1    
   222  111  234 1    
   223  112  113 2    
   224  112  114 am   BACKBONE|DICT|INTERRES
   225  114  115 1    
   226  114  235 1    
   227  115  116 1    
   228  115  117 1    
   229  115  236 1    
   230  116  237 1    
   231  116  238 1    
   232  116  239 1    
   233  117  118 2    
   234  117  119 am   BACKBONE|DICT|INTERRES
   235  119  120 1    
   236  119  240 1    
   237  120  121 1    
   238  120  124 1    
   239  120  241 1    
   240  121  122 am   BACKBONE|DICT|INTERRES
   241  121  123 2    
   242  122  242 1    
   243  122  243 1    
   244  124  125 1    
   245  124  244 1    
   246  124  245 1    
   247  125  126 1    
   248  126  246 1    
   249  126  247 1    
@<TRIPOS>SUBSTRUCTURE
     1 UNK         1 GROUP             0       ****    0 ROOT    
