@<TRIPOS>MOLECULE
3R540
247   249    1
SMALL
USER_CHARGES


@<TRIPOS>ATOM
      1 CA         -2.4520   -8.4457  -44.8450 C.3       0 UNK        -0.1800 
      2 C          -1.7158   -9.6364  -45.4428 C.2       0 UNK         0.5000 
      3 O          -2.0704  -10.7792  -45.1551 O.2       0 UNK        -0.5000 
      4 N          -0.6966   -9.3683  -46.2719 N.am      1 UNK        -0.5000 
      5 CA          0.1631  -10.3565  -46.9384 C.3       1 UNK         0.1400 
      6 C6         -0.6117  -11.2484  -47.9532 C.3       23 UNK        -0.0398 
      7 S7          0.3804  -11.6201  -49.4381 S.3       23 UNK        -0.2404 
      8 C8         -0.8922  -12.2705  -50.5669 C.3       23 UNK        -0.0205 
      9 C9         -0.9830  -13.7878  -50.5063 C.ar      23 UNK        -0.0193 
     10 C10        -0.2180  -14.5645  -51.3804 C.ar      23 UNK        -0.1150 
     11 C11        -0.3002  -15.9594  -51.3546 C.ar      23 UNK        -0.0193 
     12 C12        -1.1576  -16.5800  -50.4416 C.ar      23 UNK        -0.1150 
     13 C13        -1.9133  -15.8147  -49.5472 C.ar      23 UNK        -0.0193 
     14 C14        -1.8283  -14.4187  -49.5888 C.ar      23 UNK        -0.1150 
     15 C15        -2.7883  -16.5001  -48.5101 C.3       23 UNK        -0.0205 
     16 S16        -1.7614  -17.1143  -47.1444 S.3       23 UNK        -0.2404 
     17 C17        -2.9965  -17.6720  -45.9325 C.3       23 UNK        -0.0398 
     18 CA         -3.3584  -19.1668  -46.0816 C.3       11 UNK         0.1400 
     19 N          -2.1830  -20.0514  -46.0597 N.am      11 UNK        -0.5000 
     20 C          -2.1943  -21.3825  -46.2239 C.2       10 UNK         0.5000 
     21 O          -3.2293  -22.0228  -46.4211 O.2       10 UNK        -0.5000 
     22 CA         -0.8447  -22.1219  -46.1279 C.3       10 UNK         0.1400 
     23 CB         -0.8635  -23.4887  -46.8455 C.3       10 UNK        -0.1800 
     24 N           0.2999  -21.3139  -46.5600 N.am      10 UNK        -0.5000 
     25 C           0.5561  -20.8336  -47.7870 C.2       9 UNK         0.5000 
     26 O          -0.1661  -21.0285  -48.7636 O.2       9 UNK        -0.5000 
     27 CA          1.8347  -19.9863  -47.9473 C.3       9 UNK         0.1400 
     28 CB          1.5552  -18.7101  -48.7552 C.3       9 UNK        -0.1800 
     29 N           2.3977  -19.6170  -46.6435 N.am      9 UNK        -0.5000 
     30 C           3.5034  -20.1456  -46.1068 C.2       8 UNK         0.5000 
     31 O           4.2453  -20.9301  -46.6993 O.2       8 UNK        -0.5000 
     32 CA          3.8036  -19.7862  -44.6379 C.3       8 UNK         0.1400 
     33 CB          4.3202  -18.3475  -44.4883 C.3       8 UNK        -0.1800 
     34 N           2.6791  -20.0182  -43.7208 N.am      8 UNK        -0.5000 
     35 C           2.1378  -21.2234  -43.4795 C.2       7 UNK         0.5000 
     36 O           2.4253  -22.2345  -44.1193 O.2       7 UNK        -0.5000 
     37 CA          1.1284  -21.3588  -42.3237 C.3       7 UNK         0.1400 
     38 CB          1.7679  -22.1125  -41.1466 C.3       7 UNK        -0.1800 
     39 N           0.6155  -20.0838  -41.8281 N.am      7 UNK        -0.5000 
     40 C          -0.4496  -19.4513  -42.3299 C.2       6 UNK         0.5000 
     41 O          -1.0753  -19.8466  -43.3150 O.2       6 UNK        -0.5000 
     42 CA         -0.9319  -18.1812  -41.6016 C.3       6 UNK         0.1400 
     43 CB         -0.2333  -17.9042  -40.2504 C.3       6 UNK        -0.1800 
     44 N          -0.8698  -17.0149  -42.4811 N.am      6 UNK        -0.5000 
     45 C           0.2265  -16.4786  -43.0342 C.2       5 UNK         0.5000 
     46 O           1.3786  -16.8505  -42.7942 O.2       5 UNK        -0.5000 
     47 CA         -0.0435  -15.2946  -43.9845 C.3       5 UNK         0.1400 
     48 CB         -0.2094  -13.9979  -43.1764 C.3       5 UNK        -0.1800 
     49 N           0.9677  -15.0698  -45.0171 N.am      5 UNK        -0.5000 
     50 C           1.4833  -15.9754  -45.8599 C.2       4 UNK         0.5000 
     51 O           1.2340  -17.1805  -45.8200 O.2       4 UNK        -0.5000 
     52 CA          2.4387  -15.4429  -46.9420 C.3       4 UNK         0.1400 
     53 CB          1.6478  -15.0513  -48.1999 C.3       4 UNK        -0.1800 
     54 N           3.1779  -14.2673  -46.4846 N.am      4 UNK        -0.5000 
     55 C           4.4436  -14.2691  -46.0492 C.2       3 UNK         0.5000 
     56 O           5.1474  -15.2779  -45.9954 O.2       3 UNK        -0.5000 
     57 CA          5.0385  -12.9128  -45.6152 C.3       3 UNK         0.1400 
     58 CB          5.8439  -12.2905  -46.7663 C.3       3 UNK        -0.1800 
     59 N           4.0290  -11.9491  -45.1710 N.am      3 UNK        -0.5000 
     60 C           3.3721  -12.0225  -44.0059 C.2       2 UNK         0.5000 
     61 O           3.5979  -12.8778  -43.1499 O.2       2 UNK        -0.5000 
     62 CA          2.2642  -10.9783  -43.7529 C.3       2 UNK         0.1400 
     63 CB          2.8162   -9.8056  -42.9282 C.3       2 UNK        -0.1800 
     64 N           1.5967  -10.4434  -44.9474 N.am      2 UNK        -0.5000 
     65 C           0.9972  -11.1586  -45.9118 C.2       1 UNK         0.5000 
     66 O           1.0687  -12.3846  -45.9843 O.2       1 UNK        -0.5000 
     67 C          -4.4183  -19.5510  -45.0281 C.2       11 UNK         0.5000 
     68 O          -5.6109  -19.3920  -45.2879 O.2       11 UNK        -0.5000 
     69 N          -3.9728  -20.1165  -43.8960 N.am      12 UNK        -0.5000 
     70 CA         -4.8158  -20.7046  -42.8495 C.3       12 UNK         0.1400 
     71 CB         -3.9187  -21.1526  -41.6851 C.3       12 UNK        -0.1800 
     72 C          -5.6944  -21.8812  -43.3319 C.2       12 UNK         0.5000 
     73 O          -6.7284  -22.1506  -42.7202 O.2       12 UNK        -0.5000 
     74 N          -5.2821  -22.5396  -44.4229 N.am      13 UNK        -0.5000 
     75 CA         -6.0030  -23.6105  -45.1085 C.3       13 UNK         0.1400 
     76 CB         -5.0770  -24.8372  -45.1984 C.3       13 UNK        -0.1800 
     77 C          -6.4814  -23.1532  -46.5030 C.2       13 UNK         0.5000 
     78 O          -6.6894  -23.9958  -47.3765 O.2       13 UNK        -0.5000 
     79 N          -6.6174  -21.8327  -46.7093 N.am      14 UNK        -0.5000 
     80 CA         -7.0038  -21.1676  -47.9604 C.3       14 UNK         0.1400 
     81 CB         -8.4659  -21.4976  -48.3283 C.3       14 UNK        -0.1800 
     82 C          -6.0134  -21.4527  -49.1086 C.2       14 UNK         0.5000 
     83 O          -6.4273  -21.7901  -50.2182 O.2       14 UNK        -0.5000 
     84 N          -4.7134  -21.3582  -48.7941 N.am      15 UNK        -0.5000 
     85 CA         -3.5680  -21.7015  -49.6451 C.3       15 UNK         0.1400 
     86 CB         -3.4740  -20.7578  -50.8615 C.3       15 UNK        -0.1800 
     87 C          -3.5514  -23.2054  -49.9884 C.2       15 UNK         0.5000 
     88 O          -3.2835  -23.5863  -51.1270 O.2       15 UNK        -0.5000 
     89 N          -3.8985  -24.0275  -48.9842 N.am      16 UNK        -0.5000 
     90 CA         -4.1512  -25.4716  -49.0569 C.3       16 UNK         0.1400 
     91 CB         -2.8356  -26.2413  -49.2830 C.3       16 UNK        -0.1800 
     92 C          -5.2317  -25.8075  -50.1064 C.2       16 UNK         0.5000 
     93 O          -4.9926  -26.6118  -51.0068 O.2       16 UNK        -0.5000 
     94 N          -6.3810  -25.1236  -50.0057 N.am      17 UNK        -0.5000 
     95 CA         -7.4851  -25.1094  -50.9749 C.3       17 UNK         0.1400 
     96 CB         -8.2383  -26.4553  -50.9584 C.3       17 UNK        -0.1800 
     97 C          -7.0185  -24.6902  -52.3888 C.2       17 UNK         0.5000 
     98 O          -7.3809  -25.3217  -53.3829 O.2       17 UNK        -0.5000 
     99 N          -6.1838  -23.6429  -52.4269 N.am      18 UNK        -0.5000 
    100 CA        -5.4971  -23.0529  -53.5799 C.3       18 UNK         0.1400 
    101 CB        -6.5152  -22.4658  -54.5787 C.3       18 UNK        -0.1800 
    102 C         -4.4554  -23.9601  -54.2735 C.2       18 UNK         0.5000 
    103 O         -3.9568  -23.5765  -55.3337 O.2       18 UNK        -0.5000 
    104 N         -4.1221  -25.1209  -53.6911 N.am      19 UNK        -0.5000 
    105 CA        -3.1796  -26.0823  -54.2656 C.3       19 UNK         0.1400 
    106 CB        -3.5254  -27.4946  -53.7701 C.3       19 UNK        -0.1800 
    107 C         -1.7043  -25.7609  -53.9612 C.2       19 UNK         0.5000 
    108 O         -0.8380  -26.2011  -54.7191 O.2       19 UNK        -0.5000 
    109 N         -1.4293  -25.0304  -52.8729 N.am      20 UNK        -0.5000 
    110 CA        -0.0820  -24.6377  -52.4606 C.3       20 UNK         0.1400 
    111 CB         0.0806  -24.8860  -50.9525 C.3       20 UNK        -0.1800 
    112 C          0.1413  -23.1536  -52.7701 C.2       20 UNK         0.5000 
    113 O         -0.8035  -22.3683  -52.6863 O.2       20 UNK        -0.5000 
    114 N          1.3931  -22.7917  -53.0861 N.am      21 UNK        -0.5000 
    115 CA         1.8794  -21.4308  -53.3401 C.3       21 UNK         0.1400 
    116 CB         1.9749  -20.6519  -52.0089 C.3       21 UNK        -0.1800 
    117 C          1.0583  -20.7015  -54.4266 C.2       21 UNK         0.5000 
    118 O          1.2733  -20.9493  -55.6141 O.2       21 UNK        -0.5000 
    119 N          0.1319  -19.8377  -53.9968 N.am      22 UNK        -0.5000 
    120 CA        -0.8288  -19.1188  -54.8468 C.3       22 UNK         0.1400 
    121 C         -2.0478  -19.9769  -55.3012 C.2       22 UNK         0.5000 
    122 N         -2.2587  -21.1762  -54.7740 N.am      22 UNK        -0.7600 
    123 O         -2.8023  -19.5538  -56.1727 O.2       22 UNK        -0.5000 
    124 C124       -1.2800  -17.7916  -54.1831 C.3       23 UNK        -0.0398 
    125 S125        0.1040  -16.6099  -54.0297 S.3       23 UNK        -0.2404 
    126 C126        0.5787  -16.7863  -52.2801 C.3       23 UNK        -0.0205 
    127 H127       -2.3858   -8.4719  -43.7573 H         1 UNK         0.0600 
    128 H128       -3.5052   -8.4773  -45.1243 H         1 UNK         0.0600 
    129 H129       -2.0376   -7.4975  -45.1881 H         1 UNK         0.0600 
    130 H130       -0.4695   -8.4023  -46.4642 H         1 UNK         0.3000 
    131 H131        0.8840   -9.7566  -47.4960 H         1 UNK         0.0600 
    132 H132       -0.9741  -12.1742  -47.5027 H         1 UNK         0.0800 
    133 H133       -1.5042  -10.7212  -48.2923 H         1 UNK         0.0800 
    134 H134       -1.8637  -11.8239  -50.3507 H         1 UNK         0.0800 
    135 H135       -0.6428  -11.9603  -51.5828 H         1 UNK         0.0800 
    136 H136        0.4487  -14.0832  -52.0823 H         1 UNK         0.1150 
    137 H137       -1.2128  -17.6590  -50.3984 H         1 UNK         0.1150 
    138 H138       -2.4082  -13.8230  -48.8982 H         1 UNK         0.1150 
    139 H139       -3.5383  -15.8070  -48.1260 H         1 UNK         0.0800 
    140 H140       -3.3281  -17.3314  -48.9660 H         1 UNK         0.0800 
    141 H141       -3.8858  -17.0448  -46.0191 H         1 UNK         0.0800 
    142 H142       -2.5854  -17.4833  -44.9397 H         1 UNK         0.0800 
    143 H143       -3.8251  -19.2920  -47.0599 H         1 UNK         0.0600 
    144 H144       -1.2986  -19.6011  -45.8704 H         1 UNK         0.3000 
    145 H145       -0.6912  -22.3143  -45.0656 H         1 UNK         0.0600 
    146 H146        0.0937  -23.9997  -46.7438 H         1 UNK         0.0600 
    147 H147       -1.6254  -24.1447  -46.4227 H         1 UNK         0.0600 
    148 H148       -1.0772  -23.3880  -47.9097 H         1 UNK         0.0600 
    149 H149        0.9819  -21.1066  -45.8442 H         1 UNK         0.3000 
    150 H150        2.5450  -20.5908  -48.5143 H         1 UNK         0.0600 
    151 H151        1.2291  -18.9443  -49.7674 H         1 UNK         0.0600 
    152 H152        2.4453  -18.0869  -48.8370 H         1 UNK         0.0600 
    153 H153        0.7647  -18.1208  -48.2941 H         1 UNK         0.0600 
    154 H154        1.8833  -18.9069  -46.1243 H         1 UNK         0.3000 
    155 H155        4.6121  -20.4469  -44.3175 H         1 UNK         0.0600 
    156 H156        5.1163  -18.1372  -45.2037 H         1 UNK         0.0600 
    157 H157        4.7277  -18.1797  -43.4914 H         1 UNK         0.0600 
    158 H158        3.5343  -17.6126  -44.6477 H         1 UNK         0.0600 
    159 H159        2.3536  -19.2213  -43.1897 H         1 UNK         0.3000 
    160 H160        0.2948  -21.9618  -42.6904 H         1 UNK         0.0600 
    161 H161        2.6142  -21.5650  -40.7297 H         1 UNK         0.0600 
    162 H162        2.1324  -23.0922  -41.4585 H         1 UNK         0.0600 
    163 H163        1.0468  -22.2774  -40.3456 H         1 UNK         0.0600 
    164 H164        1.0842  -19.6845  -41.0277 H         1 UNK         0.3000 
    165 H165       -1.9893  -18.3419  -41.3894 H         1 UNK         0.0600 
    166 H166       -0.6611  -17.0255  -39.7676 H         1 UNK         0.0600 
    167 H167       -0.3646  -18.7402  -39.5621 H         1 UNK         0.0600 
    168 H168        0.8370  -17.7279  -40.3593 H         1 UNK         0.0600 
    169 H169       -1.7667  -16.6257  -42.7327 H         1 UNK         0.3000 
    170 H170       -0.9782  -15.4936  -44.5113 H         1 UNK         0.0600 
    171 H171       -0.9855  -14.0998  -42.4169 H         1 UNK         0.0600 
    172 H172        0.7159  -13.7300  -42.6651 H         1 UNK         0.0600 
    173 H173       -0.4964  -13.1640  -43.8175 H         1 UNK         0.0600 
    174 H174        1.1964  -14.0974  -45.1934 H         1 UNK         0.3000 
    175 H175        3.1282  -16.2474  -47.2061 H         1 UNK         0.0600 
    176 H176        2.3087  -14.7129  -48.9977 H         1 UNK         0.0600 
    177 H177        1.0744  -15.8906  -48.5883 H         1 UNK         0.0600 
    178 H178        0.9357  -14.2521  -47.9938 H         1 UNK         0.0600 
    179 H179        2.6476  -13.4030  -46.4465 H         1 UNK         0.3000 
    180 H180        5.7229  -13.1038  -44.7858 H         1 UNK         0.0600 
    181 H181        5.2100  -12.0642  -47.6246 H         1 UNK         0.0600 
    182 H182        6.6270  -12.9694  -47.1067 H         1 UNK         0.0600 
    183 H183        6.3303  -11.3664  -46.4536 H         1 UNK         0.0600 
    184 H184        3.7841  -11.2118  -45.8153 H         1 UNK         0.3000 
    185 H185        1.4943  -11.4715  -43.1575 H         1 UNK         0.0600 
    186 H186        3.2948  -10.1596  -42.0140 H         1 UNK         0.0600 
    187 H187        3.5588   -9.2360  -43.4883 H         1 UNK         0.0600 
    188 H188        2.0209   -9.1218  -42.6310 H         1 UNK         0.0600 
    189 H189        1.4834   -9.4405  -44.9717 H         1 UNK         0.3000 
    190 H190       -2.9674  -20.1859  -43.7633 H         1 UNK         0.3000 
    191 H191       -5.4885  -19.9251  -42.4865 H         1 UNK         0.0600 
    192 H192       -3.1734  -21.8802  -42.0093 H         1 UNK         0.0600 
    193 H193       -3.3929  -20.3070  -41.2439 H         1 UNK         0.0600 
    194 H194       -4.5066  -21.6148  -40.8909 H         1 UNK         0.0600 
    195 H195       -4.4317  -22.2354  -44.8861 H         1 UNK         0.3000 
    196 H196       -6.8946  -23.8959  -44.5472 H         1 UNK         0.0600 
    197 H197       -4.7496  -25.1541  -44.2082 H         1 UNK         0.0600 
    198 H198       -4.1865  -24.6262  -45.7916 H         1 UNK         0.0600 
    199 H199       -5.5870  -25.6863  -45.6550 H         1 UNK         0.0600 
    200 H200       -6.4038  -21.2058  -45.9416 H         1 UNK         0.3000 
    201 H201       -6.9475  -20.0951  -47.7692 H         1 UNK         0.0600 
    202 H202       -8.7925  -20.9123  -49.1885 H         1 UNK         0.0600 
    203 H203       -9.1407  -21.2663  -47.5043 H         1 UNK         0.0600 
    204 H204       -8.5959  -22.5498  -48.5829 H         1 UNK         0.0600 
    205 H205       -4.4763  -21.1966  -47.8234 H         1 UNK         0.3000 
    206 H206       -2.6741  -21.5305  -49.0497 H         1 UNK         0.0600 
    207 H207       -3.3776  -19.7207  -50.5404 H         1 UNK         0.0600 
    208 H208       -4.3478  -20.8242  -51.5062 H         1 UNK         0.0600 
    209 H209       -2.5989  -20.9856  -51.4680 H         1 UNK         0.0600 
    210 H210       -4.1038  -23.5965  -48.0933 H         1 UNK         0.3000 
    211 H211       -4.5505  -25.7713  -48.0875 H         1 UNK         0.0600 
    212 H212       -2.0739  -25.9493  -48.5602 H         1 UNK         0.0600 
    213 H213       -2.9920  -27.3153  -49.1789 H         1 UNK         0.0600 
    214 H214       -2.4382  -26.0683  -50.2825 H         1 UNK         0.0600 
    215 H215       -6.4949  -24.5160  -49.1976 H         1 UNK         0.3000 
    216 H216       -8.1779  -24.3365  -50.6389 H         1 UNK         0.0600 
    217 H217       -9.1260  -26.4134  -51.5904 H         1 UNK         0.0600 
    218 H218       -7.6158  -27.2732  -51.3226 H         1 UNK         0.0600 
    219 H219       -8.5691  -26.7084  -49.9512 H         1 UNK         0.0600 
    220 H220       -5.9996  -23.1726  -51.5451 H         1 UNK         0.3000 
    221 H221       -4.9228  -22.2185  -53.1806 H         1 UNK         0.0600 
    222 H222       -7.0858  -23.2468  -55.0818 H         1 UNK         0.0600 
    223 H223       -7.2204  -21.8025  -54.0779 H         1 UNK         0.0600 
    224 H224       -6.0152  -21.8793  -55.3504 H         1 UNK         0.0600 
    225 H225       -4.5328  -25.3618  -52.7968 H         1 UNK         0.3000 
    226 H226       -3.2990  -26.0793  -55.3512 H         1 UNK         0.0600 
    227 H227       -4.5794  -27.7254  -53.9268 H         1 UNK         0.0600 
    228 H228       -2.9433  -28.2460  -54.3048 H         1 UNK         0.0600 
    229 H229       -3.3075  -27.6131  -52.7085 H         1 UNK         0.0600 
    230 H230       -2.1902  -24.6071  -52.3452 H         1 UNK         0.3000 
    231 H231        0.6722  -25.2264  -52.9866 H         1 UNK         0.0600 
    232 H232        1.0775  -24.6011  -50.6141 H         1 UNK         0.0600 
    233 H233       -0.0540  -25.9399  -50.7099 H         1 UNK         0.0600 
    234 H234       -0.6374  -24.3085  -50.3689 H         1 UNK         0.0600 
    235 H235        2.0937  -23.5158  -53.1585 H         1 UNK         0.3000 
    236 H236        2.8916  -21.5281  -53.7354 H         1 UNK         0.0600 
    237 H237        2.6757  -21.1336  -51.3271 H         1 UNK         0.0600 
    238 H238        2.3346  -19.6351  -52.1716 H         1 UNK         0.0600 
    239 H239        1.0140  -20.5924  -51.4964 H         1 UNK         0.0600 
    240 H240       -0.0163  -19.7654  -53.0021 H         1 UNK         0.3000 
    241 H241       -0.3122  -18.8555  -55.7720 H         1 UNK         0.0600 
    242 H242       -3.0055  -21.7608  -55.1255 H         1 UNK         0.3800 
    243 H243       -1.6599  -21.5349  -54.0314 H         1 UNK         0.3800 
    244 H244       -2.0490  -17.3033  -54.7842 H         1 UNK         0.0800 
    245 H245       -1.7311  -17.9757  -53.2067 H         1 UNK         0.0800 
    246 H246        0.5643  -17.8378  -51.9946 H         1 UNK         0.0800 
    247 H247        1.6124  -16.4572  -52.1650 H         1 UNK         0.0800 
@<TRIPOS>BOND
     1    1    2 1    
     2    1  127 1    
     3    1  128 1    
     4    1  129 1    
     5    2    3 2    
     6    2    4 am   BACKBONE|DICT|INTERRES
     7    4    5 1    
     8    4  130 1    
     9    5    6 1    
    10    5   65 1    
    11    5  131 1    
    12    6    7 1    
    13    6  132 1    
    14    6  133 1    
    15    7    8 1    
    16    8    9 1    
    17    8  134 1    
    18    8  135 1    
    19    9   10 ar   
    20    9   14 ar   
    21   10   11 ar   
    22   10  136 1    
    23   11   12 ar   
    24   11  126 1    
    25   12   13 ar   
    26   12  137 1    
    27   13   14 ar   
    28   13   15 1    
    29   14  138 1    
    30   15   16 1    
    31   15  139 1    
    32   15  140 1    
    33   16   17 1    
    34   17   18 1    
    35   17  141 1    
    36   17  142 1    
    37   18   19 1    
    38   18   67 1    
    39   18  143 1    
    40   19   20 am   BACKBONE|DICT|INTERRES
    41   19  144 1    
    42   20   21 2    
    43   20   22 1    
    44   22   23 1    
    45   22   24 1    
    46   22  145 1    
    47   23  146 1    
    48   23  147 1    
    49   23  148 1    
    50   24   25 am   BACKBONE|DICT|INTERRES
    51   24  149 1    
    52   25   26 2    
    53   25   27 1    
    54   27   28 1    
    55   27   29 1    
    56   27  150 1    
    57   28  151 1    
    58   28  152 1    
    59   28  153 1    
    60   29   30 am   BACKBONE|DICT|INTERRES
    61   29  154 1    
    62   30   31 2    
    63   30   32 1    
    64   32   33 1    
    65   32   34 1    
    66   32  155 1    
    67   33  156 1    
    68   33  157 1    
    69   33  158 1    
    70   34   35 am   BACKBONE|DICT|INTERRES
    71   34  159 1    
    72   35   36 2    
    73   35   37 1    
    74   37   38 1    
    75   37   39 1    
    76   37  160 1    
    77   38  161 1    
    78   38  162 1    
    79   38  163 1    
    80   39   40 am   BACKBONE|DICT|INTERRES
    81   39  164 1    
    82   40   41 2    
    83   40   42 1    
    84   42   43 1    
    85   42   44 1    
    86   42  165 1    
    87   43  166 1    
    88   43  167 1    
    89   43  168 1    
    90   44   45 am   BACKBONE|DICT|INTERRES
    91   44  169 1    
    92   45   46 2    
    93   45   47 1    
    94   47   48 1    
    95   47   49 1    
    96   47  170 1    
    97   48  171 1    
    98   48  172 1    
    99   48  173 1    
   100   49   50 am   BACKBONE|DICT|INTERRES
   101   49  174 1    
   102   50   51 2    
   103   50   52 1    
   104   52   53 1    
   105   52   54 1    
   106   52  175 1    
   107   53  176 1    
   108   53  177 1    
   109   53  178 1    
   110   54   55 am   BACKBONE|DICT|INTERRES
   111   54  179 1    
   112   55   56 2    
   113   55   57 1    
   114   57   58 1    
   115   57   59 1    
   116   57  180 1    
   117   58  181 1    
   118   58  182 1    
   119   58  183 1    
   120   59   60 am   BACKBONE|DICT|INTERRES
   121   59  184 1    
   122   60   61 2    
   123   60   62 1    
   124   62   63 1    
   125   62   64 1    
   126   62  185 1    
   127   63  186 1    
   128   63  187 1    
   129   63  188 1    
   130   64   65 am   BACKBONE|DICT|INTERRES
   131   64  189 1    
   132   65   66 2    
   133   67   68 2    
   134   67   69 am   BACKBONE|DICT|INTERRES
   135   69   70 1    
   136   69  190 1    
   137   70   71 1    
   138   70   72 1    
   139   70  191 1    
   140   71  192 1    
   141   71  193 1    
   142   71  194 1    
   143   72   73 2    
   144   72   74 am   BACKBONE|DICT|INTERRES
   145   74   75 1    
   146   74  195 1    
   147   75   76 1    
   148   75   77 1    
   149   75  196 1    
   150   76  197 1    
   151   76  198 1    
   152   76  199 1    
   153   77   78 2    
   154   77   79 am   BACKBONE|DICT|INTERRES
   155   79   80 1    
   156   79  200 1    
   157   80   81 1    
   158   80   82 1    
   159   80  201 1    
   160   81  202 1    
   161   81  203 1    
   162   81  204 1    
   163   82   83 2    
   164   82   84 am   BACKBONE|DICT|INTERRES
   165   84   85 1    
   166   84  205 1    
   167   85   86 1    
   168   85   87 1    
   169   85  206 1    
   170   86  207 1    
   171   86  208 1    
   172   86  209 1    
   173   87   88 2    
   174   87   89 am   BACKBONE|DICT|INTERRES
   175   89   90 1    
   176   89  210 1    
   177   90   91 1    
   178   90   92 1    
   179   90  211 1    
   180   91  212 1    
   181   91  213 1    
   182   91  214 1    
   183   92   93 2    
   184   92   94 am   BACKBONE|DICT|INTERRES
   185   94   95 1    
   186   94  215 1    
   187   95   96 1    
   188   95   97 1    
   189   95  216 1    
   190   96  217 1    
   191   96  218 1    
   192   96  219 1    
   193   97   98 2    
   194   97   99 am   BACKBONE|DICT|INTERRES
   195   99  100 1    
   196   99  220 1    
   197  100  101 1    
   198  100  102 1    
   199  100  221 1    
   200  101  222 1    
   201  101  223 1    
   202  101  224 1    
   203  102  103 2    
   204  102  104 am   BACKBONE|DICT|INTERRES
   205  104  105 1    
   206  104  225 1    
   207  105  106 1    
   208  105  107 1    
   209  105  226 1    
   210  106  227 1    
   211  106  228 1    
   212  106  229 1    
   213  107  108 2    
   214  107  109 am   BACKBONE|DICT|INTERRES
   215  109  110 1    
   216  109  230 1    
   217  110  111 1    
   218  110  112 1    
   219  110  231 1    
   220  111  232 1    
   221  111  233 1    
   222  111  234 1    
   223  112  113 2    
   224  112  114 am   BACKBONE|DICT|INTERRES
   225  114  115 1    
   226  114  235 1    
   227  115  116 1    
   228  115  117 1    
   229  115  236 1    
   230  116  237 1    
   231  116  238 1    
   232  116  239 1    
   233  117  118 2    
   234  117  119 am   BACKBONE|DICT|INTERRES
   235  119  120 1    
   236  119  240 1    
   237  120  121 1    
   238  120  124 1    
   239  120  241 1    
   240  121  122 am   BACKBONE|DICT|INTERRES
   241  121  123 2    
   242  122  242 1    
   243  122  243 1    
   244  124  125 1    
   245  124  244 1    
   246  124  245 1    
   247  125  126 1    
   248  126  246 1    
   249  126  247 1    
@<TRIPOS>SUBSTRUCTURE
     1 UNK         1 GROUP             0       ****    0 ROOT    
