@<TRIPOS>MOLECULE
3R540
247   249    1
SMALL
USER_CHARGES


@<TRIPOS>ATOM
      1 CA          8.7342  -14.8839  -48.9123 C.3       0 UNK        -0.1800 
      2 C           7.4367  -15.4315  -48.3346 C.2       0 UNK         0.5000 
      3 O           7.4579  -16.0838  -47.2908 O.2       0 UNK        -0.5000 
      4 N           6.3095  -15.1670  -49.0076 N.am      1 UNK        -0.5000 
      5 CA          4.9668  -15.6250  -48.6160 C.3       1 UNK         0.1400 
      6 C6          3.9742  -15.6091  -49.8077 C.3       23 UNK        -0.0398 
      7 S7          4.5859  -16.5837  -51.2258 S.3       23 UNK        -0.2404 
      8 C8          3.2127  -16.4319  -52.4134 C.3       23 UNK        -0.0205 
      9 C9          2.0289  -17.3202  -52.0555 C.ar      23 UNK        -0.0193 
     10 C10         0.7806  -16.7584  -51.7735 C.ar      23 UNK        -0.1150 
     11 C11        -0.3084  -17.5757  -51.4546 C.ar      23 UNK        -0.0193 
     12 C12        -0.1486  -18.9629  -51.4309 C.ar      23 UNK        -0.1150 
     13 C13         1.0941  -19.5359  -51.7090 C.ar      23 UNK        -0.0193 
     14 C14         2.1766  -18.7104  -52.0265 C.ar      23 UNK        -0.1150 
     15 C15         1.2757  -21.0433  -51.6534 C.3       23 UNK        -0.0205 
     16 S16         1.5467  -21.6042  -49.9444 S.3       23 UNK        -0.2404 
     17 C17        -0.1588  -21.9565  -49.4035 C.3       23 UNK        -0.0398 
     18 CA         -0.1573  -22.7856  -48.1002 C.3       11 UNK         0.1400 
     19 N           0.0724  -21.9674  -46.9073 N.am      11 UNK        -0.5000 
     20 C           0.5266  -22.4770  -45.7548 C.2       10 UNK         0.5000 
     21 O           0.7211  -23.6794  -45.5703 O.2       10 UNK        -0.5000 
     22 CA          0.7920  -21.4866  -44.6112 C.3       10 UNK         0.1400 
     23 CB          1.9907  -20.5824  -44.9388 C.3       10 UNK        -0.1800 
     24 N          -0.3713  -20.6671  -44.2774 N.am      10 UNK        -0.5000 
     25 C          -1.5438  -21.1458  -43.8385 C.2       9 UNK         0.5000 
     26 O          -1.7984  -22.3442  -43.7208 O.2       9 UNK        -0.5000 
     27 CA         -2.6302  -20.1116  -43.4965 C.3       9 UNK         0.1400 
     28 CB         -2.3231  -19.4143  -42.1625 C.3       9 UNK        -0.1800 
     29 N          -2.8210  -19.1088  -44.5427 N.am      9 UNK        -0.5000 
     30 C          -3.1788  -19.3904  -45.8031 C.2       8 UNK         0.5000 
     31 O          -3.3612  -20.5285  -46.2294 O.2       8 UNK        -0.5000 
     32 CA         -3.3162  -18.1995  -46.7611 C.3       8 UNK         0.1400 
     33 CB         -4.5468  -17.3501  -46.4073 C.3       8 UNK        -0.1800 
     34 N          -2.1094  -17.3778  -46.7995 N.am      8 UNK        -0.5000 
     35 C          -0.8872  -17.8234  -47.1360 C.2       7 UNK         0.5000 
     36 O          -0.6441  -18.9694  -47.5199 O.2       7 UNK        -0.5000 
     37 CA          0.2694  -16.8269  -46.9523 C.3       7 UNK         0.1400 
     38 CB          0.2915  -15.8051  -48.0989 C.3       7 UNK        -0.1800 
     39 N           0.1862  -16.1180  -45.6773 N.am      7 UNK        -0.5000 
     40 C           0.2177  -16.6864  -44.4644 C.2       6 UNK         0.5000 
     41 O           0.3605  -17.8922  -44.2679 O.2       6 UNK        -0.5000 
     42 CA         -0.0147  -15.7502  -43.2681 C.3       6 UNK         0.1400 
     43 CB          1.2572  -14.9593  -42.9231 C.3       6 UNK        -0.1800 
     44 N          -1.1228  -14.8285  -43.5179 N.am      6 UNK        -0.5000 
     45 C          -2.4096  -15.1973  -43.5883 C.2       5 UNK         0.5000 
     46 O          -2.8009  -16.3503  -43.4064 O.2       5 UNK        -0.5000 
     47 CA         -3.4268  -14.0983  -43.9449 C.3       5 UNK         0.1400 
     48 CB         -3.8692  -13.3428  -42.6830 C.3       5 UNK        -0.1800 
     49 N          -2.9057  -13.1424  -44.9226 N.am      5 UNK        -0.5000 
     50 C          -2.6977  -13.4233  -46.2163 C.2       4 UNK         0.5000 
     51 O          -2.9425  -14.5154  -46.7310 O.2       4 UNK        -0.5000 
     52 CA         -2.0744  -12.3021  -47.0695 C.3       4 UNK         0.1400 
     53 CB         -3.1584  -11.3135  -47.5260 C.3       4 UNK        -0.1800 
     54 N          -0.9978  -11.5609  -46.4021 N.am      4 UNK        -0.5000 
     55 C           0.1089  -12.1118  -45.8868 C.2       3 UNK         0.5000 
     56 O           0.3010  -13.3260  -45.8285 O.2       3 UNK        -0.5000 
     57 CA          1.1495  -11.1475  -45.2895 C.3       3 UNK         0.1400 
     58 CB          0.7512  -10.7636  -43.8555 C.3       3 UNK        -0.1800 
     59 N           2.4929  -11.7302  -45.2587 N.am      3 UNK        -0.5000 
     60 C           3.2206  -12.0626  -46.3338 C.2       2 UNK         0.5000 
     61 O           2.8673  -11.8324  -47.4935 O.2       2 UNK        -0.5000 
     62 CA          4.6008  -12.7065  -46.0756 C.3       2 UNK         0.1400 
     63 CB          4.7570  -13.3386  -44.6725 C.3       2 UNK        -0.1800 
     64 N           4.9732  -13.6564  -47.1289 N.am      2 UNK        -0.5000 
     65 C           4.3976  -14.8362  -47.4129 C.2       1 UNK         0.5000 
     66 O           3.4703  -15.3220  -46.7668 O.2       1 UNK        -0.5000 
     67 C          -1.3972  -23.6909  -47.9734 C.2       11 UNK         0.5000 
     68 O          -1.3811  -24.7763  -48.5560 O.2       11 UNK        -0.5000 
     69 N          -2.4112  -23.2872  -47.1914 N.am      12 UNK        -0.5000 
     70 CA         -3.5540  -24.1440  -46.8666 C.3       12 UNK         0.1400 
     71 CB         -4.6932  -23.3196  -46.2518 C.3       12 UNK        -0.1800 
     72 C          -3.1605  -25.3050  -45.9355 C.2       12 UNK         0.5000 
     73 O          -3.5779  -26.4367  -46.1810 O.2       12 UNK        -0.5000 
     74 N          -2.3410  -25.0225  -44.9099 N.am      13 UNK        -0.5000 
     75 CA         -1.8213  -26.0206  -43.9695 C.3       13 UNK         0.1400 
     76 CB         -1.1387  -25.3201  -42.7854 C.3       13 UNK        -0.1800 
     77 C          -0.8584  -27.0211  -44.6331 C.2       13 UNK         0.5000 
     78 O          -0.9155  -28.2133  -44.3294 O.2       13 UNK        -0.5000 
     79 N          -0.0161  -26.5253  -45.5498 N.am      14 UNK        -0.5000 
     80 CA          0.8874  -27.3334  -46.3718 C.3       14 UNK         0.1400 
     81 CB          1.9417  -26.4096  -47.0019 C.3       14 UNK        -0.1800 
     82 C           0.1642  -28.1350  -47.4736 C.2       14 UNK         0.5000 
     83 O           0.7583  -29.0624  -48.0245 O.2       14 UNK        -0.5000 
     84 N          -1.0804  -27.7449  -47.7921 N.am      15 UNK        -0.5000 
     85 CA         -1.9188  -28.2279  -48.8950 C.3       15 UNK         0.1400 
     86 CB         -2.3185  -29.7028  -48.6844 C.3       15 UNK        -0.1800 
     87 C          -1.2831  -27.9568  -50.2761 C.2       15 UNK         0.5000 
     88 O          -1.4247  -28.7599  -51.2002 O.2       15 UNK        -0.5000 
     89 N          -0.5814  -26.8217  -50.3805 N.am      16 UNK        -0.5000 
     90 CA          0.1088  -26.3620  -51.5833 C.3       16 UNK         0.1400 
     91 CB          1.2590  -25.4337  -51.1638 C.3       16 UNK        -0.1800 
     92 C          -0.8405  -25.6386  -52.5538 C.2       16 UNK         0.5000 
     93 O          -0.5902  -25.6367  -53.7596 O.2       16 UNK        -0.5000 
     94 N          -1.9097  -25.0446  -52.0140 N.am      17 UNK        -0.5000 
     95 CA         -2.9511  -24.3187  -52.7291 C.3       17 UNK         0.1400 
     96 CB         -2.4240  -22.9343  -53.1605 C.3       17 UNK        -0.1800 
     97 C          -4.1609  -24.1742  -51.7952 C.2       17 UNK         0.5000 
     98 O          -4.0445  -24.4459  -50.5970 O.2       17 UNK        -0.5000 
     99 N          -5.2891  -23.7031  -52.3454 N.am      18 UNK        -0.5000 
    100 CA        -6.4547  -23.2661  -51.5669 C.3       18 UNK         0.1400 
    101 CB        -7.6316  -22.9825  -52.5127 C.3       18 UNK        -0.1800 
    102 C         -6.1303  -22.0257  -50.7109 C.2       18 UNK         0.5000 
    103 O         -6.5884  -21.9305  -49.5730 O.2       18 UNK        -0.5000 
    104 N         -5.3071  -21.1299  -51.2796 N.am      19 UNK        -0.5000 
    105 CA        -4.5416  -20.0380  -50.6644 C.3       19 UNK         0.1400 
    106 CB        -3.5260  -20.6229  -49.6713 C.3       19 UNK        -0.1800 
    107 C         -5.3515  -18.8842  -50.0355 C.2       19 UNK         0.5000 
    108 O         -4.8344  -17.7711  -49.9444 O.2       19 UNK        -0.5000 
    109 N         -6.6118  -19.1219  -49.6574 N.am      20 UNK        -0.5000 
    110 CA        -7.5374  -18.1328  -49.0936 C.3       20 UNK         0.1400 
    111 CB        -8.8271  -18.8506  -48.6691 C.3       20 UNK        -0.1800 
    112 C         -7.8570  -16.9566  -50.0411 C.2       20 UNK         0.5000 
    113 O         -8.2579  -15.8904  -49.5739 O.2       20 UNK        -0.5000 
    114 N         -7.6578  -17.1674  -51.3490 N.am      21 UNK        -0.5000 
    115 CA        -7.7910  -16.1597  -52.3993 C.3       21 UNK         0.1400 
    116 CB        -7.9043  -16.8793  -53.7526 C.3       21 UNK        -0.1800 
    117 C         -6.6350  -15.1373  -52.4318 C.2       21 UNK         0.5000 
    118 O         -6.8086  -14.0723  -53.0268 O.2       21 UNK        -0.5000 
    119 N         -5.4881  -15.4676  -51.8225 N.am      22 UNK        -0.5000 
    120 CA        -4.2748  -14.6325  -51.7956 C.3       22 UNK         0.1400 
    121 C         -3.7445  -14.3255  -50.3691 C.2       22 UNK         0.5000 
    122 N         -4.0325  -15.1310  -49.3558 N.am      22 UNK        -0.7600 
    123 O         -3.0558  -13.3274  -50.1828 O.2       22 UNK        -0.5000 
    124 C124       -3.1529  -15.1836  -52.7202 C.3       23 UNK        -0.0398 
    125 S125       -2.7878  -16.9649  -52.5186 S.3       23 UNK        -0.2404 
    126 C126       -1.6494  -16.9628  -51.0985 C.3       23 UNK        -0.0205 
    127 H127        8.5653  -14.3309  -49.8366 H         1 UNK         0.0600 
    128 H128        9.4234  -15.7007  -49.1264 H         1 UNK         0.0600 
    129 H129        9.2101  -14.2133  -48.1968 H         1 UNK         0.0600 
    130 H130        6.3583  -14.6489  -49.8736 H         1 UNK         0.3000 
    131 H131        5.0569  -16.6624  -48.2857 H         1 UNK         0.0600 
    132 H132        3.7849  -14.5867  -50.1396 H         1 UNK         0.0800 
    133 H133        3.0105  -16.0216  -49.5038 H         1 UNK         0.0800 
    134 H134        2.9126  -15.3856  -52.4893 H         1 UNK         0.0800 
    135 H135        3.5742  -16.7176  -53.4021 H         1 UNK         0.0800 
    136 H136        0.6564  -15.6847  -51.7923 H         1 UNK         0.1150 
    137 H137       -0.9898  -19.5939  -51.1836 H         1 UNK         0.1150 
    138 H138        3.1415  -19.1480  -52.2411 H         1 UNK         0.1150 
    139 H139        0.4149  -21.5472  -52.0950 H         1 UNK         0.0800 
    140 H140        2.1368  -21.3372  -52.2554 H         1 UNK         0.0800 
    141 H141       -0.6597  -22.4943  -50.2106 H         1 UNK         0.0800 
    142 H142       -0.6953  -21.0185  -49.2677 H         1 UNK         0.0800 
    143 H143        0.6798  -23.4838  -48.1712 H         1 UNK         0.0600 
    144 H144       -0.0962  -20.9699  -46.9903 H         1 UNK         0.3000 
    145 H145        1.0452  -22.0714  -43.7246 H         1 UNK         0.0600 
    146 H146        2.2643  -19.9674  -44.0814 H         1 UNK         0.0600 
    147 H147        2.8670  -21.1738  -45.2072 H         1 UNK         0.0600 
    148 H148        1.7756  -19.9133  -45.7732 H         1 UNK         0.0600 
    149 H149       -0.2458  -19.6592  -44.3451 H         1 UNK         0.3000 
    150 H150       -3.5731  -20.6512  -43.3860 H         1 UNK         0.0600 
    151 H151       -3.1425  -18.7608  -41.8628 H         1 UNK         0.0600 
    152 H152       -1.4189  -18.8077  -42.2238 H         1 UNK         0.0600 
    153 H153       -2.1786  -20.1428  -41.3638 H         1 UNK         0.0600 
    154 H154       -2.6917  -18.1389  -44.2706 H         1 UNK         0.3000 
    155 H155       -3.4699  -18.5933  -47.7614 H         1 UNK         0.0600 
    156 H156       -5.4400  -17.9720  -46.3387 H         1 UNK         0.0600 
    157 H157       -4.4302  -16.8399  -45.4526 H         1 UNK         0.0600 
    158 H158       -4.7405  -16.5957  -47.1673 H         1 UNK         0.0600 
    159 H159       -2.2173  -16.4055  -46.5319 H         1 UNK         0.3000 
    160 H160        1.2091  -17.3827  -46.9631 H         1 UNK         0.0600 
    161 H161        1.0775  -15.0636  -47.9586 H         1 UNK         0.0600 
    162 H162       -0.6548  -15.2702  -48.1879 H         1 UNK         0.0600 
    163 H163        0.4825  -16.3033  -49.0467 H         1 UNK         0.0600 
    164 H164        0.1185  -15.1028  -45.7323 H         1 UNK         0.3000 
    165 H165       -0.2728  -16.3674  -42.4048 H         1 UNK         0.0600 
    166 H166        1.1038  -14.3260  -42.0494 H         1 UNK         0.0600 
    167 H167        2.0831  -15.6344  -42.6955 H         1 UNK         0.0600 
    168 H168        1.5769  -14.3223  -43.7475 H         1 UNK         0.0600 
    169 H169       -0.8777  -13.8793  -43.7557 H         1 UNK         0.3000 
    170 H170       -4.3052  -14.5838  -44.3753 H         1 UNK         0.0600 
    171 H171       -3.0372  -12.8147  -42.2154 H         1 UNK         0.0600 
    172 H172       -4.6448  -12.6120  -42.9128 H         1 UNK         0.0600 
    173 H173       -4.2805  -14.0295  -41.9419 H         1 UNK         0.0600 
    174 H174       -2.6740  -12.2198  -44.5857 H         1 UNK         0.3000 
    175 H175       -1.6420  -12.7728  -47.9544 H         1 UNK         0.0600 
    176 H176       -2.7604  -10.5981  -48.2457 H         1 UNK         0.0600 
    177 H177       -3.5752  -10.7540  -46.6879 H         1 UNK         0.0600 
    178 H178       -3.9829  -11.8354  -48.0140 H         1 UNK         0.0600 
    179 H179       -1.0904  -10.5555  -46.3922 H         1 UNK         0.3000 
    180 H180        1.1826  -10.2459  -45.9044 H         1 UNK         0.0600 
    181 H181        0.7141  -11.6355  -43.2007 H         1 UNK         0.0600 
    182 H182       -0.2328  -10.2935  -43.8317 H         1 UNK         0.0600 
    183 H183        1.4576  -10.0525  -43.4268 H         1 UNK         0.0600 
    184 H184        2.8537  -11.9688  -44.3475 H         1 UNK         0.3000 
    185 H185        5.3233  -11.8924  -46.1446 H         1 UNK         0.0600 
    186 H186        3.9903  -14.0879  -44.4731 H         1 UNK         0.0600 
    187 H187        5.7274  -13.8247  -44.5699 H         1 UNK         0.0600 
    188 H188        4.6971  -12.5846  -43.8872 H         1 UNK         0.0600 
    189 H189        5.7154  -13.3513  -47.7418 H         1 UNK         0.3000 
    190 H190       -2.3886  -22.3713  -46.7563 H         1 UNK         0.3000 
    191 H191       -3.9270  -24.5764  -47.7977 H         1 UNK         0.0600 
    192 H192       -5.0350  -22.5471  -46.9412 H         1 UNK         0.0600 
    193 H193       -5.5525  -23.9512  -46.0240 H         1 UNK         0.0600 
    194 H194       -4.3859  -22.8360  -45.3237 H         1 UNK         0.0600 
    195 H195       -2.0592  -24.0606  -44.7453 H         1 UNK         0.3000 
    196 H196       -2.6699  -26.5877  -43.5811 H         1 UNK         0.0600 
    197 H197       -0.7441  -26.0469  -42.0743 H         1 UNK         0.0600 
    198 H198       -1.8419  -24.6867  -42.2447 H         1 UNK         0.0600 
    199 H199       -0.3072  -24.6946  -43.1127 H         1 UNK         0.0600 
    200 H200        0.0259  -25.5184  -45.6810 H         1 UNK         0.3000 
    201 H201        1.3996  -28.0476  -45.7239 H         1 UNK         0.0600 
    202 H202        2.4927  -25.8593  -46.2391 H         1 UNK         0.0600 
    203 H203        1.4859  -25.6842  -47.6761 H         1 UNK         0.0600 
    204 H204        2.6692  -26.9811  -47.5797 H         1 UNK         0.0600 
    205 H205       -1.4648  -26.9640  -47.2776 H         1 UNK         0.3000 
    206 H206       -2.8316  -27.6311  -48.8614 H         1 UNK         0.0600 
    207 H207       -2.7624  -29.8525  -47.7001 H         1 UNK         0.0600 
    208 H208       -3.0566  -30.0161  -49.4235 H         1 UNK         0.0600 
    209 H209       -1.4634  -30.3731  -48.7731 H         1 UNK         0.0600 
    210 H210       -0.6007  -26.1817  -49.5915 H         1 UNK         0.3000 
    211 H211        0.5338  -27.2222  -52.1047 H         1 UNK         0.0600 
    212 H212        0.8930  -24.5620  -50.6217 H         1 UNK         0.0600 
    213 H213        1.8094  -25.0726  -52.0335 H         1 UNK         0.0600 
    214 H214        1.9697  -25.9528  -50.5204 H         1 UNK         0.0600 
    215 H215       -2.0780  -25.1241  -51.0168 H         1 UNK         0.3000 
    216 H216       -3.2550  -24.8948  -53.6053 H         1 UNK         0.0600 
    217 H217       -3.1803  -22.3762  -53.7128 H         1 UNK         0.0600 
    218 H218       -1.5558  -23.0222  -53.8136 H         1 UNK         0.0600 
    219 H219       -2.1324  -22.3299  -52.3011 H         1 UNK         0.0600 
    220 H220       -5.3197  -23.5350  -53.3408 H         1 UNK         0.3000 
    221 H221       -6.7414  -24.0751  -50.8915 H         1 UNK         0.0600 
    222 H222       -7.3978  -22.1911  -53.2260 H         1 UNK         0.0600 
    223 H223       -7.9057  -23.8735  -53.0778 H         1 UNK         0.0600 
    224 H224       -8.5142  -22.6698  -51.9530 H         1 UNK         0.0600 
    225 H225       -5.0675  -21.3040  -52.2445 H         1 UNK         0.3000 
    226 H226       -3.9728  -19.5940  -51.4823 H         1 UNK         0.0600 
    227 H227       -3.0001  -21.4739  -50.1020 H         1 UNK         0.0600 
    228 H228       -2.7736  -19.8832  -49.4014 H         1 UNK         0.0600 
    229 H229       -4.0104  -20.9663  -48.7573 H         1 UNK         0.0600 
    230 H230       -6.9279  -20.0867  -49.6929 H         1 UNK         0.3000 
    231 H231       -7.0697  -17.7104  -48.2026 H         1 UNK         0.0600 
    232 H232       -9.3254  -19.3162  -49.5203 H         1 UNK         0.0600 
    233 H233       -9.5326  -18.1539  -48.2145 H         1 UNK         0.0600 
    234 H234       -8.6208  -19.6292  -47.9343 H         1 UNK         0.0600 
    235 H235       -7.3366  -18.0800  -51.6353 H         1 UNK         0.3000 
    236 H236       -8.7156  -15.6042  -52.2289 H         1 UNK         0.0600 
    237 H237       -8.7578  -17.5573  -53.7696 H         1 UNK         0.0600 
    238 H238       -8.0427  -16.1651  -54.5654 H         1 UNK         0.0600 
    239 H239       -7.0080  -17.4599  -53.9753 H         1 UNK         0.0600 
    240 H240       -5.4187  -16.3521  -51.3345 H         1 UNK         0.3000 
    241 H241       -4.5278  -13.6460  -52.1883 H         1 UNK         0.0600 
    242 H242       -3.6729  -14.9087  -48.4332 H         1 UNK         0.3800 
    243 H243       -4.4807  -16.0286  -49.5148 H         1 UNK         0.3800 
    244 H244       -3.4609  -15.0437  -53.7570 H         1 UNK         0.0800 
    245 H245       -2.2321  -14.6066  -52.6167 H         1 UNK         0.0800 
    246 H246       -2.1036  -17.5190  -50.2770 H         1 UNK         0.0800 
    247 H247       -1.4962  -15.9515  -50.7234 H         1 UNK         0.0800 
@<TRIPOS>BOND
     1    1    2 1    
     2    1  127 1    
     3    1  128 1    
     4    1  129 1    
     5    2    3 2    
     6    2    4 am   BACKBONE|DICT|INTERRES
     7    4    5 1    
     8    4  130 1    
     9    5    6 1    
    10    5   65 1    
    11    5  131 1    
    12    6    7 1    
    13    6  132 1    
    14    6  133 1    
    15    7    8 1    
    16    8    9 1    
    17    8  134 1    
    18    8  135 1    
    19    9   10 ar   
    20    9   14 ar   
    21   10   11 ar   
    22   10  136 1    
    23   11   12 ar   
    24   11  126 1    
    25   12   13 ar   
    26   12  137 1    
    27   13   14 ar   
    28   13   15 1    
    29   14  138 1    
    30   15   16 1    
    31   15  139 1    
    32   15  140 1    
    33   16   17 1    
    34   17   18 1    
    35   17  141 1    
    36   17  142 1    
    37   18   19 1    
    38   18   67 1    
    39   18  143 1    
    40   19   20 am   BACKBONE|DICT|INTERRES
    41   19  144 1    
    42   20   21 2    
    43   20   22 1    
    44   22   23 1    
    45   22   24 1    
    46   22  145 1    
    47   23  146 1    
    48   23  147 1    
    49   23  148 1    
    50   24   25 am   BACKBONE|DICT|INTERRES
    51   24  149 1    
    52   25   26 2    
    53   25   27 1    
    54   27   28 1    
    55   27   29 1    
    56   27  150 1    
    57   28  151 1    
    58   28  152 1    
    59   28  153 1    
    60   29   30 am   BACKBONE|DICT|INTERRES
    61   29  154 1    
    62   30   31 2    
    63   30   32 1    
    64   32   33 1    
    65   32   34 1    
    66   32  155 1    
    67   33  156 1    
    68   33  157 1    
    69   33  158 1    
    70   34   35 am   BACKBONE|DICT|INTERRES
    71   34  159 1    
    72   35   36 2    
    73   35   37 1    
    74   37   38 1    
    75   37   39 1    
    76   37  160 1    
    77   38  161 1    
    78   38  162 1    
    79   38  163 1    
    80   39   40 am   BACKBONE|DICT|INTERRES
    81   39  164 1    
    82   40   41 2    
    83   40   42 1    
    84   42   43 1    
    85   42   44 1    
    86   42  165 1    
    87   43  166 1    
    88   43  167 1    
    89   43  168 1    
    90   44   45 am   BACKBONE|DICT|INTERRES
    91   44  169 1    
    92   45   46 2    
    93   45   47 1    
    94   47   48 1    
    95   47   49 1    
    96   47  170 1    
    97   48  171 1    
    98   48  172 1    
    99   48  173 1    
   100   49   50 am   BACKBONE|DICT|INTERRES
   101   49  174 1    
   102   50   51 2    
   103   50   52 1    
   104   52   53 1    
   105   52   54 1    
   106   52  175 1    
   107   53  176 1    
   108   53  177 1    
   109   53  178 1    
   110   54   55 am   BACKBONE|DICT|INTERRES
   111   54  179 1    
   112   55   56 2    
   113   55   57 1    
   114   57   58 1    
   115   57   59 1    
   116   57  180 1    
   117   58  181 1    
   118   58  182 1    
   119   58  183 1    
   120   59   60 am   BACKBONE|DICT|INTERRES
   121   59  184 1    
   122   60   61 2    
   123   60   62 1    
   124   62   63 1    
   125   62   64 1    
   126   62  185 1    
   127   63  186 1    
   128   63  187 1    
   129   63  188 1    
   130   64   65 am   BACKBONE|DICT|INTERRES
   131   64  189 1    
   132   65   66 2    
   133   67   68 2    
   134   67   69 am   BACKBONE|DICT|INTERRES
   135   69   70 1    
   136   69  190 1    
   137   70   71 1    
   138   70   72 1    
   139   70  191 1    
   140   71  192 1    
   141   71  193 1    
   142   71  194 1    
   143   72   73 2    
   144   72   74 am   BACKBONE|DICT|INTERRES
   145   74   75 1    
   146   74  195 1    
   147   75   76 1    
   148   75   77 1    
   149   75  196 1    
   150   76  197 1    
   151   76  198 1    
   152   76  199 1    
   153   77   78 2    
   154   77   79 am   BACKBONE|DICT|INTERRES
   155   79   80 1    
   156   79  200 1    
   157   80   81 1    
   158   80   82 1    
   159   80  201 1    
   160   81  202 1    
   161   81  203 1    
   162   81  204 1    
   163   82   83 2    
   164   82   84 am   BACKBONE|DICT|INTERRES
   165   84   85 1    
   166   84  205 1    
   167   85   86 1    
   168   85   87 1    
   169   85  206 1    
   170   86  207 1    
   171   86  208 1    
   172   86  209 1    
   173   87   88 2    
   174   87   89 am   BACKBONE|DICT|INTERRES
   175   89   90 1    
   176   89  210 1    
   177   90   91 1    
   178   90   92 1    
   179   90  211 1    
   180   91  212 1    
   181   91  213 1    
   182   91  214 1    
   183   92   93 2    
   184   92   94 am   BACKBONE|DICT|INTERRES
   185   94   95 1    
   186   94  215 1    
   187   95   96 1    
   188   95   97 1    
   189   95  216 1    
   190   96  217 1    
   191   96  218 1    
   192   96  219 1    
   193   97   98 2    
   194   97   99 am   BACKBONE|DICT|INTERRES
   195   99  100 1    
   196   99  220 1    
   197  100  101 1    
   198  100  102 1    
   199  100  221 1    
   200  101  222 1    
   201  101  223 1    
   202  101  224 1    
   203  102  103 2    
   204  102  104 am   BACKBONE|DICT|INTERRES
   205  104  105 1    
   206  104  225 1    
   207  105  106 1    
   208  105  107 1    
   209  105  226 1    
   210  106  227 1    
   211  106  228 1    
   212  106  229 1    
   213  107  108 2    
   214  107  109 am   BACKBONE|DICT|INTERRES
   215  109  110 1    
   216  109  230 1    
   217  110  111 1    
   218  110  112 1    
   219  110  231 1    
   220  111  232 1    
   221  111  233 1    
   222  111  234 1    
   223  112  113 2    
   224  112  114 am   BACKBONE|DICT|INTERRES
   225  114  115 1    
   226  114  235 1    
   227  115  116 1    
   228  115  117 1    
   229  115  236 1    
   230  116  237 1    
   231  116  238 1    
   232  116  239 1    
   233  117  118 2    
   234  117  119 am   BACKBONE|DICT|INTERRES
   235  119  120 1    
   236  119  240 1    
   237  120  121 1    
   238  120  124 1    
   239  120  241 1    
   240  121  122 am   BACKBONE|DICT|INTERRES
   241  121  123 2    
   242  122  242 1    
   243  122  243 1    
   244  124  125 1    
   245  124  244 1    
   246  124  245 1    
   247  125  126 1    
   248  126  246 1    
   249  126  247 1    
@<TRIPOS>SUBSTRUCTURE
     1 UNK         1 GROUP             0       ****    0 ROOT    
