@<TRIPOS>MOLECULE
3R540
247   249    1
SMALL
USER_CHARGES


@<TRIPOS>ATOM
      1 CA          1.1601  -11.6670  -44.8275 C.3       0 UNK        -0.1800 
      2 C           1.5389  -12.2096  -46.1977 C.2       0 UNK         0.5000 
      3 O           2.7088  -12.1532  -46.5727 O.2       0 UNK        -0.5000 
      4 N           0.5579  -12.7446  -46.9379 N.am      1 UNK        -0.5000 
      5 CA          0.6936  -13.2495  -48.3142 C.3       1 UNK         0.1400 
      6 C6         -0.6867  -13.6471  -48.9048 C.3       23 UNK        -0.0398 
      7 S7         -0.9310  -13.1255  -50.6389 S.3       23 UNK        -0.2404 
      8 C8         -2.7392  -12.8479  -50.7032 C.3       23 UNK        -0.0205 
      9 C9         -3.5262  -14.1484  -50.8313 C.ar      23 UNK        -0.0193 
     10 C10        -4.2077  -14.4634  -52.0127 C.ar      23 UNK        -0.1150 
     11 C11        -4.9132  -15.6676  -52.1264 C.ar      23 UNK        -0.0193 
     12 C12        -4.8998  -16.5796  -51.0666 C.ar      23 UNK        -0.1150 
     13 C13        -4.2145  -16.2782  -49.8883 C.ar      23 UNK        -0.0193 
     14 C14        -3.5755  -15.0450  -49.7622 C.ar      23 UNK        -0.1150 
     15 C15        -4.1005  -17.2862  -48.7592 C.3       23 UNK        -0.0205 
     16 S16        -2.4180  -17.9805  -48.7473 S.3       23 UNK        -0.2404 
     17 C17        -2.1646  -18.3655  -46.9878 C.3       23 UNK        -0.0398 
     18 CA         -1.6460  -19.8053  -46.7685 C.3       11 UNK         0.1400 
     19 N          -0.9609  -19.9488  -45.4831 N.am      11 UNK        -0.5000 
     20 C          -0.2865  -21.0376  -45.0872 C.2       10 UNK         0.5000 
     21 O          -0.1456  -22.0454  -45.7781 O.2       10 UNK        -0.5000 
     22 CA          0.2757  -21.0202  -43.6552 C.3       10 UNK         0.1400 
     23 CB          1.5582  -20.1792  -43.5769 C.3       10 UNK        -0.1800 
     24 N          -0.6977  -20.5260  -42.6821 N.am      10 UNK        -0.5000 
     25 C          -1.8774  -21.1075  -42.4215 C.2       9 UNK         0.5000 
     26 O          -2.2597  -22.1535  -42.9455 O.2       9 UNK        -0.5000 
     27 CA         -2.8087  -20.3663  -41.4497 C.3       9 UNK         0.1400 
     28 CB         -2.4051  -20.6319  -39.9915 C.3       9 UNK        -0.1800 
     29 N          -2.8245  -18.9264  -41.7034 N.am      9 UNK        -0.5000 
     30 C          -3.3587  -18.3549  -42.7918 C.2       8 UNK         0.5000 
     31 O          -3.9131  -18.9812  -43.6961 O.2       8 UNK        -0.5000 
     32 CA         -3.2012  -16.8274  -42.9066 C.3       8 UNK         0.1400 
     33 CB         -4.2352  -16.1037  -42.0311 C.3       8 UNK        -0.1800 
     34 N          -1.8546  -16.3705  -42.5537 N.am      8 UNK        -0.5000 
     35 C          -0.7545  -16.6925  -43.2466 C.2       7 UNK         0.5000 
     36 O          -0.7643  -17.4002  -44.2503 O.2       7 UNK        -0.5000 
     37 CA          0.5927  -16.1735  -42.7213 C.3       7 UNK         0.1400 
     38 CB          0.8528  -14.7513  -43.2352 C.3       7 UNK        -0.1800 
     39 N           0.7466  -16.2161  -41.2648 N.am      7 UNK        -0.5000 
     40 C           0.5848  -17.3016  -40.4939 C.2       6 UNK         0.5000 
     41 O           0.2000  -18.3925  -40.9184 O.2       6 UNK        -0.5000 
     42 CA          0.9914  -17.1404  -39.0216 C.3       6 UNK         0.1400 
     43 CB          0.6795  -18.3852  -38.1713 C.3       6 UNK        -0.1800 
     44 N           2.4274  -16.8845  -38.9935 N.am      6 UNK        -0.5000 
     45 C           3.0282  -15.8259  -38.4378 C.2       5 UNK         0.5000 
     46 O           2.4414  -14.9732  -37.7709 O.2       5 UNK        -0.5000 
     47 CA          4.5426  -15.6815  -38.6997 C.3       5 UNK         0.1400 
     48 CB          5.3488  -16.3037  -37.5493 C.3       5 UNK        -0.1800 
     49 N           4.9747  -16.2811  -39.9688 N.am      5 UNK        -0.5000 
     50 C           4.6074  -15.8414  -41.1803 C.2       4 UNK         0.5000 
     51 O           3.8866  -14.8561  -41.3556 O.2       4 UNK        -0.5000 
     52 CA          5.0876  -16.6772  -42.3821 C.3       4 UNK         0.1400 
     53 CB          4.3408  -18.0208  -42.4411 C.3       4 UNK        -0.1800 
     54 N           4.8731  -15.9696  -43.6441 N.am      4 UNK        -0.5000 
     55 C           5.6884  -15.0356  -44.1493 C.2       3 UNK         0.5000 
     56 O           6.7532  -14.7145  -43.6179 O.2       3 UNK        -0.5000 
     57 CA          5.2428  -14.3205  -45.4468 C.3       3 UNK         0.1400 
     58 CB          6.4070  -14.1467  -46.4441 C.3       3 UNK        -0.1800 
     59 N           4.0684  -14.9013  -46.1152 N.am      3 UNK        -0.5000 
     60 C           3.9531  -16.1087  -46.6919 C.2       2 UNK         0.5000 
     61 O           4.8557  -16.9450  -46.7126 O.2       2 UNK        -0.5000 
     62 CA          2.5925  -16.4621  -47.3292 C.3       2 UNK         0.1400 
     63 CB          1.8924  -17.5685  -46.5229 C.3       2 UNK        -0.1800 
     64 N           1.6867  -15.3144  -47.4350 N.am      2 UNK        -0.5000 
     65 C           1.7024  -14.4160  -48.4311 C.2       1 UNK         0.5000 
     66 O           2.4751  -14.4678  -49.3885 O.2       1 UNK        -0.5000 
     67 C          -2.7720  -20.8415  -46.9446 C.2       11 UNK         0.5000 
     68 O          -2.8597  -21.4580  -48.0069 O.2       11 UNK        -0.5000 
     69 N          -3.5830  -21.0410  -45.8952 N.am      12 UNK        -0.5000 
     70 CA         -4.6548  -22.0354  -45.8605 C.3       12 UNK         0.1400 
     71 CB         -5.4972  -21.8450  -44.5903 C.3       12 UNK        -0.1800 
     72 C          -4.1284  -23.4784  -45.9633 C.2       12 UNK         0.5000 
     73 O          -4.6680  -24.2626  -46.7440 O.2       12 UNK        -0.5000 
     74 N          -3.0663  -23.7903  -45.2069 N.am      13 UNK        -0.5000 
     75 CA         -2.3977  -25.0931  -45.2052 C.3       13 UNK         0.1400 
     76 CB         -1.3773  -25.1429  -44.0579 C.3       13 UNK        -0.1800 
     77 C          -1.7211  -25.4263  -46.5478 C.2       13 UNK         0.5000 
     78 O          -1.8103  -26.5652  -47.0075 O.2       13 UNK        -0.5000 
     79 N          -1.0756  -24.4251  -47.1599 N.am      14 UNK        -0.5000 
     80 CA         -0.4054  -24.5366  -48.4561 C.3       14 UNK         0.1400 
     81 CB          0.6553  -23.4287  -48.5577 C.3       14 UNK        -0.1800 
     82 C          -1.3663  -24.4590  -49.6584 C.2       14 UNK         0.5000 
     83 O          -0.9233  -24.6866  -50.7841 O.2       14 UNK        -0.5000 
     84 N          -2.6339  -24.0893  -49.4212 N.am      15 UNK        -0.5000 
     85 CA         -3.6812  -23.8153  -50.4128 C.3       15 UNK         0.1400 
     86 CB         -4.1082  -25.1121  -51.1296 C.3       15 UNK        -0.1800 
     87 C          -3.2755  -22.6934  -51.3924 C.2       15 UNK         0.5000 
     88 O          -3.4809  -22.8188  -52.6026 O.2       15 UNK        -0.5000 
     89 N          -2.6791  -21.6286  -50.8378 N.am      16 UNK        -0.5000 
     90 CA         -2.0579  -20.4945  -51.5289 C.3       16 UNK         0.1400 
     91 CB         -3.1181  -19.6343  -52.2438 C.3       16 UNK        -0.1800 
     92 C          -0.8943  -20.9275  -52.4437 C.2       16 UNK         0.5000 
     93 O          -0.8132  -20.4959  -53.5928 O.2       16 UNK        -0.5000 
     94 N          -0.0219  -21.7917  -51.9030 N.am      17 UNK        -0.5000 
     95 CA          1.1391  -22.4079  -52.5570 C.3       17 UNK         0.1400 
     96 CB          2.1997  -21.3481  -52.9225 C.3       17 UNK        -0.1800 
     97 C           0.7268  -23.3013  -53.7443 C.2       17 UNK         0.5000 
     98 O           1.2475  -23.1542  -54.8514 O.2       17 UNK        -0.5000 
     99 N          -0.2234  -24.2074  -53.4721 N.am      18 UNK        -0.5000 
    100 CA        -0.8195  -25.1874  -54.3856 C.3       18 UNK         0.1400 
    101 CB         0.2321  -26.2177  -54.8473 C.3       18 UNK        -0.1800 
    102 C         -1.6017  -24.5627  -55.5617 C.2       18 UNK         0.5000 
    103 O         -1.7936  -25.2200  -56.5861 O.2       18 UNK        -0.5000 
    104 N         -2.0727  -23.3204  -55.3891 N.am      19 UNK        -0.5000 
    105 CA        -2.8970  -22.5976  -56.3610 C.3       19 UNK         0.1400 
    106 CB        -2.6281  -21.0912  -56.2226 C.3       19 UNK        -0.1800 
    107 C         -4.4009  -22.8958  -56.2029 C.2       19 UNK         0.5000 
    108 O         -5.1980  -22.3531  -56.9675 O.2       19 UNK        -0.5000 
    109 N         -4.7621  -23.7159  -55.2034 N.am      20 UNK        -0.5000 
    110 CA        -6.1204  -24.0748  -54.7853 C.3       20 UNK         0.1400 
    111 CB        -6.8637  -24.8491  -55.8941 C.3       20 UNK        -0.1800 
    112 C         -6.8871  -22.8401  -54.2762 C.2       20 UNK         0.5000 
    113 O         -7.9919  -22.5532  -54.7414 O.2       20 UNK        -0.5000 
    114 N         -6.2406  -22.0983  -53.3625 N.am      21 UNK        -0.5000 
    115 CA        -6.7043  -20.8382  -52.7642 C.3       21 UNK         0.1400 
    116 CB        -7.9277  -21.0796  -51.8567 C.3       21 UNK        -0.1800 
    117 C         -6.9372  -19.7321  -53.8177 C.2       21 UNK         0.5000 
    118 O         -7.8630  -18.9302  -53.6875 O.2       21 UNK        -0.5000 
    119 N         -6.0906  -19.7422  -54.8553 N.am      22 UNK        -0.5000 
    120 CA        -6.1429  -18.8967  -56.0600 C.3       22 UNK         0.1400 
    121 C         -7.3041  -19.2443  -57.0436 C.2       22 UNK         0.5000 
    122 N         -8.0424  -20.3336  -56.8616 N.am      22 UNK        -0.7600 
    123 O         -7.5289  -18.5234  -58.0123 O.2       22 UNK        -0.5000 
    124 C124       -6.0617  -17.3676  -55.7764 C.3       23 UNK        -0.0398 
    125 S125       -4.7325  -16.8873  -54.6149 S.3       23 UNK        -0.2404 
    126 C126       -5.7129  -15.9802  -53.3797 C.3       23 UNK        -0.0205 
    127 H127        0.1413  -11.9386  -44.5504 H         1 UNK         0.0600 
    128 H128        1.2371  -10.5799  -44.8230 H         1 UNK         0.0600 
    129 H129        1.8360  -12.0581  -44.0671 H         1 UNK         0.0600 
    130 H130       -0.3789  -12.7541  -46.5608 H         1 UNK         0.3000 
    131 H131        1.0987  -12.4187  -48.8962 H         1 UNK         0.0600 
    132 H132       -1.4830  -13.1868  -48.3187 H         1 UNK         0.0800 
    133 H133       -0.8566  -14.7233  -48.8345 H         1 UNK         0.0800 
    134 H134       -2.9529  -12.1986  -51.5536 H         1 UNK         0.0800 
    135 H135       -3.0696  -12.3006  -49.8193 H         1 UNK         0.0800 
    136 H136       -4.1977  -13.7700  -52.8421 H         1 UNK         0.1150 
    137 H137       -5.4175  -17.5232  -51.1641 H         1 UNK         0.1150 
    138 H138       -3.0797  -14.8126  -48.8337 H         1 UNK         0.1150 
    139 H139       -4.3168  -16.7874  -47.8134 H         1 UNK         0.0800 
    140 H140       -4.8285  -18.0914  -48.8690 H         1 UNK         0.0800 
    141 H141       -3.0656  -18.1732  -46.4026 H         1 UNK         0.0800 
    142 H142       -1.4253  -17.6449  -46.6421 H         1 UNK         0.0800 
    143 H143       -0.8938  -20.0141  -47.5327 H         1 UNK         0.0600 
    144 H144       -0.9937  -19.1409  -44.8659 H         1 UNK         0.3000 
    145 H145        0.5250  -22.0477  -43.3830 H         1 UNK         0.0600 
    146 H146        1.9901  -20.2126  -42.5766 H         1 UNK         0.0600 
    147 H147        2.3128  -20.5500  -44.2716 H         1 UNK         0.0600 
    148 H148        1.3698  -19.1354  -43.8244 H         1 UNK         0.0600 
    149 H149       -0.4495  -19.6825  -42.1716 H         1 UNK         0.3000 
    150 H150       -3.8208  -20.7489  -41.5973 H         1 UNK         0.0600 
    151 H151       -2.4327  -21.6995  -39.7699 H         1 UNK         0.0600 
    152 H152       -3.0849  -20.1381  -39.2971 H         1 UNK         0.0600 
    153 H153       -1.3949  -20.2808  -39.7800 H         1 UNK         0.0600 
    154 H154       -2.3219  -18.3456  -41.0484 H         1 UNK         0.3000 
    155 H155       -3.3873  -16.5541  -43.9477 H         1 UNK         0.0600 
    156 H156       -4.0823  -16.3084  -40.9708 H         1 UNK         0.0600 
    157 H157       -5.2486  -16.4187  -42.2838 H         1 UNK         0.0600 
    158 H158       -4.1865  -15.0242  -42.1751 H         1 UNK         0.0600 
    159 H159       -1.7614  -15.7905  -41.7329 H         1 UNK         0.3000 
    160 H160        1.3629  -16.8197  -43.1406 H         1 UNK         0.0600 
    161 H161        0.1649  -14.0307  -42.7915 H         1 UNK         0.0600 
    162 H162        0.7315  -14.6993  -44.3176 H         1 UNK         0.0600 
    163 H163        1.8685  -14.4276  -43.0110 H         1 UNK         0.0600 
    164 H164        1.1076  -15.3766  -40.8337 H         1 UNK         0.3000 
    165 H165        0.4317  -16.2946  -38.6170 H         1 UNK         0.0600 
    166 H166        0.9799  -18.2361  -37.1341 H         1 UNK         0.0600 
    167 H167       -0.3896  -18.5999  -38.1722 H         1 UNK         0.0600 
    168 H168        1.1954  -19.2710  -38.5441 H         1 UNK         0.0600 
    169 H169        2.9946  -17.5156  -39.5407 H         1 UNK         0.3000 
    170 H170        4.7686  -14.6137  -38.7370 H         1 UNK         0.0600 
    171 H171        5.0698  -15.8602  -36.5925 H         1 UNK         0.0600 
    172 H172        5.1801  -17.3787  -37.4742 H         1 UNK         0.0600 
    173 H173        6.4182  -16.1390  -37.6822 H         1 UNK         0.0600 
    174 H174        5.5718  -17.0929  -39.9006 H         1 UNK         0.3000 
    175 H175        6.1544  -16.8772  -42.2611 H         1 UNK         0.0600 
    176 H176        3.2609  -17.8839  -42.4655 H         1 UNK         0.0600 
    177 H177        4.6252  -18.5932  -43.3245 H         1 UNK         0.0600 
    178 H178        4.5699  -18.6383  -41.5721 H         1 UNK         0.0600 
    179 H179        4.0068  -16.1502  -44.1254 H         1 UNK         0.3000 
    180 H180        4.9342  -13.3217  -45.1349 H         1 UNK         0.0600 
    181 H181        6.8219  -15.1057  -46.7552 H         1 UNK         0.0600 
    182 H182        7.2196  -13.5686  -46.0029 H         1 UNK         0.0600 
    183 H183        6.0824  -13.6144  -47.3383 H         1 UNK         0.0600 
    184 H184        3.2838  -14.2682  -46.2017 H         1 UNK         0.3000 
    185 H185        2.7945  -16.8514  -48.3294 H         1 UNK         0.0600 
    186 H186        2.5232  -18.4540  -46.4349 H         1 UNK         0.0600 
    187 H187        1.6512  -17.2374  -45.5139 H         1 UNK         0.0600 
    188 H188        0.9667  -17.8818  -47.0048 H         1 UNK         0.0600 
    189 H189        1.0156  -15.1956  -46.6910 H         1 UNK         0.3000 
    190 H190       -3.4648  -20.4724  -45.0632 H         1 UNK         0.3000 
    191 H191       -5.3004  -21.8566  -46.7229 H         1 UNK         0.0600 
    192 H192       -4.9016  -21.9746  -43.6864 H         1 UNK         0.0600 
    193 H193       -6.3148  -22.5659  -44.5518 H         1 UNK         0.0600 
    194 H194       -5.9396  -20.8492  -44.5575 H         1 UNK         0.0600 
    195 H195       -2.7035  -23.0951  -44.5595 H         1 UNK         0.3000 
    196 H196       -3.1557  -25.8565  -45.0180 H         1 UNK         0.0600 
    197 H197       -0.8704  -26.1081  -44.0255 H         1 UNK         0.0600 
    198 H198       -1.8632  -24.9979  -43.0928 H         1 UNK         0.0600 
    199 H199       -0.6132  -24.3722  -44.1656 H         1 UNK         0.0600 
    200 H200       -0.9931  -23.5296  -46.6848 H         1 UNK         0.3000 
    201 H201        0.1047  -25.5006  -48.5074 H         1 UNK         0.0600 
    202 H202        1.3581  -23.4802  -47.7258 H         1 UNK         0.0600 
    203 H203        0.2025  -22.4363  -48.5503 H         1 UNK         0.0600 
    204 H204        1.2378  -23.5233  -49.4740 H         1 UNK         0.0600 
    205 H205       -2.8830  -23.8811  -48.4631 H         1 UNK         0.3000 
    206 H206       -4.5418  -23.4425  -49.8557 H         1 UNK         0.0600 
    207 H207       -4.9833  -24.9395  -51.7557 H         1 UNK         0.0600 
    208 H208       -4.3729  -25.8884  -50.4118 H         1 UNK         0.0600 
    209 H209       -3.3173  -25.5034  -51.7701 H         1 UNK         0.0600 
    210 H210       -2.6201  -21.6089  -49.8206 H         1 UNK         0.3000 
    211 H211       -1.6039  -19.8776  -50.7543 H         1 UNK         0.0600 
    212 H212       -2.6724  -18.7349  -52.6705 H         1 UNK         0.0600 
    213 H213       -3.8852  -19.3097  -51.5429 H         1 UNK         0.0600 
    214 H214       -3.6051  -20.1741  -53.0543 H         1 UNK         0.0600 
    215 H215       -0.2140  -22.1177  -50.9679 H         1 UNK         0.3000 
    216 H216        1.5901  -23.0752  -51.8218 H         1 UNK         0.0600 
    217 H217        3.1074  -21.8211  -53.2989 H         1 UNK         0.0600 
    218 H218        2.4801  -20.7551  -52.0521 H         1 UNK         0.0600 
    219 H219        1.8460  -20.6644  -53.6946 H         1 UNK         0.0600 
    220 H220       -0.5605  -24.2631  -52.5117 H         1 UNK         0.3000 
    221 H221       -1.5610  -25.7246  -53.7927 H         1 UNK         0.0600 
    222 H222        0.9750  -25.7705  -55.5082 H         1 UNK         0.0600 
    223 H223        0.7570  -26.6527  -53.9969 H         1 UNK         0.0600 
    224 H224       -0.2355  -27.0392  -55.3913 H         1 UNK         0.0600 
    225 H225       -1.8945  -22.8517  -54.5101 H         1 UNK         0.3000 
    226 H226       -2.6103  -22.8966  -57.3712 H         1 UNK         0.0600 
    227 H227       -2.9639  -20.7095  -55.2590 H         1 UNK         0.0600 
    228 H228       -1.5648  -20.8701  -56.3180 H         1 UNK         0.0600 
    229 H229       -3.1457  -20.5264  -56.9985 H         1 UNK         0.0600 
    230 H230       -4.0219  -24.0319  -54.5917 H         1 UNK         0.3000 
    231 H231       -6.0164  -24.7472  -53.9333 H         1 UNK         0.0600 
    232 H232       -6.2893  -25.7155  -56.2216 H         1 UNK         0.0600 
    233 H233       -7.0606  -24.2275  -56.7680 H         1 UNK         0.0600 
    234 H234       -7.8257  -25.2144  -55.5330 H         1 UNK         0.0600 
    235 H235       -5.3039  -22.3919  -53.0982 H         1 UNK         0.3000 
    236 H236       -5.8957  -20.4853  -52.1250 H         1 UNK         0.0600 
    237 H237       -8.1898  -20.1754  -51.3062 H         1 UNK         0.0600 
    238 H238       -8.8057  -21.3788  -52.4297 H         1 UNK         0.0600 
    239 H239       -7.7250  -21.8583  -51.1214 H         1 UNK         0.0600 
    240 H240       -5.3940  -20.4708  -54.8784 H         1 UNK         0.3000 
    241 H241       -5.2397  -19.1577  -56.6117 H         1 UNK         0.0600 
    242 H242       -8.7777  -20.5435  -57.5172 H         1 UNK         0.3800 
    243 H243       -7.8739  -20.9628  -56.0856 H         1 UNK         0.3800 
    244 H244       -5.8862  -16.8264  -56.7075 H         1 UNK         0.0800 
    245 H245       -7.0227  -17.0075  -55.4065 H         1 UNK         0.0800 
    246 H246       -6.5914  -16.5669  -53.1073 H         1 UNK         0.0800 
    247 H247       -6.0879  -15.0577  -53.8255 H         1 UNK         0.0800 
@<TRIPOS>BOND
     1    1    2 1    
     2    1  127 1    
     3    1  128 1    
     4    1  129 1    
     5    2    3 2    
     6    2    4 am   BACKBONE|DICT|INTERRES
     7    4    5 1    
     8    4  130 1    
     9    5    6 1    
    10    5   65 1    
    11    5  131 1    
    12    6    7 1    
    13    6  132 1    
    14    6  133 1    
    15    7    8 1    
    16    8    9 1    
    17    8  134 1    
    18    8  135 1    
    19    9   10 ar   
    20    9   14 ar   
    21   10   11 ar   
    22   10  136 1    
    23   11   12 ar   
    24   11  126 1    
    25   12   13 ar   
    26   12  137 1    
    27   13   14 ar   
    28   13   15 1    
    29   14  138 1    
    30   15   16 1    
    31   15  139 1    
    32   15  140 1    
    33   16   17 1    
    34   17   18 1    
    35   17  141 1    
    36   17  142 1    
    37   18   19 1    
    38   18   67 1    
    39   18  143 1    
    40   19   20 am   BACKBONE|DICT|INTERRES
    41   19  144 1    
    42   20   21 2    
    43   20   22 1    
    44   22   23 1    
    45   22   24 1    
    46   22  145 1    
    47   23  146 1    
    48   23  147 1    
    49   23  148 1    
    50   24   25 am   BACKBONE|DICT|INTERRES
    51   24  149 1    
    52   25   26 2    
    53   25   27 1    
    54   27   28 1    
    55   27   29 1    
    56   27  150 1    
    57   28  151 1    
    58   28  152 1    
    59   28  153 1    
    60   29   30 am   BACKBONE|DICT|INTERRES
    61   29  154 1    
    62   30   31 2    
    63   30   32 1    
    64   32   33 1    
    65   32   34 1    
    66   32  155 1    
    67   33  156 1    
    68   33  157 1    
    69   33  158 1    
    70   34   35 am   BACKBONE|DICT|INTERRES
    71   34  159 1    
    72   35   36 2    
    73   35   37 1    
    74   37   38 1    
    75   37   39 1    
    76   37  160 1    
    77   38  161 1    
    78   38  162 1    
    79   38  163 1    
    80   39   40 am   BACKBONE|DICT|INTERRES
    81   39  164 1    
    82   40   41 2    
    83   40   42 1    
    84   42   43 1    
    85   42   44 1    
    86   42  165 1    
    87   43  166 1    
    88   43  167 1    
    89   43  168 1    
    90   44   45 am   BACKBONE|DICT|INTERRES
    91   44  169 1    
    92   45   46 2    
    93   45   47 1    
    94   47   48 1    
    95   47   49 1    
    96   47  170 1    
    97   48  171 1    
    98   48  172 1    
    99   48  173 1    
   100   49   50 am   BACKBONE|DICT|INTERRES
   101   49  174 1    
   102   50   51 2    
   103   50   52 1    
   104   52   53 1    
   105   52   54 1    
   106   52  175 1    
   107   53  176 1    
   108   53  177 1    
   109   53  178 1    
   110   54   55 am   BACKBONE|DICT|INTERRES
   111   54  179 1    
   112   55   56 2    
   113   55   57 1    
   114   57   58 1    
   115   57   59 1    
   116   57  180 1    
   117   58  181 1    
   118   58  182 1    
   119   58  183 1    
   120   59   60 am   BACKBONE|DICT|INTERRES
   121   59  184 1    
   122   60   61 2    
   123   60   62 1    
   124   62   63 1    
   125   62   64 1    
   126   62  185 1    
   127   63  186 1    
   128   63  187 1    
   129   63  188 1    
   130   64   65 am   BACKBONE|DICT|INTERRES
   131   64  189 1    
   132   65   66 2    
   133   67   68 2    
   134   67   69 am   BACKBONE|DICT|INTERRES
   135   69   70 1    
   136   69  190 1    
   137   70   71 1    
   138   70   72 1    
   139   70  191 1    
   140   71  192 1    
   141   71  193 1    
   142   71  194 1    
   143   72   73 2    
   144   72   74 am   BACKBONE|DICT|INTERRES
   145   74   75 1    
   146   74  195 1    
   147   75   76 1    
   148   75   77 1    
   149   75  196 1    
   150   76  197 1    
   151   76  198 1    
   152   76  199 1    
   153   77   78 2    
   154   77   79 am   BACKBONE|DICT|INTERRES
   155   79   80 1    
   156   79  200 1    
   157   80   81 1    
   158   80   82 1    
   159   80  201 1    
   160   81  202 1    
   161   81  203 1    
   162   81  204 1    
   163   82   83 2    
   164   82   84 am   BACKBONE|DICT|INTERRES
   165   84   85 1    
   166   84  205 1    
   167   85   86 1    
   168   85   87 1    
   169   85  206 1    
   170   86  207 1    
   171   86  208 1    
   172   86  209 1    
   173   87   88 2    
   174   87   89 am   BACKBONE|DICT|INTERRES
   175   89   90 1    
   176   89  210 1    
   177   90   91 1    
   178   90   92 1    
   179   90  211 1    
   180   91  212 1    
   181   91  213 1    
   182   91  214 1    
   183   92   93 2    
   184   92   94 am   BACKBONE|DICT|INTERRES
   185   94   95 1    
   186   94  215 1    
   187   95   96 1    
   188   95   97 1    
   189   95  216 1    
   190   96  217 1    
   191   96  218 1    
   192   96  219 1    
   193   97   98 2    
   194   97   99 am   BACKBONE|DICT|INTERRES
   195   99  100 1    
   196   99  220 1    
   197  100  101 1    
   198  100  102 1    
   199  100  221 1    
   200  101  222 1    
   201  101  223 1    
   202  101  224 1    
   203  102  103 2    
   204  102  104 am   BACKBONE|DICT|INTERRES
   205  104  105 1    
   206  104  225 1    
   207  105  106 1    
   208  105  107 1    
   209  105  226 1    
   210  106  227 1    
   211  106  228 1    
   212  106  229 1    
   213  107  108 2    
   214  107  109 am   BACKBONE|DICT|INTERRES
   215  109  110 1    
   216  109  230 1    
   217  110  111 1    
   218  110  112 1    
   219  110  231 1    
   220  111  232 1    
   221  111  233 1    
   222  111  234 1    
   223  112  113 2    
   224  112  114 am   BACKBONE|DICT|INTERRES
   225  114  115 1    
   226  114  235 1    
   227  115  116 1    
   228  115  117 1    
   229  115  236 1    
   230  116  237 1    
   231  116  238 1    
   232  116  239 1    
   233  117  118 2    
   234  117  119 am   BACKBONE|DICT|INTERRES
   235  119  120 1    
   236  119  240 1    
   237  120  121 1    
   238  120  124 1    
   239  120  241 1    
   240  121  122 am   BACKBONE|DICT|INTERRES
   241  121  123 2    
   242  122  242 1    
   243  122  243 1    
   244  124  125 1    
   245  124  244 1    
   246  124  245 1    
   247  125  126 1    
   248  126  246 1    
   249  126  247 1    
@<TRIPOS>SUBSTRUCTURE
     1 UNK         1 GROUP             0       ****    0 ROOT    
