@<TRIPOS>MOLECULE
3R540
247   249    1
SMALL
USER_CHARGES


@<TRIPOS>ATOM
      1 CA         -5.9595  -13.8145  -49.7508 C.3       0 UNK        -0.1800 
      2 C          -4.4985  -13.3919  -49.6892 C.2       0 UNK         0.5000 
      3 O          -4.1070  -12.4402  -50.3651 O.2       0 UNK        -0.5000 
      4 N          -3.6902  -14.1058  -48.8964 N.am      1 UNK        -0.5000 
      5 CA         -2.2600  -13.8514  -48.7071 C.3       1 UNK         0.1400 
      6 C6         -1.5636  -15.0185  -47.9646 C.3       23 UNK        -0.0398 
      7 S7         -1.3222  -16.4800  -49.0220 S.3       23 UNK        -0.2404 
      8 C8          0.3350  -16.1285  -49.6892 C.3       23 UNK        -0.0205 
      9 C9          0.9225  -17.3557  -50.3611 C.ar      23 UNK        -0.0193 
     10 C10         0.8455  -17.5232  -51.7461 C.ar      23 UNK        -0.1150 
     11 C11         1.3750  -18.6664  -52.3505 C.ar      23 UNK        -0.0193 
     12 C12         1.9905  -19.6386  -51.5556 C.ar      23 UNK        -0.1150 
     13 C13         2.0640  -19.4933  -50.1660 C.ar      23 UNK        -0.0193 
     14 C14         1.5423  -18.3335  -49.5812 C.ar      23 UNK        -0.1150 
     15 C15         2.7057  -20.6118  -49.3403 C.3       23 UNK        -0.0205 
     16 S16         2.2472  -20.6567  -47.5695 S.3       23 UNK        -0.2404 
     17 C17         0.4429  -20.9317  -47.6394 C.3       23 UNK        -0.0398 
     18 CA          0.0241  -22.2933  -47.0363 C.3       11 UNK         0.1400 
     19 N           0.3027  -22.3704  -45.5972 N.am      11 UNK        -0.5000 
     20 C           0.1453  -23.4685  -44.8444 C.2       10 UNK         0.5000 
     21 O          -0.1955  -24.5632  -45.2918 O.2       10 UNK        -0.5000 
     22 CA          0.3419  -23.3029  -43.3271 C.3       10 UNK         0.1400 
     23 CB          1.8322  -23.3358  -42.9572 C.3       10 UNK        -0.1800 
     24 N          -0.2729  -22.0768  -42.8155 N.am      10 UNK        -0.5000 
     25 C          -1.5905  -21.8280  -42.8326 C.2       9 UNK         0.5000 
     26 O          -2.4295  -22.6307  -43.2361 O.2       9 UNK        -0.5000 
     27 CA         -2.0520  -20.4357  -42.3692 C.3       9 UNK         0.1400 
     28 CB         -2.1449  -20.3675  -40.8383 C.3       9 UNK        -0.1800 
     29 N          -1.1862  -19.3670  -42.8655 N.am      9 UNK        -0.5000 
     30 C          -1.0630  -19.0299  -44.1577 C.2       8 UNK         0.5000 
     31 O          -1.6868  -19.5727  -45.0695 O.2       8 UNK        -0.5000 
     32 CA         -0.0405  -17.9258  -44.4862 C.3       8 UNK         0.1400 
     33 CB         -0.6958  -16.5420  -44.3687 C.3       8 UNK        -0.1800 
     34 N           1.1485  -17.9785  -43.6310 N.am      8 UNK        -0.5000 
     35 C           2.0040  -19.0116  -43.5982 C.2       7 UNK         0.5000 
     36 O           1.8847  -20.0193  -44.2950 O.2       7 UNK        -0.5000 
     37 CA          3.1359  -18.9386  -42.5591 C.3       7 UNK         0.1400 
     38 CB          4.1638  -17.8550  -42.9220 C.3       7 UNK        -0.1800 
     39 N           2.6232  -18.7048  -41.2084 N.am      7 UNK        -0.5000 
     40 C           1.8362  -19.5473  -40.5259 C.2       6 UNK         0.5000 
     41 O           1.4804  -20.6420  -40.9593 O.2       6 UNK        -0.5000 
     42 CA          1.3030  -19.0787  -39.1574 C.3       6 UNK         0.1400 
     43 CB          2.3452  -19.2778  -38.0398 C.3       6 UNK        -0.1800 
     44 N           0.7590  -17.7137  -39.1882 N.am      6 UNK        -0.5000 
     45 C           1.4252  -16.5606  -39.3248 C.2       5 UNK         0.5000 
     46 O           2.6558  -16.4711  -39.3284 O.2       5 UNK        -0.5000 
     47 CA          0.5584  -15.3027  -39.5275 C.3       5 UNK         0.1400 
     48 CB          0.1399  -14.7127  -38.1722 C.3       5 UNK        -0.1800 
     49 N           1.2499  -14.2702  -40.3007 N.am      5 UNK        -0.5000 
     50 C           1.7267  -14.4174  -41.5444 C.2       4 UNK         0.5000 
     51 O           1.5685  -15.4323  -42.2306 O.2       4 UNK        -0.5000 
     52 CA          2.5716  -13.2383  -42.0651 C.3       4 UNK         0.1400 
     53 CB          3.9848  -13.2951  -41.4616 C.3       4 UNK        -0.1800 
     54 N           2.6980  -13.1973  -43.5211 N.am      4 UNK        -0.5000 
     55 C           1.6964  -13.0034  -44.3864 C.2       3 UNK         0.5000 
     56 O           0.5160  -12.8588  -44.0575 O.2       3 UNK        -0.5000 
     57 CA          2.1080  -12.9743  -45.8727 C.3       3 UNK         0.1400 
     58 CB          2.3821  -14.3979  -46.3894 C.3       3 UNK        -0.1800 
     59 N           1.1088  -12.3477  -46.7386 N.am      3 UNK        -0.5000 
     60 C           0.7115  -11.0665  -46.7002 C.2       2 UNK         0.5000 
     61 O           1.2012  -10.2224  -45.9482 O.2       2 UNK        -0.5000 
     62 CA         -0.4040  -10.6491  -47.6850 C.3       2 UNK         0.1400 
     63 CB          0.1377   -9.6569  -48.7272 C.3       2 UNK        -0.1800 
     64 N          -0.9794  -11.7986  -48.3904 N.am      2 UNK        -0.5000 
     65 C          -2.0066  -12.5346  -47.9467 C.2       1 UNK         0.5000 
     66 O          -2.6813  -12.2550  -46.9534 O.2       1 UNK        -0.5000 
     67 C          -1.4583  -22.5982  -47.3437 C.2       11 UNK         0.5000 
     68 O          -1.7465  -23.3899  -48.2432 O.2       11 UNK        -0.5000 
     69 N          -2.3729  -21.9948  -46.5697 N.am      12 UNK        -0.5000 
     70 CA         -3.8162  -22.2110  -46.6732 C.3       12 UNK         0.1400 
     71 CB         -4.5576  -21.1899  -45.7987 C.3       12 UNK        -0.1800 
     72 C          -4.2329  -23.6505  -46.3202 C.2       12 UNK         0.5000 
     73 O          -5.0327  -24.2388  -47.0472 O.2       12 UNK        -0.5000 
     74 N          -3.6553  -24.2103  -45.2474 N.am      13 UNK        -0.5000 
     75 CA         -3.8681  -25.5915  -44.8037 C.3       13 UNK         0.1400 
     76 CB         -3.1961  -25.8031  -43.4389 C.3       13 UNK        -0.1800 
     77 C          -3.3706  -26.6371  -45.8194 C.2       13 UNK         0.5000 
     78 O          -4.0077  -27.6782  -45.9823 O.2       13 UNK        -0.5000 
     79 N          -2.2672  -26.3242  -46.5116 N.am      14 UNK        -0.5000 
     80 CA         -1.7206  -27.1090  -47.6202 C.3       14 UNK         0.1400 
     81 CB         -0.2578  -26.6921  -47.8447 C.3       14 UNK        -0.1800 
     82 C          -2.5254  -26.9698  -48.9304 C.2       14 UNK         0.5000 
     83 O          -2.2633  -27.7219  -49.8700 O.2       14 UNK        -0.5000 
     84 N          -3.4650  -26.0112  -48.9796 N.am      15 UNK        -0.5000 
     85 CA         -4.2698  -25.6016  -50.1355 C.3       15 UNK         0.1400 
     86 CB         -5.2375  -26.7239  -50.5641 C.3       15 UNK        -0.1800 
     87 C          -3.4005  -25.0666  -51.2923 C.2       15 UNK         0.5000 
     88 O          -3.6904  -25.3232  -52.4616 O.2       15 UNK        -0.5000 
     89 N          -2.3401  -24.3367  -50.9329 N.am      16 UNK        -0.5000 
     90 CA         -1.3444  -23.7759  -51.8339 C.3       16 UNK         0.1400 
     91 CB         -0.0920  -24.6720  -51.8196 C.3       16 UNK        -0.1800 
     92 C          -1.0685  -22.3395  -51.3788 C.2       16 UNK         0.5000 
     93 O           0.0156  -22.0567  -50.8743 O.2       16 UNK        -0.5000 
     94 N          -2.0870  -21.4830  -51.5105 N.am      17 UNK        -0.5000 
     95 CA         -2.0797  -20.0845  -51.0906 C.3       17 UNK         0.1400 
     96 CB         -2.9265  -19.9489  -49.8131 C.3       17 UNK        -0.1800 
     97 C          -2.6293  -19.1830  -52.2066 C.2       17 UNK         0.5000 
     98 O          -3.1874  -19.6778  -53.1961 O.2       17 UNK        -0.5000 
     99 N          -2.4706  -17.8675  -52.0070 N.am      18 UNK        -0.5000 
    100 CA        -2.9369  -16.8029  -52.8922 C.3       18 UNK         0.1400 
    101 CB        -2.5362  -15.4381  -52.3166 C.3       18 UNK        -0.1800 
    102 C         -4.4569  -16.8718  -53.1135 C.2       18 UNK         0.5000 
    103 O         -5.2160  -16.8127  -52.1449 O.2       18 UNK        -0.5000 
    104 N         -4.8514  -17.0429  -54.3802 N.am      19 UNK        -0.5000 
    105 CA        -6.2106  -17.2334  -54.8993 C.3       19 UNK         0.1400 
    106 CB        -7.1419  -16.0707  -54.4992 C.3       19 UNK        -0.1800 
    107 C         -6.8360  -18.6082  -54.5780 C.2       19 UNK         0.5000 
    108 O         -7.8838  -18.9260  -55.1427 O.2       19 UNK        -0.5000 
    109 N         -6.1925  -19.4166  -53.7237 N.am      20 UNK        -0.5000 
    110 CA        -6.5805  -20.7990  -53.4462 C.3       20 UNK         0.1400 
    111 CB        -6.0802  -21.2165  -52.0539 C.3       20 UNK        -0.1800 
    112 C         -6.0397  -21.7443  -54.5312 C.2       20 UNK         0.5000 
    113 O         -6.7656  -22.6368  -54.9711 O.2       20 UNK        -0.5000 
    114 N         -4.7909  -21.5129  -54.9600 N.am      21 UNK        -0.5000 
    115 CA        -4.1361  -22.2634  -56.0342 C.3       21 UNK         0.1400 
    116 CB        -3.6057  -23.6045  -55.4992 C.3       21 UNK        -0.1800 
    117 C         -3.0106  -21.4800  -56.7324 C.2       21 UNK         0.5000 
    118 O         -2.6354  -21.8582  -57.8435 O.2       21 UNK        -0.5000 
    119 N         -2.4833  -20.4242  -56.1011 N.am      22 UNK        -0.5000 
    120 CA        -1.3828  -19.5991  -56.6241 C.3       22 UNK         0.1400 
    121 C         -1.6720  -18.0798  -56.4662 C.2       22 UNK         0.5000 
    122 N         -0.6911  -17.2100  -56.6667 N.am      22 UNK        -0.7600 
    123 O         -2.8008  -17.6659  -56.2098 O.2       22 UNK        -0.5000 
    124 C124        0.0008  -20.0720  -56.0893 C.3       23 UNK        -0.0398 
    125 S125        0.1029  -20.1899  -54.2698 S.3       23 UNK        -0.2404 
    126 C126        1.2719  -18.8591  -53.8572 C.3       23 UNK        -0.0205 
    127 H127       -6.6054  -12.9793  -49.4801 H         1 UNK         0.0600 
    128 H128       -6.1709  -14.6422  -49.0734 H         1 UNK         0.0600 
    129 H129       -6.2137  -14.1322  -50.7624 H         1 UNK         0.0600 
    130 H130       -4.0737  -14.8686  -48.3580 H         1 UNK         0.3000 
    131 H131       -1.8102  -13.7542  -49.6978 H         1 UNK         0.0600 
    132 H132       -2.1487  -15.3157  -47.0930 H         1 UNK         0.0800 
    133 H133       -0.5906  -14.7243  -47.5707 H         1 UNK         0.0800 
    134 H134        0.2793  -15.2955  -50.3914 H         1 UNK         0.0800 
    135 H135        1.0018  -15.8121  -48.8859 H         1 UNK         0.0800 
    136 H136        0.3669  -16.7698  -52.3543 H         1 UNK         0.1150 
    137 H137        2.3848  -20.5311  -52.0212 H         1 UNK         0.1150 
    138 H138        1.5954  -18.1877  -48.5123 H         1 UNK         0.1150 
    139 H139        2.4557  -21.5791  -49.7788 H         1 UNK         0.0800 
    140 H140        3.7890  -20.5113  -49.4121 H         1 UNK         0.0800 
    141 H141        0.1117  -20.8497  -48.6736 H         1 UNK         0.0800 
    142 H142       -0.0447  -20.1110  -47.1126 H         1 UNK         0.0800 
    143 H143        0.6130  -23.0726  -47.5250 H         1 UNK         0.0600 
    144 H144        0.6346  -21.5205  -45.1534 H         1 UNK         0.3000 
    145 H145       -0.1446  -24.1481  -42.8362 H         1 UNK         0.0600 
    146 H146        1.9697  -23.2999  -41.8764 H         1 UNK         0.0600 
    147 H147        2.3028  -24.2522  -43.3152 H         1 UNK         0.0600 
    148 H148        2.3759  -22.4962  -43.3905 H         1 UNK         0.0600 
    149 H149        0.3578  -21.3851  -42.4226 H         1 UNK         0.3000 
    150 H150       -3.0521  -20.2655  -42.7733 H         1 UNK         0.0600 
    151 H151       -2.8648  -21.0960  -40.4633 H         1 UNK         0.0600 
    152 H152       -2.4737  -19.3839  -40.5027 H         1 UNK         0.0600 
    153 H153       -1.1886  -20.5861  -40.3657 H         1 UNK         0.0600 
    154 H154       -0.6113  -18.8873  -42.1906 H         1 UNK         0.3000 
    155 H155        0.2818  -18.0667  -45.5201 H         1 UNK         0.0600 
    156 H156       -1.0102  -16.3313  -43.3458 H         1 UNK         0.0600 
    157 H157       -0.0108  -15.7513  -44.6718 H         1 UNK         0.0600 
    158 H158       -1.5784  -16.4721  -45.0051 H         1 UNK         0.0600 
    159 H159        1.3237  -17.1671  -43.0425 H         1 UNK         0.3000 
    160 H160        3.6481  -19.9032  -42.5597 H         1 UNK         0.0600 
    161 H161        5.0086  -17.8693  -42.2333 H         1 UNK         0.0600 
    162 H162        3.7307  -16.8551  -42.8960 H         1 UNK         0.0600 
    163 H163        4.5599  -18.0147  -43.9257 H         1 UNK         0.0600 
    164 H164        2.8483  -17.8157  -40.7731 H         1 UNK         0.3000 
    165 H165        0.4566  -19.7215  -38.9128 H         1 UNK         0.0600 
    166 H166        1.9579  -18.9480  -37.0758 H         1 UNK         0.0600 
    167 H167        2.6061  -20.3322  -37.9420 H         1 UNK         0.0600 
    168 H168        3.2708  -18.7359  -38.2342 H         1 UNK         0.0600 
    169 H169       -0.2506  -17.6678  -39.1873 H         1 UNK         0.3000 
    170 H170       -0.3387  -15.5846  -40.0826 H         1 UNK         0.0600 
    171 H171       -0.4081  -15.4446  -37.5773 H         1 UNK         0.0600 
    172 H172        1.0049  -14.3969  -37.5873 H         1 UNK         0.0600 
    173 H173       -0.5123  -13.8487  -38.3014 H         1 UNK         0.0600 
    174 H174        1.4616  -13.4181  -39.8032 H         1 UNK         0.3000 
    175 H175        2.0917  -12.3100  -41.7485 H         1 UNK         0.0600 
    176 H176        4.5840  -12.4395  -41.7736 H         1 UNK         0.0600 
    177 H177        4.5113  -14.2027  -41.7606 H         1 UNK         0.0600 
    178 H178        3.9507  -13.2834  -40.3714 H         1 UNK         0.0600 
    179 H179        3.6280  -13.3438  -43.8844 H         1 UNK         0.3000 
    180 H180        3.0273  -12.3908  -45.9559 H         1 UNK         0.0600 
    181 H181        1.4907  -15.0231  -46.3491 H         1 UNK         0.0600 
    182 H182        3.1511  -14.8934  -45.7953 H         1 UNK         0.0600 
    183 H183        2.7349  -14.3827  -47.4208 H         1 UNK         0.0600 
    184 H184        0.6434  -12.9567  -47.3897 H         1 UNK         0.3000 
    185 H185       -1.1812  -10.1451  -47.1067 H         1 UNK         0.0600 
    186 H186        0.9366  -10.0962  -49.3258 H         1 UNK         0.0600 
    187 H187       -0.6501   -9.3298  -49.4061 H         1 UNK         0.0600 
    188 H188        0.5405   -8.7645  -48.2465 H         1 UNK         0.0600 
    189 H189       -0.5028  -12.0776  -49.2365 H         1 UNK         0.3000 
    190 H190       -2.0653  -21.3199  -45.8753 H         1 UNK         0.3000 
    191 H191       -4.1030  -22.0329  -47.7117 H         1 UNK         0.0600 
    192 H192       -4.3224  -20.1693  -46.1015 H         1 UNK         0.0600 
    193 H193       -5.6378  -21.3143  -45.8836 H         1 UNK         0.0600 
    194 H194       -4.2963  -21.2945  -44.7458 H         1 UNK         0.0600 
    195 H195       -3.0483  -23.6382  -44.6643 H         1 UNK         0.3000 
    196 H196       -4.9430  -25.7380  -44.6796 H         1 UNK         0.0600 
    197 H197       -3.3527  -26.8205  -43.0785 H         1 UNK         0.0600 
    198 H198       -3.6056  -25.1262  -42.6889 H         1 UNK         0.0600 
    199 H199       -2.1202  -25.6340  -43.4909 H         1 UNK         0.0600 
    200 H200       -1.7625  -25.4782  -46.2670 H         1 UNK         0.3000 
    201 H201       -1.7350  -28.1638  -47.3387 H         1 UNK         0.0600 
    202 H202        0.3377  -26.8422  -46.9440 H         1 UNK         0.0600 
    203 H203       -0.1780  -25.6419  -48.1270 H         1 UNK         0.0600 
    204 H204        0.2022  -27.2808  -48.6393 H         1 UNK         0.0600 
    205 H205       -3.6046  -25.4516  -48.1474 H         1 UNK         0.3000 
    206 H206       -4.8750  -24.7584  -49.8002 H         1 UNK         0.0600 
    207 H207       -5.8356  -27.0704  -49.7213 H         1 UNK         0.0600 
    208 H208       -5.9296  -26.3702  -51.3291 H         1 UNK         0.0600 
    209 H209       -4.7077  -27.5830  -50.9763 H         1 UNK         0.0600 
    210 H210       -2.1924  -24.1290  -49.9466 H         1 UNK         0.3000 
    211 H211       -1.7221  -23.7285  -52.8541 H         1 UNK         0.0600 
    212 H212        0.3238  -24.7659  -50.8154 H         1 UNK         0.0600 
    213 H213        0.6870  -24.2642  -52.4649 H         1 UNK         0.0600 
    214 H214       -0.3235  -25.6748  -52.1789 H         1 UNK         0.0600 
    215 H215       -2.9207  -21.7841  -51.9926 H         1 UNK         0.3000 
    216 H216       -1.0600  -19.7562  -50.8797 H         1 UNK         0.0600 
    217 H217       -3.0104  -18.9113  -49.4904 H         1 UNK         0.0600 
    218 H218       -2.4750  -20.4983  -48.9909 H         1 UNK         0.0600 
    219 H219       -3.9385  -20.3287  -49.9541 H         1 UNK         0.0600 
    220 H220       -2.0324  -17.5616  -51.1489 H         1 UNK         0.3000 
    221 H221       -2.4185  -16.9223  -53.8415 H         1 UNK         0.0600 
    222 H222       -2.9662  -15.2891  -51.3281 H         1 UNK         0.0600 
    223 H223       -1.4554  -15.3377  -52.2328 H         1 UNK         0.0600 
    224 H224       -2.8885  -14.6253  -52.9529 H         1 UNK         0.0600 
    225 H225       -4.1194  -17.1549  -55.0823 H         1 UNK         0.3000 
    226 H226       -6.1057  -17.2043  -55.9848 H         1 UNK         0.0600 
    227 H227       -6.6979  -15.1059  -54.7442 H         1 UNK         0.0600 
    228 H228       -8.0919  -16.1345  -55.0309 H         1 UNK         0.0600 
    229 H229       -7.3697  -16.0766  -53.4332 H         1 UNK         0.0600 
    230 H230       -5.3237  -19.0952  -53.3173 H         1 UNK         0.3000 
    231 H231       -7.6704  -20.8708  -53.4432 H         1 UNK         0.0600 
    232 H232       -4.9933  -21.2387  -52.0014 H         1 UNK         0.0600 
    233 H233       -6.4367  -22.2152  -51.7985 H         1 UNK         0.0600 
    234 H234       -6.4403  -20.5347  -51.2833 H         1 UNK         0.0600 
    235 H235       -4.2634  -20.7666  -54.5229 H         1 UNK         0.3000 
    236 H236       -4.8798  -22.4731  -56.8062 H         1 UNK         0.0600 
    237 H237       -2.8448  -23.4477  -54.7380 H         1 UNK         0.0600 
    238 H238       -4.4007  -24.2080  -55.0613 H         1 UNK         0.0600 
    239 H239       -3.1541  -24.1953  -56.2971 H         1 UNK         0.0600 
    240 H240       -2.8093  -20.1456  -55.1841 H         1 UNK         0.3000 
    241 H241       -1.3548  -19.7208  -57.7082 H         1 UNK         0.0600 
    242 H242        0.2364  -17.4994  -56.9317 H         1 UNK         0.3800 
    243 H243       -0.8954  -16.2260  -56.5925 H         1 UNK         0.3800 
    244 H244        0.2011  -21.0700  -56.4810 H         1 UNK         0.0800 
    245 H245        0.8123  -19.4529  -56.4721 H         1 UNK         0.0800 
    246 H246        0.9501  -17.9344  -54.3381 H         1 UNK         0.0800 
    247 H247        2.2556  -19.0993  -54.2628 H         1 UNK         0.0800 
@<TRIPOS>BOND
     1    1    2 1    
     2    1  127 1    
     3    1  128 1    
     4    1  129 1    
     5    2    3 2    
     6    2    4 am   BACKBONE|DICT|INTERRES
     7    4    5 1    
     8    4  130 1    
     9    5    6 1    
    10    5   65 1    
    11    5  131 1    
    12    6    7 1    
    13    6  132 1    
    14    6  133 1    
    15    7    8 1    
    16    8    9 1    
    17    8  134 1    
    18    8  135 1    
    19    9   10 ar   
    20    9   14 ar   
    21   10   11 ar   
    22   10  136 1    
    23   11   12 ar   
    24   11  126 1    
    25   12   13 ar   
    26   12  137 1    
    27   13   14 ar   
    28   13   15 1    
    29   14  138 1    
    30   15   16 1    
    31   15  139 1    
    32   15  140 1    
    33   16   17 1    
    34   17   18 1    
    35   17  141 1    
    36   17  142 1    
    37   18   19 1    
    38   18   67 1    
    39   18  143 1    
    40   19   20 am   BACKBONE|DICT|INTERRES
    41   19  144 1    
    42   20   21 2    
    43   20   22 1    
    44   22   23 1    
    45   22   24 1    
    46   22  145 1    
    47   23  146 1    
    48   23  147 1    
    49   23  148 1    
    50   24   25 am   BACKBONE|DICT|INTERRES
    51   24  149 1    
    52   25   26 2    
    53   25   27 1    
    54   27   28 1    
    55   27   29 1    
    56   27  150 1    
    57   28  151 1    
    58   28  152 1    
    59   28  153 1    
    60   29   30 am   BACKBONE|DICT|INTERRES
    61   29  154 1    
    62   30   31 2    
    63   30   32 1    
    64   32   33 1    
    65   32   34 1    
    66   32  155 1    
    67   33  156 1    
    68   33  157 1    
    69   33  158 1    
    70   34   35 am   BACKBONE|DICT|INTERRES
    71   34  159 1    
    72   35   36 2    
    73   35   37 1    
    74   37   38 1    
    75   37   39 1    
    76   37  160 1    
    77   38  161 1    
    78   38  162 1    
    79   38  163 1    
    80   39   40 am   BACKBONE|DICT|INTERRES
    81   39  164 1    
    82   40   41 2    
    83   40   42 1    
    84   42   43 1    
    85   42   44 1    
    86   42  165 1    
    87   43  166 1    
    88   43  167 1    
    89   43  168 1    
    90   44   45 am   BACKBONE|DICT|INTERRES
    91   44  169 1    
    92   45   46 2    
    93   45   47 1    
    94   47   48 1    
    95   47   49 1    
    96   47  170 1    
    97   48  171 1    
    98   48  172 1    
    99   48  173 1    
   100   49   50 am   BACKBONE|DICT|INTERRES
   101   49  174 1    
   102   50   51 2    
   103   50   52 1    
   104   52   53 1    
   105   52   54 1    
   106   52  175 1    
   107   53  176 1    
   108   53  177 1    
   109   53  178 1    
   110   54   55 am   BACKBONE|DICT|INTERRES
   111   54  179 1    
   112   55   56 2    
   113   55   57 1    
   114   57   58 1    
   115   57   59 1    
   116   57  180 1    
   117   58  181 1    
   118   58  182 1    
   119   58  183 1    
   120   59   60 am   BACKBONE|DICT|INTERRES
   121   59  184 1    
   122   60   61 2    
   123   60   62 1    
   124   62   63 1    
   125   62   64 1    
   126   62  185 1    
   127   63  186 1    
   128   63  187 1    
   129   63  188 1    
   130   64   65 am   BACKBONE|DICT|INTERRES
   131   64  189 1    
   132   65   66 2    
   133   67   68 2    
   134   67   69 am   BACKBONE|DICT|INTERRES
   135   69   70 1    
   136   69  190 1    
   137   70   71 1    
   138   70   72 1    
   139   70  191 1    
   140   71  192 1    
   141   71  193 1    
   142   71  194 1    
   143   72   73 2    
   144   72   74 am   BACKBONE|DICT|INTERRES
   145   74   75 1    
   146   74  195 1    
   147   75   76 1    
   148   75   77 1    
   149   75  196 1    
   150   76  197 1    
   151   76  198 1    
   152   76  199 1    
   153   77   78 2    
   154   77   79 am   BACKBONE|DICT|INTERRES
   155   79   80 1    
   156   79  200 1    
   157   80   81 1    
   158   80   82 1    
   159   80  201 1    
   160   81  202 1    
   161   81  203 1    
   162   81  204 1    
   163   82   83 2    
   164   82   84 am   BACKBONE|DICT|INTERRES
   165   84   85 1    
   166   84  205 1    
   167   85   86 1    
   168   85   87 1    
   169   85  206 1    
   170   86  207 1    
   171   86  208 1    
   172   86  209 1    
   173   87   88 2    
   174   87   89 am   BACKBONE|DICT|INTERRES
   175   89   90 1    
   176   89  210 1    
   177   90   91 1    
   178   90   92 1    
   179   90  211 1    
   180   91  212 1    
   181   91  213 1    
   182   91  214 1    
   183   92   93 2    
   184   92   94 am   BACKBONE|DICT|INTERRES
   185   94   95 1    
   186   94  215 1    
   187   95   96 1    
   188   95   97 1    
   189   95  216 1    
   190   96  217 1    
   191   96  218 1    
   192   96  219 1    
   193   97   98 2    
   194   97   99 am   BACKBONE|DICT|INTERRES
   195   99  100 1    
   196   99  220 1    
   197  100  101 1    
   198  100  102 1    
   199  100  221 1    
   200  101  222 1    
   201  101  223 1    
   202  101  224 1    
   203  102  103 2    
   204  102  104 am   BACKBONE|DICT|INTERRES
   205  104  105 1    
   206  104  225 1    
   207  105  106 1    
   208  105  107 1    
   209  105  226 1    
   210  106  227 1    
   211  106  228 1    
   212  106  229 1    
   213  107  108 2    
   214  107  109 am   BACKBONE|DICT|INTERRES
   215  109  110 1    
   216  109  230 1    
   217  110  111 1    
   218  110  112 1    
   219  110  231 1    
   220  111  232 1    
   221  111  233 1    
   222  111  234 1    
   223  112  113 2    
   224  112  114 am   BACKBONE|DICT|INTERRES
   225  114  115 1    
   226  114  235 1    
   227  115  116 1    
   228  115  117 1    
   229  115  236 1    
   230  116  237 1    
   231  116  238 1    
   232  116  239 1    
   233  117  118 2    
   234  117  119 am   BACKBONE|DICT|INTERRES
   235  119  120 1    
   236  119  240 1    
   237  120  121 1    
   238  120  124 1    
   239  120  241 1    
   240  121  122 am   BACKBONE|DICT|INTERRES
   241  121  123 2    
   242  122  242 1    
   243  122  243 1    
   244  124  125 1    
   245  124  244 1    
   246  124  245 1    
   247  125  126 1    
   248  126  246 1    
   249  126  247 1    
@<TRIPOS>SUBSTRUCTURE
     1 UNK         1 GROUP             0       ****    0 ROOT    
