@<TRIPOS>MOLECULE
3R540
247   249    1
SMALL
USER_CHARGES


@<TRIPOS>ATOM
      1 CA          0.9854  -16.1091  -46.9552 C.3       0 UNK        -0.1800 
      2 C           0.2480  -14.9218  -47.5510 C.2       0 UNK         0.5000 
      3 O           0.8559  -14.0952  -48.2314 O.2       0 UNK        -0.5000 
      4 N          -1.0622  -14.8434  -47.2900 N.am      1 UNK        -0.5000 
      5 CA         -2.0258  -13.8563  -47.7973 C.3       1 UNK         0.1400 
      6 C6         -2.2190  -13.8840  -49.3398 C.3       23 UNK        -0.0398 
      7 S7         -2.5902  -15.5608  -49.9605 S.3       23 UNK        -0.2404 
      8 C8         -1.1788  -15.8576  -51.0711 C.3       23 UNK        -0.0205 
      9 C9         -0.8812  -17.3421  -51.1980 C.ar      23 UNK        -0.0193 
     10 C10        -1.6995  -18.1666  -51.9778 C.ar      23 UNK        -0.1150 
     11 C11        -1.4314  -19.5348  -52.0760 C.ar      23 UNK        -0.0193 
     12 C12        -0.3301  -20.0703  -51.4043 C.ar      23 UNK        -0.1150 
     13 C13         0.5011  -19.2570  -50.6307 C.ar      23 UNK        -0.0193 
     14 C14         0.2189  -17.8917  -50.5314 C.ar      23 UNK        -0.1150 
     15 C15         1.7007  -19.8631  -49.9103 C.3       23 UNK        -0.0205 
     16 S16         1.6772  -19.5940  -48.1063 S.3       23 UNK        -0.2404 
     17 C17         0.0857  -20.3390  -47.6207 C.3       23 UNK        -0.0398 
     18 CA          0.2386  -21.7699  -47.0585 C.3       11 UNK         0.1400 
     19 N           0.8792  -21.7977  -45.7407 N.am      11 UNK        -0.5000 
     20 C           1.2344  -22.9130  -45.0872 C.2       10 UNK         0.5000 
     21 O           1.1028  -24.0463  -45.5481 O.2       10 UNK        -0.5000 
     22 CA          1.7585  -22.7420  -43.6506 C.3       10 UNK         0.1400 
     23 CB          3.2147  -22.2537  -43.6405 C.3       10 UNK        -0.1800 
     24 N           0.9171  -21.8406  -42.8623 N.am      10 UNK        -0.5000 
     25 C          -0.3635  -22.0907  -42.5510 C.2       9 UNK         0.5000 
     26 O          -0.9460  -23.1353  -42.8460 O.2       9 UNK        -0.5000 
     27 CA         -1.1362  -20.9748  -41.8241 C.3       9 UNK         0.1400 
     28 CB         -0.8441  -21.0068  -40.3167 C.3       9 UNK        -0.1800 
     29 N          -0.8467  -19.6415  -42.3545 N.am      9 UNK        -0.5000 
     30 C          -1.1302  -19.2380  -43.6013 C.2       8 UNK         0.5000 
     31 O          -1.7100  -19.9363  -44.4307 O.2       8 UNK        -0.5000 
     32 CA         -0.6248  -17.8460  -44.0200 C.3       8 UNK         0.1400 
     33 CB         -1.5540  -16.7347  -43.5132 C.3       8 UNK        -0.1800 
     34 N           0.7460  -17.5889  -43.5794 N.am      8 UNK        -0.5000 
     35 C           1.8092  -18.3125  -43.9581 C.2       7 UNK         0.5000 
     36 O           1.7489  -19.2542  -44.7457 O.2       7 UNK        -0.5000 
     37 CA          3.1533  -17.9621  -43.3026 C.3       7 UNK         0.1400 
     38 CB          3.8066  -16.7531  -43.9904 C.3       7 UNK        -0.1800 
     39 N           2.9953  -17.7018  -41.8724 N.am      7 UNK        -0.5000 
     40 C           2.7207  -18.6474  -40.9623 C.2       6 UNK         0.5000 
     41 O           2.6256  -19.8458  -41.2288 O.2       6 UNK        -0.5000 
     42 CA          2.4705  -18.1664  -39.5206 C.3       6 UNK         0.1400 
     43 CB          3.7996  -17.9646  -38.7777 C.3       6 UNK        -0.1800 
     44 N           1.6911  -16.9280  -39.4659 N.am      6 UNK        -0.5000 
     45 C           0.4105  -16.8243  -39.8482 C.2       5 UNK         0.5000 
     46 O          -0.2597  -17.7742  -40.2492 O.2       5 UNK        -0.5000 
     47 CA         -0.2164  -15.4173  -39.8228 C.3       5 UNK         0.1400 
     48 CB         -0.8377  -15.1322  -38.4476 C.3       5 UNK        -0.1800 
     49 N           0.7132  -14.3369  -40.1676 N.am      5 UNK        -0.5000 
     50 C           1.4043  -14.2448  -41.3119 C.2       4 UNK         0.5000 
     51 O           1.3920  -15.1115  -42.1892 O.2       4 UNK        -0.5000 
     52 CA          2.3001  -12.9985  -41.4580 C.3       4 UNK         0.1400 
     53 CB          3.5922  -13.1839  -40.6456 C.3       4 UNK        -0.1800 
     54 N           2.6683  -12.6902  -42.8419 N.am      4 UNK        -0.5000 
     55 C           1.8190  -12.4124  -43.8400 C.2       3 UNK         0.5000 
     56 O           0.5930  -12.3731  -43.7054 O.2       3 UNK        -0.5000 
     57 CA          2.4717  -12.1227  -45.2098 C.3       3 UNK         0.1400 
     58 CB          3.2978  -13.3217  -45.7070 C.3       3 UNK        -0.1800 
     59 N           1.4868  -11.7770  -46.2350 N.am      3 UNK        -0.5000 
     60 C           0.8538  -10.5985  -46.3288 C.2       2 UNK         0.5000 
     61 O           1.0970   -9.6334  -45.6025 O.2       2 UNK        -0.5000 
     62 CA         -0.2248  -10.4653  -47.4217 C.3       2 UNK         0.1400 
     63 CB          0.3394   -9.7268  -48.6455 C.3       2 UNK        -0.1800 
     64 N          -0.7361  -11.7661  -47.8532 N.am      2 UNK        -0.5000 
     65 C          -1.7338  -12.4369  -47.2643 C.2       1 UNK         0.5000 
     66 O          -2.4023  -11.9893  -46.3317 O.2       1 UNK        -0.5000 
     67 C          -1.1245  -22.4887  -47.0531 C.2       11 UNK         0.5000 
     68 O          -1.3943  -23.2581  -47.9734 O.2       11 UNK        -0.5000 
     69 N          -1.9498  -22.2574  -46.0212 N.am      12 UNK        -0.5000 
     70 CA         -3.2496  -22.9049  -45.8278 C.3       12 UNK         0.1400 
     71 CB         -3.9612  -22.3125  -44.6035 C.3       12 UNK        -0.1800 
     72 C          -3.1550  -24.4362  -45.7283 C.2       12 UNK         0.5000 
     73 O          -3.9767  -25.1299  -46.3276 O.2       12 UNK        -0.5000 
     74 N          -2.1362  -24.9282  -45.0135 N.am      13 UNK        -0.5000 
     75 CA         -1.8280  -26.3509  -44.9018 C.3       13 UNK         0.1400 
     76 CB         -0.8549  -26.5674  -43.7322 C.3       13 UNK        -0.1800 
     77 C          -1.2573  -26.9407  -46.2059 C.2       13 UNK         0.5000 
     78 O          -1.6750  -28.0258  -46.6124 O.2       13 UNK        -0.5000 
     79 N          -0.2976  -26.2358  -46.8196 N.am      14 UNK        -0.5000 
     80 CA          0.4826  -26.7344  -47.9512 C.3       14 UNK         0.1400 
     81 CB          1.8231  -25.9846  -48.0092 C.3       14 UNK        -0.1800 
     82 C          -0.2304  -26.6358  -49.3104 C.2       14 UNK         0.5000 
     83 O          -0.1176  -27.5666  -50.1098 O.2       14 UNK        -0.5000 
     84 N          -0.8909  -25.5020  -49.5770 N.am      15 UNK        -0.5000 
     85 CA         -1.3057  -25.1007  -50.9253 C.3       15 UNK         0.1400 
     86 CB         -0.2643  -24.1033  -51.4628 C.3       15 UNK        -0.1800 
     87 C          -2.7225  -24.5049  -51.0043 C.2       15 UNK         0.5000 
     88 O          -3.1910  -24.2690  -52.1176 O.2       15 UNK        -0.5000 
     89 N          -3.3709  -24.2775  -49.8524 N.am      16 UNK        -0.5000 
     90 CA         -4.6589  -23.6000  -49.6683 C.3       16 UNK         0.1400 
     91 CB         -5.8030  -24.3120  -50.4208 C.3       16 UNK        -0.1800 
     92 C          -4.5512  -22.1029  -50.0193 C.2       16 UNK         0.5000 
     93 O          -4.8164  -21.7065  -51.1548 O.2       16 UNK        -0.5000 
     94 N          -4.1313  -21.3049  -49.0271 N.am      17 UNK        -0.5000 
     95 CA         -3.9510  -19.8524  -49.0912 C.3       17 UNK         0.1400 
     96 CB         -3.5913  -19.3333  -47.6894 C.3       17 UNK        -0.1800 
     97 C          -5.1825  -19.0929  -49.6230 C.2       17 UNK         0.5000 
     98 O          -6.3186  -19.5002  -49.3711 O.2       17 UNK        -0.5000 
     99 N          -4.9121  -17.9895  -50.3301 N.am      18 UNK        -0.5000 
    100 CA        -5.8594  -17.0649  -50.9648 C.3       18 UNK         0.1400 
    101 CB        -6.8309  -16.4522  -49.9348 C.3       18 UNK        -0.1800 
    102 C         -6.5882  -17.6261  -52.2046 C.2       18 UNK         0.5000 
    103 O         -7.4164  -16.9164  -52.7785 O.2       18 UNK        -0.5000 
    104 N         -6.2533  -18.8501  -52.6386 N.am      19 UNK        -0.5000 
    105 CA        -6.6744  -19.4048  -53.9249 C.3       19 UNK         0.1400 
    106 CB        -6.4066  -20.9154  -53.9457 C.3       19 UNK        -0.1800 
    107 C         -5.9395  -18.7014  -55.0812 C.2       19 UNK         0.5000 
    108 O         -4.7484  -18.4051  -54.9616 O.2       19 UNK        -0.5000 
    109 N         -6.6641  -18.4430  -56.1754 N.am      20 UNK        -0.5000 
    110 CA        -6.1890  -17.6486  -57.3112 C.3       20 UNK         0.1400 
    111 CB        -7.4068  -17.1739  -58.1202 C.3       20 UNK        -0.1800 
    112 C         -5.1910  -18.3789  -58.2305 C.2       20 UNK         0.5000 
    113 O         -4.4803  -17.7133  -58.9855 O.2       20 UNK        -0.5000 
    114 N         -5.1666  -19.7164  -58.1803 N.am      21 UNK        -0.5000 
    115 CA        -4.3734  -20.5626  -59.0709 C.3       21 UNK         0.1400 
    116 CB        -5.1736  -20.8542  -60.3565 C.3       21 UNK        -0.1800 
    117 C         -3.9001  -21.8332  -58.3462 C.2       21 UNK         0.5000 
    118 O         -4.0226  -22.9348  -58.8860 O.2       21 UNK        -0.5000 
    119 N         -3.3738  -21.6645  -57.1268 N.am      22 UNK        -0.5000 
    120 CA        -2.6991  -22.7315  -56.3704 C.3       22 UNK         0.1400 
    121 C         -1.3457  -23.1804  -56.9985 C.2       22 UNK         0.5000 
    122 N         -0.8894  -24.3893  -56.6977 N.am      22 UNK        -0.7600 
    123 O         -0.6947  -22.4434  -57.7370 O.2       22 UNK        -0.5000 
    124 C124       -2.5517  -22.3795  -54.8692 C.3       23 UNK        -0.0398 
    125 S125       -1.6667  -20.8199  -54.5187 S.3       23 UNK        -0.2404 
    126 C126       -2.3419  -20.4531  -52.8724 C.3       23 UNK        -0.0205 
    127 H127        0.4266  -17.0295  -47.1213 H         1 UNK         0.0600 
    128 H128        1.9680  -16.2259  -47.4124 H         1 UNK         0.0600 
    129 H129        1.1187  -15.9710  -45.8832 H         1 UNK         0.0600 
    130 H130       -1.4733  -15.5512  -46.6996 H         1 UNK         0.3000 
    131 H131       -2.9824  -14.1487  -47.3605 H         1 UNK         0.0600 
    132 H132       -3.0489  -13.2347  -49.6231 H         1 UNK         0.0800 
    133 H133       -1.3436  -13.4898  -49.8567 H         1 UNK         0.0800 
    134 H134       -0.2943  -15.3381  -50.6990 H         1 UNK         0.0800 
    135 H135       -1.3949  -15.4350  -52.0533 H         1 UNK         0.0800 
    136 H136       -2.5486  -17.7458  -52.4988 H         1 UNK         0.1150 
    137 H137       -0.1212  -21.1254  -51.4908 H         1 UNK         0.1150 
    138 H138        0.8560  -17.2595  -49.9288 H         1 UNK         0.1150 
    139 H139        1.7657  -20.9357  -50.1000 H         1 UNK         0.0800 
    140 H140        2.6123  -19.4245  -50.3178 H         1 UNK         0.0800 
    141 H141       -0.5883  -20.3274  -48.4778 H         1 UNK         0.0800 
    142 H142       -0.3709  -19.6874  -46.8749 H         1 UNK         0.0800 
    143 H143        0.8808  -22.3320  -47.7400 H         1 UNK         0.0600 
    144 H144        1.0679  -20.8945  -45.3103 H         1 UNK         0.3000 
    145 H145        1.7318  -23.7228  -43.1711 H         1 UNK         0.0600 
    146 H146        3.6002  -22.1871  -42.6230 H         1 UNK         0.0600 
    147 H147        3.8587  -22.9424  -44.1885 H         1 UNK         0.0600 
    148 H148        3.3192  -21.2722  -44.1016 H         1 UNK         0.0600 
    149 H149        1.3380  -20.9710  -42.5570 H         1 UNK         0.3000 
    150 H150       -2.2021  -21.1633  -41.9655 H         1 UNK         0.0600 
    151 H151       -1.0566  -21.9910  -39.8974 H         1 UNK         0.0600 
    152 H152       -1.4614  -20.2854  -39.7812 H         1 UNK         0.0600 
    153 H153        0.2002  -20.7760  -40.1039 H         1 UNK         0.0600 
    154 H154       -0.4172  -18.9820  -41.7110 H         1 UNK         0.3000 
    155 H155       -0.6303  -17.8147  -45.1103 H         1 UNK         0.0600 
    156 H156       -1.6289  -16.7389  -42.4265 H         1 UNK         0.0600 
    157 H157       -2.5619  -16.8603  -43.9105 H         1 UNK         0.0600 
    158 H158       -1.1999  -15.7505  -43.8218 H         1 UNK         0.0600 
    159 H159        0.8936  -16.8019  -42.9530 H         1 UNK         0.3000 
    160 H160        3.8191  -18.8192  -43.4245 H         1 UNK         0.0600 
    161 H161        4.7848  -16.5364  -43.5613 H         1 UNK         0.0600 
    162 H162        3.1968  -15.8547  -43.9025 H         1 UNK         0.0600 
    163 H163        3.9524  -16.9440  -45.0544 H         1 UNK         0.0600 
    164 H164        2.9727  -16.7324  -41.5900 H         1 UNK         0.3000 
    165 H165        1.9057  -18.9456  -39.0041 H         1 UNK         0.0600 
    166 H166        3.6312  -17.7015  -37.7332 H         1 UNK         0.0600 
    167 H167        4.3954  -18.8783  -38.7896 H         1 UNK         0.0600 
    168 H168        4.4002  -17.1748  -39.2307 H         1 UNK         0.0600 
    169 H169        2.1686  -16.0973  -39.1493 H         1 UNK         0.3000 
    170 H170       -1.0172  -15.4031  -40.5639 H         1 UNK         0.0600 
    171 H171       -1.5523  -15.9095  -38.1730 H         1 UNK         0.0600 
    172 H172       -0.0803  -15.0909  -37.6638 H         1 UNK         0.0600 
    173 H173       -1.3759  -14.1841  -38.4459 H         1 UNK         0.0600 
    174 H174        0.7963  -13.5922  -39.4907 H         1 UNK         0.3000 
    175 H175        1.7539  -12.1397  -41.0631 H         1 UNK         0.0600 
    176 H176        4.1810  -14.0251  -41.0144 H         1 UNK         0.0600 
    177 H177        4.2178  -12.2920  -40.6897 H         1 UNK         0.0600 
    178 H178        3.3765  -13.3713  -39.5930 H         1 UNK         0.0600 
    179 H179        3.6556  -12.7184  -43.0475 H         1 UNK         0.3000 
    180 H180        3.1460  -11.2732  -45.0830 H         1 UNK         0.0600 
    181 H181        2.6985  -14.2287  -45.7520 H         1 UNK         0.0600 
    182 H182        4.1444  -13.5235  -45.0503 H         1 UNK         0.0600 
    183 H183        3.7023  -13.1390  -46.7028 H         1 UNK         0.0600 
    184 H184        1.2168  -12.5197  -46.8680 H         1 UNK         0.3000 
    185 H185       -1.0434   -9.8701  -47.0114 H         1 UNK         0.0600 
    186 H186        0.7112   -8.7393  -48.3689 H         1 UNK         0.0600 
    187 H187        1.1661  -10.2739  -49.1003 H         1 UNK         0.0600 
    188 H188       -0.4275   -9.5828  -49.4068 H         1 UNK         0.0600 
    189 H189       -0.1831  -12.2606  -48.5429 H         1 UNK         0.3000 
    190 H190       -1.6872  -21.5617  -45.3260 H         1 UNK         0.3000 
    191 H191       -3.8623  -22.6777  -46.6979 H         1 UNK         0.0600 
    192 H192       -3.3947  -22.4770  -43.6879 H         1 UNK         0.0600 
    193 H193       -4.9436  -22.7659  -44.4658 H         1 UNK         0.0600 
    194 H194       -4.1131  -21.2390  -44.7164 H         1 UNK         0.0600 
    195 H195       -1.5269  -24.2840  -44.5206 H         1 UNK         0.3000 
    196 H196       -2.7529  -26.8840  -44.6714 H         1 UNK         0.0600 
    197 H197       -0.6168  -27.6249  -43.6119 H         1 UNK         0.0600 
    198 H198       -1.2864  -26.2211  -42.7929 H         1 UNK         0.0600 
    199 H199        0.0839  -26.0333  -43.8829 H         1 UNK         0.0600 
    200 H200        0.0213  -25.3671  -46.3979 H         1 UNK         0.3000 
    201 H201        0.7062  -27.7889  -47.7746 H         1 UNK         0.0600 
    202 H202        2.3884  -26.1163  -47.0864 H         1 UNK         0.0600 
    203 H203        1.6793  -24.9143  -48.1631 H         1 UNK         0.0600 
    204 H204        2.4444  -26.3536  -48.8263 H         1 UNK         0.0600 
    205 H205       -0.9494  -24.7810  -48.8609 H         1 UNK         0.3000 
    206 H206       -1.3203  -25.9658  -51.5912 H         1 UNK         0.0600 
    207 H207        0.7098  -24.5784  -51.5796 H         1 UNK         0.0600 
    208 H208       -0.5490  -23.7056  -52.4375 H         1 UNK         0.0600 
    209 H209       -0.1432  -23.2618  -50.7809 H         1 UNK         0.0600 
    210 H210       -2.8575  -24.4567  -48.9994 H         1 UNK         0.3000 
    211 H211       -4.8936  -23.6753  -48.6063 H         1 UNK         0.0600 
    212 H212       -5.6946  -24.2475  -51.5035 H         1 UNK         0.0600 
    213 H213       -6.7641  -23.8626  -50.1691 H         1 UNK         0.0600 
    214 H214       -5.8553  -25.3666  -50.1507 H         1 UNK         0.0600 
    215 H215       -3.9241  -21.7258  -48.1368 H         1 UNK         0.3000 
    216 H216       -3.1078  -19.6658  -49.7576 H         1 UNK         0.0600 
    217 H217       -3.3694  -18.2654  -47.7123 H         1 UNK         0.0600 
    218 H218       -2.7150  -19.8344  -47.2858 H         1 UNK         0.0600 
    219 H219       -4.4097  -19.4834  -46.9839 H         1 UNK         0.0600 
    220 H220       -3.9417  -17.7275  -50.4433 H         1 UNK         0.3000 
    221 H221       -5.2463  -16.2470  -51.3454 H         1 UNK         0.0600 
    222 H222       -7.5473  -17.1845  -49.5625 H         1 UNK         0.0600 
    223 H223       -6.2920  -16.0418  -49.0807 H         1 UNK         0.0600 
    224 H224       -7.4040  -15.6364  -50.3767 H         1 UNK         0.0600 
    225 H225       -5.5759  -19.3861  -52.1152 H         1 UNK         0.3000 
    226 H226       -7.7493  -19.2462  -54.0356 H         1 UNK         0.0600 
    227 H227       -6.9568  -21.4244  -53.1539 H         1 UNK         0.0600 
    228 H228       -5.3494  -21.1322  -53.8054 H         1 UNK         0.0600 
    229 H229       -6.7123  -21.3584  -54.8941 H         1 UNK         0.0600 
    230 H230       -7.6329  -18.7276  -56.2029 H         1 UNK         0.3000 
    231 H231       -5.6796  -16.7650  -56.9204 H         1 UNK         0.0600 
    232 H232       -8.0839  -16.5816  -57.5044 H         1 UNK         0.0600 
    233 H233       -7.9702  -18.0137  -58.5292 H         1 UNK         0.0600 
    234 H234       -7.1005  -16.5459  -58.9580 H         1 UNK         0.0600 
    235 H235       -5.7631  -20.1920  -57.5181 H         1 UNK         0.3000 
    236 H236       -3.4606  -20.0352  -59.3562 H         1 UNK         0.0600 
    237 H237       -4.5924  -21.4588  -61.0538 H         1 UNK         0.0600 
    238 H238       -6.0962  -21.3937  -60.1393 H         1 UNK         0.0600 
    239 H239       -5.4388  -19.9328  -60.8750 H         1 UNK         0.0600 
    240 H240       -3.2801  -20.7300  -56.7547 H         1 UNK         0.3000 
    241 H241       -3.3549  -23.6035  -56.4191 H         1 UNK         0.0600 
    242 H242       -0.0110  -24.6906  -57.0908 H         1 UNK         0.3800 
    243 H243       -1.4023  -25.0179  -56.0990 H         1 UNK         0.3800 
    244 H244       -3.5438  -22.3279  -54.4225 H         1 UNK         0.0800 
    245 H245       -2.0444  -23.1855  -54.3376 H         1 UNK         0.0800 
    246 H246       -3.3350  -20.0147  -52.9773 H         1 UNK         0.0800 
    247 H247       -2.4701  -21.3855  -52.3207 H         1 UNK         0.0800 
@<TRIPOS>BOND
     1    1    2 1    
     2    1  127 1    
     3    1  128 1    
     4    1  129 1    
     5    2    3 2    
     6    2    4 am   BACKBONE|DICT|INTERRES
     7    4    5 1    
     8    4  130 1    
     9    5    6 1    
    10    5   65 1    
    11    5  131 1    
    12    6    7 1    
    13    6  132 1    
    14    6  133 1    
    15    7    8 1    
    16    8    9 1    
    17    8  134 1    
    18    8  135 1    
    19    9   10 ar   
    20    9   14 ar   
    21   10   11 ar   
    22   10  136 1    
    23   11   12 ar   
    24   11  126 1    
    25   12   13 ar   
    26   12  137 1    
    27   13   14 ar   
    28   13   15 1    
    29   14  138 1    
    30   15   16 1    
    31   15  139 1    
    32   15  140 1    
    33   16   17 1    
    34   17   18 1    
    35   17  141 1    
    36   17  142 1    
    37   18   19 1    
    38   18   67 1    
    39   18  143 1    
    40   19   20 am   BACKBONE|DICT|INTERRES
    41   19  144 1    
    42   20   21 2    
    43   20   22 1    
    44   22   23 1    
    45   22   24 1    
    46   22  145 1    
    47   23  146 1    
    48   23  147 1    
    49   23  148 1    
    50   24   25 am   BACKBONE|DICT|INTERRES
    51   24  149 1    
    52   25   26 2    
    53   25   27 1    
    54   27   28 1    
    55   27   29 1    
    56   27  150 1    
    57   28  151 1    
    58   28  152 1    
    59   28  153 1    
    60   29   30 am   BACKBONE|DICT|INTERRES
    61   29  154 1    
    62   30   31 2    
    63   30   32 1    
    64   32   33 1    
    65   32   34 1    
    66   32  155 1    
    67   33  156 1    
    68   33  157 1    
    69   33  158 1    
    70   34   35 am   BACKBONE|DICT|INTERRES
    71   34  159 1    
    72   35   36 2    
    73   35   37 1    
    74   37   38 1    
    75   37   39 1    
    76   37  160 1    
    77   38  161 1    
    78   38  162 1    
    79   38  163 1    
    80   39   40 am   BACKBONE|DICT|INTERRES
    81   39  164 1    
    82   40   41 2    
    83   40   42 1    
    84   42   43 1    
    85   42   44 1    
    86   42  165 1    
    87   43  166 1    
    88   43  167 1    
    89   43  168 1    
    90   44   45 am   BACKBONE|DICT|INTERRES
    91   44  169 1    
    92   45   46 2    
    93   45   47 1    
    94   47   48 1    
    95   47   49 1    
    96   47  170 1    
    97   48  171 1    
    98   48  172 1    
    99   48  173 1    
   100   49   50 am   BACKBONE|DICT|INTERRES
   101   49  174 1    
   102   50   51 2    
   103   50   52 1    
   104   52   53 1    
   105   52   54 1    
   106   52  175 1    
   107   53  176 1    
   108   53  177 1    
   109   53  178 1    
   110   54   55 am   BACKBONE|DICT|INTERRES
   111   54  179 1    
   112   55   56 2    
   113   55   57 1    
   114   57   58 1    
   115   57   59 1    
   116   57  180 1    
   117   58  181 1    
   118   58  182 1    
   119   58  183 1    
   120   59   60 am   BACKBONE|DICT|INTERRES
   121   59  184 1    
   122   60   61 2    
   123   60   62 1    
   124   62   63 1    
   125   62   64 1    
   126   62  185 1    
   127   63  186 1    
   128   63  187 1    
   129   63  188 1    
   130   64   65 am   BACKBONE|DICT|INTERRES
   131   64  189 1    
   132   65   66 2    
   133   67   68 2    
   134   67   69 am   BACKBONE|DICT|INTERRES
   135   69   70 1    
   136   69  190 1    
   137   70   71 1    
   138   70   72 1    
   139   70  191 1    
   140   71  192 1    
   141   71  193 1    
   142   71  194 1    
   143   72   73 2    
   144   72   74 am   BACKBONE|DICT|INTERRES
   145   74   75 1    
   146   74  195 1    
   147   75   76 1    
   148   75   77 1    
   149   75  196 1    
   150   76  197 1    
   151   76  198 1    
   152   76  199 1    
   153   77   78 2    
   154   77   79 am   BACKBONE|DICT|INTERRES
   155   79   80 1    
   156   79  200 1    
   157   80   81 1    
   158   80   82 1    
   159   80  201 1    
   160   81  202 1    
   161   81  203 1    
   162   81  204 1    
   163   82   83 2    
   164   82   84 am   BACKBONE|DICT|INTERRES
   165   84   85 1    
   166   84  205 1    
   167   85   86 1    
   168   85   87 1    
   169   85  206 1    
   170   86  207 1    
   171   86  208 1    
   172   86  209 1    
   173   87   88 2    
   174   87   89 am   BACKBONE|DICT|INTERRES
   175   89   90 1    
   176   89  210 1    
   177   90   91 1    
   178   90   92 1    
   179   90  211 1    
   180   91  212 1    
   181   91  213 1    
   182   91  214 1    
   183   92   93 2    
   184   92   94 am   BACKBONE|DICT|INTERRES
   185   94   95 1    
   186   94  215 1    
   187   95   96 1    
   188   95   97 1    
   189   95  216 1    
   190   96  217 1    
   191   96  218 1    
   192   96  219 1    
   193   97   98 2    
   194   97   99 am   BACKBONE|DICT|INTERRES
   195   99  100 1    
   196   99  220 1    
   197  100  101 1    
   198  100  102 1    
   199  100  221 1    
   200  101  222 1    
   201  101  223 1    
   202  101  224 1    
   203  102  103 2    
   204  102  104 am   BACKBONE|DICT|INTERRES
   205  104  105 1    
   206  104  225 1    
   207  105  106 1    
   208  105  107 1    
   209  105  226 1    
   210  106  227 1    
   211  106  228 1    
   212  106  229 1    
   213  107  108 2    
   214  107  109 am   BACKBONE|DICT|INTERRES
   215  109  110 1    
   216  109  230 1    
   217  110  111 1    
   218  110  112 1    
   219  110  231 1    
   220  111  232 1    
   221  111  233 1    
   222  111  234 1    
   223  112  113 2    
   224  112  114 am   BACKBONE|DICT|INTERRES
   225  114  115 1    
   226  114  235 1    
   227  115  116 1    
   228  115  117 1    
   229  115  236 1    
   230  116  237 1    
   231  116  238 1    
   232  116  239 1    
   233  117  118 2    
   234  117  119 am   BACKBONE|DICT|INTERRES
   235  119  120 1    
   236  119  240 1    
   237  120  121 1    
   238  120  124 1    
   239  120  241 1    
   240  121  122 am   BACKBONE|DICT|INTERRES
   241  121  123 2    
   242  122  242 1    
   243  122  243 1    
   244  124  125 1    
   245  124  244 1    
   246  124  245 1    
   247  125  126 1    
   248  126  246 1    
   249  126  247 1    
@<TRIPOS>SUBSTRUCTURE
     1 UNK         1 GROUP             0       ****    0 ROOT    
