@<TRIPOS>MOLECULE
3R540
247   249    1
SMALL
USER_CHARGES


@<TRIPOS>ATOM
      1 CA          3.7253  -12.4923  -50.3148 C.3       0 UNK        -0.1800 
      2 C           2.9358  -13.1560  -49.1955 C.2       0 UNK         0.5000 
      3 O           3.1663  -12.8593  -48.0236 O.2       0 UNK        -0.5000 
      4 N           2.0121  -14.0555  -49.5552 N.am      1 UNK        -0.5000 
      5 CA          1.1177  -14.7669  -48.6368 C.3       1 UNK         0.1400 
      6 C6          0.4719  -16.0294  -49.2678 C.3       23 UNK        -0.0398 
      7 S7         -0.0679  -15.8671  -51.0124 S.3       23 UNK        -0.2404 
      8 C8          1.4250  -16.2692  -51.9957 C.3       23 UNK        -0.0205 
      9 C9          2.0872  -17.5844  -51.6053 C.ar      23 UNK        -0.0193 
     10 C10         1.6696  -18.7904  -52.1745 C.ar      23 UNK        -0.1150 
     11 C11         2.2643  -20.0067  -51.8040 C.ar      23 UNK        -0.0193 
     12 C12         3.3043  -19.9870  -50.8669 C.ar      23 UNK        -0.1150 
     13 C13         3.7329  -18.7863  -50.2897 C.ar      23 UNK        -0.0193 
     14 C14         3.1315  -17.5890  -50.6788 C.ar      23 UNK        -0.1150 
     15 C15         4.8417  -18.7652  -49.2447 C.3       23 UNK        -0.0205 
     16 S16         4.4906  -19.8132  -47.7950 S.3       23 UNK        -0.2404 
     17 C17         2.9011  -19.1559  -47.1635 C.3       23 UNK        -0.0398 
     18 CA          1.6622  -19.9305  -47.6868 C.3       11 UNK         0.1400 
     19 N           1.8580  -21.3780  -47.6539 N.am      11 UNK        -0.5000 
     20 C           1.1597  -22.2710  -48.3594 C.2       10 UNK         0.5000 
     21 O           0.2096  -21.9822  -49.0880 O.2       10 UNK        -0.5000 
     22 CA          1.6027  -23.7353  -48.1848 C.3       10 UNK         0.1400 
     23 CB          2.9152  -23.9894  -48.9455 C.3       10 UNK        -0.1800 
     24 N           1.7971  -24.1056  -46.7802 N.am      10 UNK        -0.5000 
     25 C           0.8284  -24.1193  -45.8557 C.2       9 UNK         0.5000 
     26 O          -0.3466  -23.8422  -46.0914 O.2       9 UNK        -0.5000 
     27 CA          1.2447  -24.4634  -44.4123 C.3       9 UNK         0.1400 
     28 CB          1.3596  -25.9855  -44.2369 C.3       9 UNK        -0.1800 
     29 N           2.4754  -23.8261  -43.9229 N.am      9 UNK        -0.5000 
     30 C           2.7901  -22.5269  -44.0200 C.2       8 UNK         0.5000 
     31 O           2.1925  -21.7222  -44.7348 O.2       8 UNK        -0.5000 
     32 CA          3.9827  -22.0340  -43.1780 C.3       8 UNK         0.1400 
     33 CB          5.2859  -22.1593  -43.9816 C.3       8 UNK        -0.1800 
     34 N           3.8114  -20.6357  -42.7695 N.am      8 UNK        -0.5000 
     35 C           2.7958  -20.1679  -42.0279 C.2       7 UNK         0.5000 
     36 O           1.9746  -20.9002  -41.4693 O.2       7 UNK        -0.5000 
     37 CA          2.6850  -18.6286  -41.9247 C.3       7 UNK         0.1400 
     38 CB          2.6875  -17.9746  -43.3195 C.3       7 UNK        -0.1800 
     39 N           1.4857  -18.1809  -41.2096 N.am      7 UNK        -0.5000 
     40 C           1.2867  -18.2895  -39.8870 C.2       6 UNK         0.5000 
     41 O           2.1355  -18.7348  -39.1123 O.2       6 UNK        -0.5000 
     42 CA         -0.0601  -17.7961  -39.3104 C.3       6 UNK         0.1400 
     43 CB          0.1647  -16.6364  -38.3255 C.3       6 UNK        -0.1800 
     44 N          -1.0101  -17.3501  -40.3308 N.am      6 UNK        -0.5000 
     45 C          -1.8285  -18.1400  -41.0392 C.2       5 UNK         0.5000 
     46 O          -1.9266  -19.3524  -40.8562 O.2       5 UNK        -0.5000 
     47 CA         -2.6753  -17.4651  -42.1441 C.3       5 UNK         0.1400 
     48 CB         -4.1519  -17.3860  -41.7296 C.3       5 UNK        -0.1800 
     49 N          -2.2155  -16.1203  -42.5118 N.am      5 UNK        -0.5000 
     50 C          -1.0413  -15.8416  -43.0900 C.2       4 UNK         0.5000 
     51 O          -0.2347  -16.7116  -43.4176 O.2       4 UNK        -0.5000 
     52 CA         -0.7170  -14.3489  -43.2967 C.3       4 UNK         0.1400 
     53 CB          0.7584  -14.1182  -43.6705 C.3       4 UNK        -0.1800 
     54 N          -1.5760  -13.7414  -44.3137 N.am      4 UNK        -0.5000 
     55 C          -2.8444  -13.3458  -44.1220 C.2       3 UNK         0.5000 
     56 O          -3.4257  -13.4717  -43.0424 O.2       3 UNK        -0.5000 
     57 CA         -3.5854  -12.7093  -45.3180 C.3       3 UNK         0.1400 
     58 CB         -4.5403  -11.5845  -44.8795 C.3       3 UNK        -0.1800 
     59 N          -2.6396  -12.1751  -46.2964 N.am      3 UNK        -0.5000 
     60 C          -2.6428  -12.4246  -47.6113 C.2       2 UNK         0.5000 
     61 O          -3.5094  -13.0829  -48.1867 O.2       2 UNK        -0.5000 
     62 CA         -1.4523  -11.8709  -48.4269 C.3       2 UNK         0.1400 
     63 CB         -0.6971  -10.7204  -47.7241 C.3       2 UNK        -0.1800 
     64 N          -0.5008  -12.9197  -48.8134 N.am      2 UNK        -0.5000 
     65 C           0.0702  -13.8291  -48.0068 C.2       1 UNK         0.5000 
     66 O          -0.1680  -13.9273  -46.8040 O.2       1 UNK        -0.5000 
     67 C           0.3822  -19.5401  -46.9245 C.2       11 UNK         0.5000 
     68 O          -0.3517  -18.6632  -47.3751 O.2       11 UNK        -0.5000 
     69 N           0.1107  -20.2363  -45.8128 N.am      12 UNK        -0.5000 
     70 CA         -1.1070  -20.1157  -45.0172 C.3       12 UNK         0.1400 
     71 CB         -0.9505  -20.9092  -43.7147 C.3       12 UNK        -0.1800 
     72 C          -2.3625  -20.5675  -45.7819 C.2       12 UNK         0.5000 
     73 O          -3.3928  -19.9034  -45.6848 O.2       12 UNK        -0.5000 
     74 N          -2.2547  -21.6568  -46.5583 N.am      13 UNK        -0.5000 
     75 CA         -3.3072  -22.1272  -47.4615 C.3       13 UNK         0.1400 
     76 CB         -2.9290  -23.4945  -48.0511 C.3       13 UNK        -0.1800 
     77 C          -3.5976  -21.1137  -48.5800 C.2       13 UNK         0.5000 
     78 O          -4.7619  -20.8343  -48.8641 O.2       13 UNK        -0.5000 
     79 N          -2.5373  -20.5383  -49.1599 N.am      14 UNK        -0.5000 
     80 CA         -2.6341  -19.4790  -50.1601 C.3       14 UNK         0.1400 
     81 CB         -1.2535  -19.2279  -50.7641 C.3       14 UNK        -0.1800 
     82 C          -3.2581  -18.1853  -49.6050 C.2       14 UNK         0.5000 
     83 O          -4.1168  -17.6001  -50.2645 O.2       14 UNK        -0.5000 
     84 N          -2.8788  -17.8070  -48.3760 N.am      15 UNK        -0.5000 
     85 CA         -3.4669  -16.7019  -47.6142 C.3       15 UNK         0.1400 
     86 CB         -2.6610  -16.4889  -46.3262 C.3       15 UNK        -0.1800 
     87 C          -4.9581  -16.9157  -47.2826 C.2       15 UNK         0.5000 
     88 O          -5.7193  -15.9496  -47.2437 O.2       15 UNK        -0.5000 
     89 N          -5.3561  -18.1809  -47.0940 N.am      16 UNK        -0.5000 
     90 CA         -6.7395  -18.6307  -46.9218 C.3       16 UNK         0.1400 
     91 CB         -6.7395  -19.9419  -46.1176 C.3       16 UNK        -0.1800 
     92 C          -7.5073  -18.7823  -48.2563 C.2       16 UNK         0.5000 
     93 O          -8.6285  -19.2920  -48.2472 O.2       16 UNK        -0.5000 
     94 N          -6.9073  -18.3323  -49.3687 N.am      17 UNK        -0.5000 
     95 CA         -7.4388  -18.2855  -50.7333 C.3       17 UNK         0.1400 
     96 CB         -8.7647  -17.4983  -50.8069 C.3       17 UNK        -0.1800 
     97 C          -7.5077  -19.6538  -51.4403 C.2       17 UNK         0.5000 
     98 O          -8.1962  -19.7726  -52.4547 O.2       17 UNK        -0.5000 
     99 N          -6.7461  -20.6453  -50.9569 N.am      18 UNK        -0.5000 
    100 CA        -6.5502  -21.9441  -51.6084 C.3       18 UNK         0.1400 
    101 CB        -6.5748  -23.0626  -50.5518 C.3       18 UNK        -0.1800 
    102 C         -5.2528  -21.9565  -52.4444 C.2       18 UNK         0.5000 
    103 O         -4.6325  -23.0081  -52.6069 O.2       18 UNK        -0.5000 
    104 N         -4.8616  -20.7912  -52.9820 N.am      19 UNK        -0.5000 
    105 CA        -3.6465  -20.5658  -53.7743 C.3       19 UNK         0.1400 
    106 CB        -3.4813  -19.0564  -54.0081 C.3       19 UNK        -0.1800 
    107 C         -3.6048  -21.3312  -55.1131 C.2       19 UNK         0.5000 
    108 O         -2.5260  -21.4939  -55.6817 O.2       19 UNK        -0.5000 
    109 N         -4.7658  -21.8117  -55.5816 N.am      20 UNK        -0.5000 
    110 CA        -4.8899  -22.7268  -56.7179 C.3       20 UNK         0.1400 
    111 CB        -6.3737  -22.8718  -57.0882 C.3       20 UNK        -0.1800 
    112 C         -4.2621  -24.1078  -56.4371 C.2       20 UNK         0.5000 
    113 O         -3.7290  -24.7276  -57.3582 O.2       20 UNK        -0.5000 
    114 N         -4.3171  -24.5484  -55.1722 N.am      21 UNK        -0.5000 
    115 CA        -3.6144  -25.7286  -54.6737 C.3       21 UNK         0.1400 
    116 CB        -4.4682  -26.4152  -53.5953 C.3       21 UNK        -0.1800 
    117 C         -2.2381  -25.3329  -54.1129 C.2       21 UNK         0.5000 
    118 O         -1.2472  -26.0014  -54.4086 O.2       21 UNK        -0.5000 
    119 N         -2.2049  -24.2403  -53.3353 N.am      22 UNK        -0.5000 
    120 CA        -1.0141  -23.6780  -52.6763 C.3       22 UNK         0.1400 
    121 C         -0.4081  -24.6149  -51.5855 C.2       22 UNK         0.5000 
    122 N         -1.2184  -25.4096  -50.8951 N.am      22 UNK        -0.7600 
    123 O          0.7970  -24.6381  -51.3603 O.2       22 UNK        -0.5000 
    124 C124        0.0308  -23.1181  -53.6964 C.3       23 UNK        -0.0398 
    125 S125        0.3608  -21.3392  -53.4619 S.3       23 UNK        -0.2404 
    126 C126        1.8190  -21.3648  -52.3602 C.3       23 UNK        -0.0205 
    127 H127        3.5704  -11.4136  -50.2940 H         1 UNK         0.0600 
    128 H128        3.4258  -12.8601  -51.2965 H         1 UNK         0.0600 
    129 H129        4.7903  -12.6877  -50.1894 H         1 UNK         0.0600 
    130 H130        1.8556  -14.2440  -50.5342 H         1 UNK         0.3000 
    131 H131        1.7339  -15.1192  -47.8060 H         1 UNK         0.0600 
    132 H132        1.1481  -16.8744  -49.1698 H         1 UNK         0.0800 
    133 H133       -0.4012  -16.3362  -48.6904 H         1 UNK         0.0800 
    134 H134        1.1383  -16.3102  -53.0476 H         1 UNK         0.0800 
    135 H135        2.1470  -15.4560  -51.9247 H         1 UNK         0.0800 
    136 H136        0.8651  -18.7656  -52.8937 H         1 UNK         0.1150 
    137 H137        3.7685  -20.9152  -50.5638 H         1 UNK         0.1150 
    138 H138        3.4603  -16.6562  -50.2423 H         1 UNK         0.1150 
    139 H139        5.7663  -19.1094  -49.7095 H         1 UNK         0.0800 
    140 H140        5.0335  -17.7482  -48.8992 H         1 UNK         0.0800 
    141 H141        2.9502  -19.2165  -46.0753 H         1 UNK         0.0800 
    142 H142        2.8206  -18.0953  -47.4067 H         1 UNK         0.0800 
    143 H143        1.5049  -19.6443  -48.7280 H         1 UNK         0.0600 
    144 H144        2.5672  -21.7098  -47.0155 H         1 UNK         0.3000 
    145 H145        0.8225  -24.3736  -48.6038 H         1 UNK         0.0600 
    146 H146        3.1650  -25.0504  -48.9543 H         1 UNK         0.0600 
    147 H147        2.8384  -23.6664  -49.9840 H         1 UNK         0.0600 
    148 H148        3.7525  -23.4493  -48.5016 H         1 UNK         0.0600 
    149 H149        2.7374  -24.3315  -46.4918 H         1 UNK         0.3000 
    150 H150        0.4393  -24.1168  -43.7623 H         1 UNK         0.0600 
    151 H151        1.5039  -26.2532  -43.1900 H         1 UNK         0.0600 
    152 H152        2.1950  -26.3941  -44.8066 H         1 UNK         0.0600 
    153 H153        0.4531  -26.4888  -44.5761 H         1 UNK         0.0600 
    154 H154        3.0566  -24.4077  -43.3369 H         1 UNK         0.3000 
    155 H155        4.0568  -22.6450  -42.2763 H         1 UNK         0.0600 
    156 H156        5.4642  -23.1928  -44.2811 H         1 UNK         0.0600 
    157 H157        6.1459  -21.8403  -43.3926 H         1 UNK         0.0600 
    158 H158        5.2575  -21.5552  -44.8899 H         1 UNK         0.0600 
    159 H159        4.4331  -19.9720  -43.2058 H         1 UNK         0.3000 
    160 H160        3.5596  -18.2724  -41.3768 H         1 UNK         0.0600 
    161 H161        1.8798  -18.3627  -43.9420 H         1 UNK         0.0600 
    162 H162        3.6251  -18.1503  -43.8470 H         1 UNK         0.0600 
    163 H163        2.5636  -16.8938  -43.2494 H         1 UNK         0.0600 
    164 H164        0.7399  -17.8124  -41.7866 H         1 UNK         0.3000 
    165 H165       -0.4990  -18.6298  -38.7583 H         1 UNK         0.0600 
    166 H166        0.6173  -15.7740  -38.8162 H         1 UNK         0.0600 
    167 H167       -0.7743  -16.3132  -37.8755 H         1 UNK         0.0600 
    168 H168        0.8256  -16.9346  -37.5106 H         1 UNK         0.0600 
    169 H169       -1.0084  -16.3639  -40.5429 H         1 UNK         0.3000 
    170 H170       -2.6084  -18.0962  -43.0320 H         1 UNK         0.0600 
    171 H171       -4.5428  -18.3738  -41.4818 H         1 UNK         0.0600 
    172 H172       -4.2901  -16.7480  -40.8559 H         1 UNK         0.0600 
    173 H173       -4.7667  -16.9888  -42.5377 H         1 UNK         0.0600 
    174 H174       -2.8416  -15.3469  -42.3147 H         1 UNK         0.3000 
    175 H175       -0.8912  -13.8418  -42.3454 H         1 UNK         0.0600 
    176 H176        1.0329  -14.6424  -44.5863 H         1 UNK         0.0600 
    177 H177        0.9697  -13.0587  -43.8149 H         1 UNK         0.0600 
    178 H178        1.4193  -14.4779  -42.8810 H         1 UNK         0.0600 
    179 H179       -1.1738  -13.6896  -45.2479 H         1 UNK         0.3000 
    180 H180       -4.1820  -13.5055  -45.7675 H         1 UNK         0.0600 
    181 H181       -4.0055  -10.7782  -44.3763 H         1 UNK         0.0600 
    182 H182       -5.3004  -11.9571  -44.1919 H         1 UNK         0.0600 
    183 H183       -5.0628  -11.1572  -45.7355 H         1 UNK         0.0600 
    184 H184       -1.8673  -11.6463  -45.9156 H         1 UNK         0.3000 
    185 H185       -1.8740  -11.4729  -49.3510 H         1 UNK         0.0600 
    186 H186        0.0456  -10.2826  -48.3913 H         1 UNK         0.0600 
    187 H187       -1.3781   -9.9188  -47.4348 H         1 UNK         0.0600 
    188 H188       -0.1715  -11.0554  -46.8291 H         1 UNK         0.0600 
    189 H189       -0.2555  -12.9447  -49.7926 H         1 UNK         0.3000 
    190 H190        0.8017  -20.9115  -45.4882 H         1 UNK         0.3000 
    191 H191       -1.2301  -19.0622  -44.7611 H         1 UNK         0.0600 
    192 H192       -0.1516  -20.4957  -43.1001 H         1 UNK         0.0600 
    193 H193       -0.7208  -21.9571  -43.9058 H         1 UNK         0.0600 
    194 H194       -1.8658  -20.8762  -43.1230 H         1 UNK         0.0600 
    195 H195       -1.3961  -22.1983  -46.5406 H         1 UNK         0.3000 
    196 H196       -4.2217  -22.2506  -46.8782 H         1 UNK         0.0600 
    197 H197       -3.6972  -23.8534  -48.7366 H         1 UNK         0.0600 
    198 H198       -2.8198  -24.2434  -47.2669 H         1 UNK         0.0600 
    199 H199       -1.9907  -23.4523  -48.6045 H         1 UNK         0.0600 
    200 H200       -1.6061  -20.8448  -48.9002 H         1 UNK         0.3000 
    201 H201       -3.2864  -19.8438  -50.9524 H         1 UNK         0.0600 
    202 H202       -1.3186  -18.5476  -51.6131 H         1 UNK         0.0600 
    203 H203       -0.8130  -20.1574  -51.1199 H         1 UNK         0.0600 
    204 H204       -0.5640  -18.7944  -50.0407 H         1 UNK         0.0600 
    205 H205       -2.1163  -18.3093  -47.9278 H         1 UNK         0.3000 
    206 H206       -3.3874  -15.7999  -48.2236 H         1 UNK         0.0600 
    207 H207       -1.6240  -16.2308  -46.5376 H         1 UNK         0.0600 
    208 H208       -3.0879  -15.6807  -45.7376 H         1 UNK         0.0600 
    209 H209       -2.6610  -17.3761  -45.6956 H         1 UNK         0.0600 
    210 H210       -4.6494  -18.9077  -47.0791 H         1 UNK         0.3000 
    211 H211       -7.2749  -17.8826  -46.3341 H         1 UNK         0.0600 
    212 H212       -6.2593  -20.7516  -46.6661 H         1 UNK         0.0600 
    213 H213       -7.7559  -20.2618  -45.8852 H         1 UNK         0.0600 
    214 H214       -6.2143  -19.8229  -45.1697 H         1 UNK         0.0600 
    215 H215       -5.9630  -17.9762  -49.2782 H         1 UNK         0.3000 
    216 H216       -6.7045  -17.7117  -51.3000 H         1 UNK         0.0600 
    217 H217       -9.0405  -17.2940  -51.8421 H         1 UNK         0.0600 
    218 H218       -8.6821  -16.5366  -50.3004 H         1 UNK         0.0600 
    219 H219       -9.5911  -18.0476  -50.3557 H         1 UNK         0.0600 
    220 H220       -6.1757  -20.4803  -50.1307 H         1 UNK         0.3000 
    221 H221       -7.3700  -22.1406  -52.3017 H         1 UNK         0.0600 
    222 H222       -6.5671  -24.0454  -51.0246 H         1 UNK         0.0600 
    223 H223       -5.7125  -23.0165  -49.8887 H         1 UNK         0.0600 
    224 H224       -7.4736  -23.0056  -49.9377 H         1 UNK         0.0600 
    225 H225       -5.4442  -19.9835  -52.8207 H         1 UNK         0.3000 
    226 H226       -2.7977  -20.9140  -53.1824 H         1 UNK         0.0600 
    227 H227       -3.4533  -18.5063  -53.0675 H         1 UNK         0.0600 
    228 H228       -2.5491  -18.8435  -54.5333 H         1 UNK         0.0600 
    229 H229       -4.2971  -18.6518  -54.6082 H         1 UNK         0.0600 
    230 H230       -5.6096  -21.6057  -55.0682 H         1 UNK         0.3000 
    231 H231       -4.3643  -22.2875  -57.5684 H         1 UNK         0.0600 
    232 H232       -6.4981  -23.5318  -57.9478 H         1 UNK         0.0600 
    233 H233       -6.8102  -21.9088  -57.3537 H         1 UNK         0.0600 
    234 H234       -6.9557  -23.2903  -56.2662 H         1 UNK         0.0600 
    235 H235       -4.7379  -23.9535  -54.4694 H         1 UNK         0.3000 
    236 H236       -3.4592  -26.4435  -55.4847 H         1 UNK         0.0600 
    237 H237       -5.4264  -26.7389  -54.0019 H         1 UNK         0.0600 
    238 H238       -3.9646  -27.3007  -53.2056 H         1 UNK         0.0600 
    239 H239       -4.6707  -25.7545  -52.7517 H         1 UNK         0.0600 
    240 H240       -3.0847  -23.7816  -53.1100 H         1 UNK         0.3000 
    241 H241       -1.4046  -22.8398  -52.0979 H         1 UNK         0.0600 
    242 H242       -2.2090  -25.4159  -51.0744 H         1 UNK         0.3800 
    243 H243       -0.8294  -26.0274  -50.2018 H         1 UNK         0.3800 
    244 H244        0.9702  -23.6726  -53.6893 H         1 UNK         0.0800 
    245 H245       -0.3402  -23.2200  -54.7170 H         1 UNK         0.0800 
    246 H246        1.5945  -22.0198  -51.5179 H         1 UNK         0.0800 
    247 H247        2.6541  -21.8178  -52.8959 H         1 UNK         0.0800 
@<TRIPOS>BOND
     1    1    2 1    
     2    1  127 1    
     3    1  128 1    
     4    1  129 1    
     5    2    3 2    
     6    2    4 am   BACKBONE|DICT|INTERRES
     7    4    5 1    
     8    4  130 1    
     9    5    6 1    
    10    5   65 1    
    11    5  131 1    
    12    6    7 1    
    13    6  132 1    
    14    6  133 1    
    15    7    8 1    
    16    8    9 1    
    17    8  134 1    
    18    8  135 1    
    19    9   10 ar   
    20    9   14 ar   
    21   10   11 ar   
    22   10  136 1    
    23   11   12 ar   
    24   11  126 1    
    25   12   13 ar   
    26   12  137 1    
    27   13   14 ar   
    28   13   15 1    
    29   14  138 1    
    30   15   16 1    
    31   15  139 1    
    32   15  140 1    
    33   16   17 1    
    34   17   18 1    
    35   17  141 1    
    36   17  142 1    
    37   18   19 1    
    38   18   67 1    
    39   18  143 1    
    40   19   20 am   BACKBONE|DICT|INTERRES
    41   19  144 1    
    42   20   21 2    
    43   20   22 1    
    44   22   23 1    
    45   22   24 1    
    46   22  145 1    
    47   23  146 1    
    48   23  147 1    
    49   23  148 1    
    50   24   25 am   BACKBONE|DICT|INTERRES
    51   24  149 1    
    52   25   26 2    
    53   25   27 1    
    54   27   28 1    
    55   27   29 1    
    56   27  150 1    
    57   28  151 1    
    58   28  152 1    
    59   28  153 1    
    60   29   30 am   BACKBONE|DICT|INTERRES
    61   29  154 1    
    62   30   31 2    
    63   30   32 1    
    64   32   33 1    
    65   32   34 1    
    66   32  155 1    
    67   33  156 1    
    68   33  157 1    
    69   33  158 1    
    70   34   35 am   BACKBONE|DICT|INTERRES
    71   34  159 1    
    72   35   36 2    
    73   35   37 1    
    74   37   38 1    
    75   37   39 1    
    76   37  160 1    
    77   38  161 1    
    78   38  162 1    
    79   38  163 1    
    80   39   40 am   BACKBONE|DICT|INTERRES
    81   39  164 1    
    82   40   41 2    
    83   40   42 1    
    84   42   43 1    
    85   42   44 1    
    86   42  165 1    
    87   43  166 1    
    88   43  167 1    
    89   43  168 1    
    90   44   45 am   BACKBONE|DICT|INTERRES
    91   44  169 1    
    92   45   46 2    
    93   45   47 1    
    94   47   48 1    
    95   47   49 1    
    96   47  170 1    
    97   48  171 1    
    98   48  172 1    
    99   48  173 1    
   100   49   50 am   BACKBONE|DICT|INTERRES
   101   49  174 1    
   102   50   51 2    
   103   50   52 1    
   104   52   53 1    
   105   52   54 1    
   106   52  175 1    
   107   53  176 1    
   108   53  177 1    
   109   53  178 1    
   110   54   55 am   BACKBONE|DICT|INTERRES
   111   54  179 1    
   112   55   56 2    
   113   55   57 1    
   114   57   58 1    
   115   57   59 1    
   116   57  180 1    
   117   58  181 1    
   118   58  182 1    
   119   58  183 1    
   120   59   60 am   BACKBONE|DICT|INTERRES
   121   59  184 1    
   122   60   61 2    
   123   60   62 1    
   124   62   63 1    
   125   62   64 1    
   126   62  185 1    
   127   63  186 1    
   128   63  187 1    
   129   63  188 1    
   130   64   65 am   BACKBONE|DICT|INTERRES
   131   64  189 1    
   132   65   66 2    
   133   67   68 2    
   134   67   69 am   BACKBONE|DICT|INTERRES
   135   69   70 1    
   136   69  190 1    
   137   70   71 1    
   138   70   72 1    
   139   70  191 1    
   140   71  192 1    
   141   71  193 1    
   142   71  194 1    
   143   72   73 2    
   144   72   74 am   BACKBONE|DICT|INTERRES
   145   74   75 1    
   146   74  195 1    
   147   75   76 1    
   148   75   77 1    
   149   75  196 1    
   150   76  197 1    
   151   76  198 1    
   152   76  199 1    
   153   77   78 2    
   154   77   79 am   BACKBONE|DICT|INTERRES
   155   79   80 1    
   156   79  200 1    
   157   80   81 1    
   158   80   82 1    
   159   80  201 1    
   160   81  202 1    
   161   81  203 1    
   162   81  204 1    
   163   82   83 2    
   164   82   84 am   BACKBONE|DICT|INTERRES
   165   84   85 1    
   166   84  205 1    
   167   85   86 1    
   168   85   87 1    
   169   85  206 1    
   170   86  207 1    
   171   86  208 1    
   172   86  209 1    
   173   87   88 2    
   174   87   89 am   BACKBONE|DICT|INTERRES
   175   89   90 1    
   176   89  210 1    
   177   90   91 1    
   178   90   92 1    
   179   90  211 1    
   180   91  212 1    
   181   91  213 1    
   182   91  214 1    
   183   92   93 2    
   184   92   94 am   BACKBONE|DICT|INTERRES
   185   94   95 1    
   186   94  215 1    
   187   95   96 1    
   188   95   97 1    
   189   95  216 1    
   190   96  217 1    
   191   96  218 1    
   192   96  219 1    
   193   97   98 2    
   194   97   99 am   BACKBONE|DICT|INTERRES
   195   99  100 1    
   196   99  220 1    
   197  100  101 1    
   198  100  102 1    
   199  100  221 1    
   200  101  222 1    
   201  101  223 1    
   202  101  224 1    
   203  102  103 2    
   204  102  104 am   BACKBONE|DICT|INTERRES
   205  104  105 1    
   206  104  225 1    
   207  105  106 1    
   208  105  107 1    
   209  105  226 1    
   210  106  227 1    
   211  106  228 1    
   212  106  229 1    
   213  107  108 2    
   214  107  109 am   BACKBONE|DICT|INTERRES
   215  109  110 1    
   216  109  230 1    
   217  110  111 1    
   218  110  112 1    
   219  110  231 1    
   220  111  232 1    
   221  111  233 1    
   222  111  234 1    
   223  112  113 2    
   224  112  114 am   BACKBONE|DICT|INTERRES
   225  114  115 1    
   226  114  235 1    
   227  115  116 1    
   228  115  117 1    
   229  115  236 1    
   230  116  237 1    
   231  116  238 1    
   232  116  239 1    
   233  117  118 2    
   234  117  119 am   BACKBONE|DICT|INTERRES
   235  119  120 1    
   236  119  240 1    
   237  120  121 1    
   238  120  124 1    
   239  120  241 1    
   240  121  122 am   BACKBONE|DICT|INTERRES
   241  121  123 2    
   242  122  242 1    
   243  122  243 1    
   244  124  125 1    
   245  124  244 1    
   246  124  245 1    
   247  125  126 1    
   248  126  246 1    
   249  126  247 1    
@<TRIPOS>SUBSTRUCTURE
     1 UNK         1 GROUP             0       ****    0 ROOT    
