@<TRIPOS>MOLECULE
3R540
247   249    1
SMALL
USER_CHARGES


@<TRIPOS>ATOM
      1 CA         -0.1224  -10.6408  -48.3575 C.3       0 UNK        -0.1800 
      2 C          -0.7103  -11.8089  -47.5795 C.2       0 UNK         0.5000 
      3 O           0.0090  -12.4405  -46.8046 O.2       0 UNK        -0.5000 
      4 N          -2.0055  -12.0851  -47.7906 N.am      1 UNK        -0.5000 
      5 CA         -2.8100  -13.1774  -47.2226 C.3       1 UNK         0.1400 
      6 C6         -4.2978  -13.0591  -47.6352 C.3       23 UNK        -0.0398 
      7 S7         -4.5199  -13.1343  -49.4433 S.3       23 UNK        -0.2404 
      8 C8         -5.5169  -14.6489  -49.6286 C.3       23 UNK        -0.0205 
      9 C9         -4.7927  -15.9222  -49.2031 C.ar      23 UNK        -0.0193 
     10 C10        -3.5163  -16.2167  -49.6922 C.ar      23 UNK        -0.1150 
     11 C11        -2.8941  -17.4284  -49.3784 C.ar      23 UNK        -0.0193 
     12 C12        -3.5525  -18.3448  -48.5548 C.ar      23 UNK        -0.1150 
     13 C13        -4.8194  -18.0550  -48.0388 C.ar      23 UNK        -0.0193 
     14 C14        -5.4320  -16.8415  -48.3653 C.ar      23 UNK        -0.1150 
     15 C15        -5.5549  -19.0780  -47.1836 C.3       23 UNK        -0.0205 
     16 S16        -5.2145  -18.9104  -45.3965 S.3       23 UNK        -0.2404 
     17 C17        -3.4325  -19.2871  -45.2637 C.3       23 UNK        -0.0398 
     18 CA         -3.0703  -20.7551  -45.6047 C.3       11 UNK         0.1400 
     19 N          -1.6976  -20.8821  -46.0977 N.am      11 UNK        -0.5000 
     20 C          -1.2178  -21.9658  -46.7224 C.2       10 UNK         0.5000 
     21 O          -1.8872  -22.9704  -46.9458 O.2       10 UNK        -0.5000 
     22 CA          0.2648  -21.9472  -47.1319 C.3       10 UNK         0.1400 
     23 CB          0.4664  -21.1500  -48.4289 C.3       10 UNK        -0.1800 
     24 N           1.1344  -21.4204  -46.0800 N.am      10 UNK        -0.5000 
     25 C           1.2908  -21.9903  -44.8759 C.2       9 UNK         0.5000 
     26 O           0.7473  -23.0427  -44.5400 O.2       9 UNK        -0.5000 
     27 CA          2.1577  -21.2314  -43.8558 C.3       9 UNK         0.1400 
     28 CB          3.6522  -21.4188  -44.1567 C.3       9 UNK        -0.1800 
     29 N           1.8398  -19.8045  -43.7988 N.am      9 UNK        -0.5000 
     30 C           0.6448  -19.3056  -43.4508 C.2       8 UNK         0.5000 
     31 O          -0.3147  -19.9936  -43.1053 O.2       8 UNK        -0.5000 
     32 CA          0.4704  -17.7835  -43.5641 C.3       8 UNK         0.1400 
     33 CB          1.1424  -17.0643  -42.3838 C.3       8 UNK        -0.1800 
     34 N           0.9844  -17.2560  -44.8286 N.am      8 UNK        -0.5000 
     35 C           0.5306  -17.6031  -46.0417 C.2       7 UNK         0.5000 
     36 O          -0.4143  -18.3655  -46.2273 O.2       7 UNK        -0.5000 
     37 CA          1.2869  -17.0421  -47.2546 C.3       7 UNK         0.1400 
     38 CB          0.8233  -15.6144  -47.5754 C.3       7 UNK        -0.1800 
     39 N           2.7340  -17.0737  -47.0523 N.am      7 UNK        -0.5000 
     40 C           3.4575  -18.2020  -46.9992 C.2       6 UNK         0.5000 
     41 O           2.9834  -19.3284  -47.1488 O.2       6 UNK        -0.5000 
     42 CA          4.9547  -18.0440  -46.6813 C.3       6 UNK         0.1400 
     43 CB          5.7459  -17.6934  -47.9501 C.3       6 UNK        -0.1800 
     44 N           5.2011  -17.0282  -45.6571 N.am      6 UNK        -0.5000 
     45 C           4.8207  -17.1406  -44.3768 C.2       5 UNK         0.5000 
     46 O           4.2510  -18.1297  -43.9161 O.2       5 UNK        -0.5000 
     47 CA          5.0775  -15.9207  -43.4735 C.3       5 UNK         0.1400 
     48 CB          6.5071  -15.9535  -42.9130 C.3       5 UNK        -0.1800 
     49 N           4.8458  -14.6388  -44.1475 N.am      5 UNK        -0.5000 
     50 C           3.6602  -14.2413  -44.6265 C.2       4 UNK         0.5000 
     51 O           2.6456  -14.9423  -44.6064 O.2       4 UNK        -0.5000 
     52 CA          3.6012  -12.8452  -45.2666 C.3       4 UNK         0.1400 
     53 CB          3.7188  -12.9439  -46.7950 C.3       4 UNK        -0.1800 
     54 N           2.3347  -12.2053  -44.9265 N.am      4 UNK        -0.5000 
     55 C           2.0858  -11.6024  -43.7554 C.2       3 UNK         0.5000 
     56 O           2.9452  -11.3789  -42.9019 O.2       3 UNK        -0.5000 
     57 CA          0.6234  -11.2236  -43.4772 C.3       3 UNK         0.1400 
     58 CB          0.2455   -9.9207  -44.1979 C.3       3 UNK        -0.1800 
     59 N          -0.2597  -12.3001  -43.9181 N.am      3 UNK        -0.5000 
     60 C          -0.6890  -13.3057  -43.1458 C.2       2 UNK         0.5000 
     61 O          -0.4702  -13.3696  -41.9352 O.2       2 UNK        -0.5000 
     62 CA         -1.4579  -14.4550  -43.8363 C.3       2 UNK         0.1400 
     63 CB         -2.6625  -14.9502  -43.0112 C.3       2 UNK        -0.1800 
     64 N          -1.8416  -14.1973  -45.2278 N.am      2 UNK        -0.5000 
     65 C          -2.6857  -13.2644  -45.6883 C.2       1 UNK         0.5000 
     66 O          -3.3094  -12.4759  -44.9759 O.2       1 UNK        -0.5000 
     67 C          -3.3697  -21.7272  -44.4442 C.2       11 UNK         0.5000 
     68 O          -4.4303  -22.3525  -44.4418 O.2       11 UNK        -0.5000 
     69 N          -2.4159  -21.8933  -43.5154 N.am      12 UNK        -0.5000 
     70 CA         -2.4888  -22.8555  -42.4113 C.3       12 UNK         0.1400 
     71 CB         -1.3160  -22.6222  -41.4473 C.3       12 UNK        -0.1800 
     72 C          -2.5145  -24.3205  -42.8892 C.2       12 UNK         0.5000 
     73 O          -3.2273  -25.1390  -42.3079 O.2       12 UNK        -0.5000 
     74 N          -1.7675  -24.6136  -43.9611 N.am      13 UNK        -0.5000 
     75 CA         -1.7385  -25.9101  -44.6406 C.3       13 UNK         0.1400 
     76 CB         -0.3905  -26.0439  -45.3683 C.3       13 UNK        -0.1800 
     77 C          -2.9050  -26.1106  -45.6323 C.2       13 UNK         0.5000 
     78 O          -2.9766  -27.1664  -46.2628 O.2       13 UNK        -0.5000 
     79 N          -3.7591  -25.0908  -45.8051 N.am      14 UNK        -0.5000 
     80 CA         -4.8470  -24.9309  -46.7801 C.3       14 UNK         0.1400 
     81 CB         -5.9079  -26.0392  -46.6477 C.3       14 UNK        -0.1800 
     82 C          -4.3718  -24.7832  -48.2395 C.2       14 UNK         0.5000 
     83 O          -4.9410  -23.9736  -48.9739 O.2       14 UNK        -0.5000 
     84 N          -3.3485  -25.5566  -48.6312 N.am      15 UNK        -0.5000 
     85 CA         -2.6344  -25.5290  -49.9114 C.3       15 UNK         0.1400 
     86 CB         -1.7594  -24.2628  -50.0047 C.3       15 UNK        -0.1800 
     87 C          -3.5649  -25.7003  -51.1270 C.2       15 UNK         0.5000 
     88 O          -3.4572  -24.9461  -52.0941 O.2       15 UNK        -0.5000 
     89 N          -4.4915  -26.6660  -51.0268 N.am      16 UNK        -0.5000 
     90 CA         -5.5417  -26.9806  -52.0048 C.3       16 UNK         0.1400 
     91 CB         -4.9315  -27.6053  -53.2765 C.3       16 UNK        -0.1800 
     92 C          -6.4616  -25.7742  -52.2981 C.2       16 UNK         0.5000 
     93 O          -6.7989  -25.5156  -53.4542 O.2       16 UNK        -0.5000 
     94 N          -6.8296  -25.0591  -51.2244 N.am      17 UNK        -0.5000 
     95 CA         -7.5884  -23.8063  -51.1997 C.3       17 UNK         0.1400 
     96 CB         -9.0074  -23.9892  -51.7803 C.3       17 UNK        -0.1800 
     97 C          -6.7977  -22.6503  -51.8442 C.2       17 UNK         0.5000 
     98 O          -7.2837  -22.0071  -52.7765 O.2       17 UNK        -0.5000 
     99 N          -5.5896  -22.4148  -51.3096 N.am      18 UNK        -0.5000 
    100 CA        -4.6555  -21.3406  -51.6658 C.3       18 UNK         0.1400 
    101 CB        -5.2494  -19.9691  -51.2783 C.3       18 UNK        -0.1800 
    102 C         -4.1830  -21.4011  -53.1354 C.2       18 UNK         0.5000 
    103 O         -4.1232  -20.3736  -53.8122 O.2       18 UNK        -0.5000 
    104 N         -3.8562  -22.6103  -53.6100 N.am      19 UNK        -0.5000 
    105 CA        -3.3674  -22.8628  -54.9670 C.3       19 UNK         0.1400 
    106 CB        -3.7450  -24.2942  -55.3764 C.3       19 UNK        -0.1800 
    107 C         -1.8468  -22.6536  -55.1028 C.2       19 UNK         0.5000 
    108 O         -1.3529  -22.5509  -56.2274 O.2       19 UNK        -0.5000 
    109 N         -1.1236  -22.5987  -53.9748 N.am      20 UNK        -0.5000 
    110 CA         0.3251  -22.3927  -53.8882 C.3       20 UNK         0.1400 
    111 CB         0.8158  -22.8790  -52.5129 C.3       20 UNK        -0.1800 
    112 C          0.7201  -20.9280  -54.1729 C.2       20 UNK         0.5000 
    113 O          1.2090  -20.2322  -53.2814 O.2       20 UNK        -0.5000 
    114 N          0.4796  -20.4938  -55.4169 N.am      21 UNK        -0.5000 
    115 CA         0.6023  -19.1343  -55.9446 C.3       21 UNK         0.1400 
    116 CB         2.0508  -18.6040  -55.8627 C.3       21 UNK        -0.1800 
    117 C         -0.4385  -18.2004  -55.3017 C.2       21 UNK         0.5000 
    118 O         -1.5254  -18.0481  -55.8602 O.2       21 UNK        -0.5000 
    119 N         -0.0973  -17.6135  -54.1466 N.am      22 UNK        -0.5000 
    120 CA        -0.9598  -16.7470  -53.3212 C.3       22 UNK         0.1400 
    121 C         -1.4061  -15.4125  -53.9990 C.2       22 UNK         0.5000 
    122 N         -0.7313  -14.9442  -55.0421 N.am      22 UNK        -0.7600 
    123 O         -2.3505  -14.7655  -53.5550 O.2       22 UNK        -0.5000 
    124 C124       -2.1404  -17.5299  -52.6766 C.3       23 UNK        -0.0398 
    125 S125       -1.5726  -18.7556  -51.4455 S.3       23 UNK        -0.2404 
    126 C126       -1.5116  -17.7510  -49.9250 C.3       23 UNK        -0.0205 
    127 H127        0.7533  -10.9696  -48.9171 H         1 UNK         0.0600 
    128 H128        0.1866   -9.8493  -47.6757 H         1 UNK         0.0600 
    129 H129       -0.8390  -10.2217  -49.0640 H         1 UNK         0.0600 
    130 H130       -2.5122  -11.5029  -48.4419 H         1 UNK         0.3000 
    131 H131       -2.4238  -14.1074  -47.6450 H         1 UNK         0.0600 
    132 H132       -4.8887  -13.8491  -47.1677 H         1 UNK         0.0800 
    133 H133       -4.7219  -12.1173  -47.2820 H         1 UNK         0.0800 
    134 H134       -6.4474  -14.5258  -49.0720 H         1 UNK         0.0800 
    135 H135       -5.7999  -14.7505  -50.6770 H         1 UNK         0.0800 
    136 H136       -3.0170  -15.5075  -50.3373 H         1 UNK         0.1150 
    137 H137       -3.0789  -19.2884  -48.3232 H         1 UNK         0.1150 
    138 H138       -6.4224  -16.6275  -47.9886 H         1 UNK         0.1150 
    139 H139       -6.6297  -18.9642  -47.3328 H         1 UNK         0.0800 
    140 H140       -5.3268  -20.0869  -47.5265 H         1 UNK         0.0800 
    141 H141       -3.0863  -19.0227  -44.2628 H         1 UNK         0.0800 
    142 H142       -2.9171  -18.5980  -45.9297 H         1 UNK         0.0800 
    143 H143       -3.6989  -21.0774  -46.4346 H         1 UNK         0.0600 
    144 H144       -1.0966  -20.0682  -45.9880 H         1 UNK         0.3000 
    145 H145        0.5639  -22.9799  -47.3232 H         1 UNK         0.0600 
    146 H146        1.4884  -21.2467  -48.7955 H         1 UNK         0.0600 
    147 H147       -0.1983  -21.5045  -49.2180 H         1 UNK         0.0600 
    148 H148        0.2663  -20.0900  -48.2810 H         1 UNK         0.0600 
    149 H149        1.6440  -20.5687  -46.2936 H         1 UNK         0.3000 
    150 H150        1.9549  -21.6547  -42.8699 H         1 UNK         0.0600 
    151 H151        3.9138  -22.4770  -44.1938 H         1 UNK         0.0600 
    152 H152        4.2692  -20.9577  -43.3853 H         1 UNK         0.0600 
    153 H153        3.9300  -20.9768  -45.1139 H         1 UNK         0.0600 
    154 H154        2.5911  -19.1619  -44.0327 H         1 UNK         0.3000 
    155 H155       -0.6008  -17.5763  -43.5272 H         1 UNK         0.0600 
    156 H156        0.7198  -17.3971  -41.4351 H         1 UNK         0.0600 
    157 H157        1.0053  -15.9848  -42.4393 H         1 UNK         0.0600 
    158 H158        2.2141  -17.2584  -42.3499 H         1 UNK         0.0600 
    159 H159        1.7392  -16.5769  -44.7663 H         1 UNK         0.3000 
    160 H160        1.0588  -17.6728  -48.1154 H         1 UNK         0.0600 
    161 H161        0.9953  -14.9380  -46.7384 H         1 UNK         0.0600 
    162 H162       -0.2435  -15.5930  -47.8004 H         1 UNK         0.0600 
    163 H163        1.3442  -15.2136  -48.4449 H         1 UNK         0.0600 
    164 H164        3.1895  -16.1936  -46.8655 H         1 UNK         0.3000 
    165 H165        5.3186  -19.0026  -46.3052 H         1 UNK         0.0600 
    166 H166        6.8165  -17.6536  -47.7484 H         1 UNK         0.0600 
    167 H167        5.5902  -18.4441  -48.7261 H         1 UNK         0.0600 
    168 H168        5.4452  -16.7289  -48.3613 H         1 UNK         0.0600 
    169 H169        5.6638  -16.1808  -45.9509 H         1 UNK         0.3000 
    170 H170        4.3828  -15.9833  -42.6334 H         1 UNK         0.0600 
    171 H171        6.6997  -16.8914  -42.3903 H         1 UNK         0.0600 
    172 H172        7.2532  -15.8585  -43.7029 H         1 UNK         0.0600 
    173 H173        6.6692  -15.1462  -42.1985 H         1 UNK         0.0600 
    174 H174        5.6356  -14.0122  -44.2070 H         1 UNK         0.3000 
    175 H175        4.4283  -12.2388  -44.8913 H         1 UNK         0.0600 
    176 H176        2.9007  -13.5189  -47.2285 H         1 UNK         0.0600 
    177 H177        3.7057  -11.9547  -47.2529 H         1 UNK         0.0600 
    178 H178        4.6527  -13.4253  -47.0874 H         1 UNK         0.0600 
    179 H179        1.5625  -12.3769  -45.5622 H         1 UNK         0.3000 
    180 H180        0.5086  -11.0611  -42.4034 H         1 UNK         0.0600 
    181 H181        0.3802   -9.9999  -45.2760 H         1 UNK         0.0600 
    182 H182        0.8636   -9.0919  -43.8508 H         1 UNK         0.0600 
    183 H183       -0.7945   -9.6539  -44.0090 H         1 UNK         0.0600 
    184 H184       -0.4356  -12.3572  -44.9159 H         1 UNK         0.3000 
    185 H185       -0.7442  -15.2724  -43.8925 H         1 UNK         0.0600 
    186 H186       -2.3480  -15.2927  -42.0248 H         1 UNK         0.0600 
    187 H187       -3.4024  -14.1635  -42.8627 H         1 UNK         0.0600 
    188 H188       -3.1567  -15.7896  -43.5008 H         1 UNK         0.0600 
    189 H189       -1.3415  -14.7465  -45.9112 H         1 UNK         0.3000 
    190 H190       -1.5795  -21.3148  -43.5543 H         1 UNK         0.3000 
    191 H191       -3.4173  -22.6692  -41.8678 H         1 UNK         0.0600 
    192 H192       -0.3545  -22.7519  -41.9453 H         1 UNK         0.0600 
    193 H193       -1.3433  -21.6151  -41.0308 H         1 UNK         0.0600 
    194 H194       -1.3510  -23.3210  -40.6107 H         1 UNK         0.0600 
    195 H195       -1.1671  -23.8925  -44.3476 H         1 UNK         0.3000 
    196 H196       -1.8038  -26.7048  -43.8949 H         1 UNK         0.0600 
    197 H197        0.4442  -25.9361  -44.6753 H         1 UNK         0.0600 
    198 H198       -0.2793  -25.2866  -46.1456 H         1 UNK         0.0600 
    199 H199       -0.2920  -27.0207  -45.8434 H         1 UNK         0.0600 
    200 H200       -3.5713  -24.2545  -45.2669 H         1 UNK         0.3000 
    201 H201       -5.3290  -23.9875  -46.5198 H         1 UNK         0.0600 
    202 H202       -6.7658  -25.8314  -47.2882 H         1 UNK         0.0600 
    203 H203       -6.2763  -26.1104  -45.6244 H         1 UNK         0.0600 
    204 H204       -5.5200  -27.0169  -46.9342 H         1 UNK         0.0600 
    205 H205       -3.0003  -26.2173  -47.9431 H         1 UNK         0.3000 
    206 H206       -1.9674  -26.3920  -49.9163 H         1 UNK         0.0600 
    207 H207       -1.0342  -24.2284  -49.1923 H         1 UNK         0.0600 
    208 H208       -2.3560  -23.3513  -49.9610 H         1 UNK         0.0600 
    209 H209       -1.1972  -24.2457  -50.9367 H         1 UNK         0.0600 
    210 H210       -4.5035  -27.2152  -50.1787 H         1 UNK         0.3000 
    211 H211       -6.1768  -27.7376  -51.5425 H         1 UNK         0.0600 
    212 H212       -4.3188  -28.4733  -53.0335 H         1 UNK         0.0600 
    213 H213       -5.7113  -27.9411  -53.9609 H         1 UNK         0.0600 
    214 H214       -4.3062  -26.8959  -53.8170 H         1 UNK         0.0600 
    215 H215       -6.4390  -25.3335  -50.3340 H         1 UNK         0.3000 
    216 H216       -7.7045  -23.5443  -50.1468 H         1 UNK         0.0600 
    217 H217       -9.6018  -23.0861  -51.6379 H         1 UNK         0.0600 
    218 H218       -8.9911  -24.1995  -52.8498 H         1 UNK         0.0600 
    219 H219       -9.5335  -24.8054  -51.2855 H         1 UNK         0.0600 
    220 H220       -5.2905  -23.0146  -50.5430 H         1 UNK         0.3000 
    221 H221       -3.7654  -21.4949  -51.0543 H         1 UNK         0.0600 
    222 H222       -6.1187  -19.7158  -51.8853 H         1 UNK         0.0600 
    223 H223       -5.5564  -19.9546  -50.2331 H         1 UNK         0.0600 
    224 H224       -4.5200  -19.1705  -51.4112 H         1 UNK         0.0600 
    225 H225       -3.9042  -23.4219  -52.9955 H         1 UNK         0.3000 
    226 H226       -3.8598  -22.1753  -55.6579 H         1 UNK         0.0600 
    227 H227       -4.8134  -24.4739  -55.2540 H         1 UNK         0.0600 
    228 H228       -3.5008  -24.4776  -56.4233 H         1 UNK         0.0600 
    229 H229       -3.2083  -25.0339  -54.7823 H         1 UNK         0.0600 
    230 H230       -1.6197  -22.6795  -53.0999 H         1 UNK         0.3000 
    231 H231        0.8104  -23.0105  -54.6467 H         1 UNK         0.0600 
    232 H232        1.8904  -22.7269  -52.4039 H         1 UNK         0.0600 
    233 H233        0.6305  -23.9453  -52.3858 H         1 UNK         0.0600 
    234 H234        0.3246  -22.3465  -51.6973 H         1 UNK         0.0600 
    235 H235        0.0034  -21.1498  -56.0298 H         1 UNK         0.3000 
    236 H236        0.3471  -19.2000  -57.0035 H         1 UNK         0.0600 
    237 H237        2.7321  -19.2509  -56.4153 H         1 UNK         0.0600 
    238 H238        2.1229  -17.6090  -56.3033 H         1 UNK         0.0600 
    239 H239        2.4215  -18.5339  -54.8404 H         1 UNK         0.0600 
    240 H240        0.7944  -17.8613  -53.7402 H         1 UNK         0.3000 
    241 H241       -0.3208  -16.4084  -52.5054 H         1 UNK         0.0600 
    242 H242       -1.0163  -14.0761  -55.4677 H         1 UNK         0.3800 
    243 H243        0.0549  -15.4517  -55.4146 H         1 UNK         0.3800 
    244 H244       -2.8538  -16.8621  -52.1993 H         1 UNK         0.0800 
    245 H245       -2.7143  -18.0525  -53.4422 H         1 UNK         0.0800 
    246 H246       -0.9551  -18.3043  -49.1697 H         1 UNK         0.0800 
    247 H247       -0.9475  -16.8356  -50.1079 H         1 UNK         0.0800 
@<TRIPOS>BOND
     1    1    2 1    
     2    1  127 1    
     3    1  128 1    
     4    1  129 1    
     5    2    3 2    
     6    2    4 am   BACKBONE|DICT|INTERRES
     7    4    5 1    
     8    4  130 1    
     9    5    6 1    
    10    5   65 1    
    11    5  131 1    
    12    6    7 1    
    13    6  132 1    
    14    6  133 1    
    15    7    8 1    
    16    8    9 1    
    17    8  134 1    
    18    8  135 1    
    19    9   10 ar   
    20    9   14 ar   
    21   10   11 ar   
    22   10  136 1    
    23   11   12 ar   
    24   11  126 1    
    25   12   13 ar   
    26   12  137 1    
    27   13   14 ar   
    28   13   15 1    
    29   14  138 1    
    30   15   16 1    
    31   15  139 1    
    32   15  140 1    
    33   16   17 1    
    34   17   18 1    
    35   17  141 1    
    36   17  142 1    
    37   18   19 1    
    38   18   67 1    
    39   18  143 1    
    40   19   20 am   BACKBONE|DICT|INTERRES
    41   19  144 1    
    42   20   21 2    
    43   20   22 1    
    44   22   23 1    
    45   22   24 1    
    46   22  145 1    
    47   23  146 1    
    48   23  147 1    
    49   23  148 1    
    50   24   25 am   BACKBONE|DICT|INTERRES
    51   24  149 1    
    52   25   26 2    
    53   25   27 1    
    54   27   28 1    
    55   27   29 1    
    56   27  150 1    
    57   28  151 1    
    58   28  152 1    
    59   28  153 1    
    60   29   30 am   BACKBONE|DICT|INTERRES
    61   29  154 1    
    62   30   31 2    
    63   30   32 1    
    64   32   33 1    
    65   32   34 1    
    66   32  155 1    
    67   33  156 1    
    68   33  157 1    
    69   33  158 1    
    70   34   35 am   BACKBONE|DICT|INTERRES
    71   34  159 1    
    72   35   36 2    
    73   35   37 1    
    74   37   38 1    
    75   37   39 1    
    76   37  160 1    
    77   38  161 1    
    78   38  162 1    
    79   38  163 1    
    80   39   40 am   BACKBONE|DICT|INTERRES
    81   39  164 1    
    82   40   41 2    
    83   40   42 1    
    84   42   43 1    
    85   42   44 1    
    86   42  165 1    
    87   43  166 1    
    88   43  167 1    
    89   43  168 1    
    90   44   45 am   BACKBONE|DICT|INTERRES
    91   44  169 1    
    92   45   46 2    
    93   45   47 1    
    94   47   48 1    
    95   47   49 1    
    96   47  170 1    
    97   48  171 1    
    98   48  172 1    
    99   48  173 1    
   100   49   50 am   BACKBONE|DICT|INTERRES
   101   49  174 1    
   102   50   51 2    
   103   50   52 1    
   104   52   53 1    
   105   52   54 1    
   106   52  175 1    
   107   53  176 1    
   108   53  177 1    
   109   53  178 1    
   110   54   55 am   BACKBONE|DICT|INTERRES
   111   54  179 1    
   112   55   56 2    
   113   55   57 1    
   114   57   58 1    
   115   57   59 1    
   116   57  180 1    
   117   58  181 1    
   118   58  182 1    
   119   58  183 1    
   120   59   60 am   BACKBONE|DICT|INTERRES
   121   59  184 1    
   122   60   61 2    
   123   60   62 1    
   124   62   63 1    
   125   62   64 1    
   126   62  185 1    
   127   63  186 1    
   128   63  187 1    
   129   63  188 1    
   130   64   65 am   BACKBONE|DICT|INTERRES
   131   64  189 1    
   132   65   66 2    
   133   67   68 2    
   134   67   69 am   BACKBONE|DICT|INTERRES
   135   69   70 1    
   136   69  190 1    
   137   70   71 1    
   138   70   72 1    
   139   70  191 1    
   140   71  192 1    
   141   71  193 1    
   142   71  194 1    
   143   72   73 2    
   144   72   74 am   BACKBONE|DICT|INTERRES
   145   74   75 1    
   146   74  195 1    
   147   75   76 1    
   148   75   77 1    
   149   75  196 1    
   150   76  197 1    
   151   76  198 1    
   152   76  199 1    
   153   77   78 2    
   154   77   79 am   BACKBONE|DICT|INTERRES
   155   79   80 1    
   156   79  200 1    
   157   80   81 1    
   158   80   82 1    
   159   80  201 1    
   160   81  202 1    
   161   81  203 1    
   162   81  204 1    
   163   82   83 2    
   164   82   84 am   BACKBONE|DICT|INTERRES
   165   84   85 1    
   166   84  205 1    
   167   85   86 1    
   168   85   87 1    
   169   85  206 1    
   170   86  207 1    
   171   86  208 1    
   172   86  209 1    
   173   87   88 2    
   174   87   89 am   BACKBONE|DICT|INTERRES
   175   89   90 1    
   176   89  210 1    
   177   90   91 1    
   178   90   92 1    
   179   90  211 1    
   180   91  212 1    
   181   91  213 1    
   182   91  214 1    
   183   92   93 2    
   184   92   94 am   BACKBONE|DICT|INTERRES
   185   94   95 1    
   186   94  215 1    
   187   95   96 1    
   188   95   97 1    
   189   95  216 1    
   190   96  217 1    
   191   96  218 1    
   192   96  219 1    
   193   97   98 2    
   194   97   99 am   BACKBONE|DICT|INTERRES
   195   99  100 1    
   196   99  220 1    
   197  100  101 1    
   198  100  102 1    
   199  100  221 1    
   200  101  222 1    
   201  101  223 1    
   202  101  224 1    
   203  102  103 2    
   204  102  104 am   BACKBONE|DICT|INTERRES
   205  104  105 1    
   206  104  225 1    
   207  105  106 1    
   208  105  107 1    
   209  105  226 1    
   210  106  227 1    
   211  106  228 1    
   212  106  229 1    
   213  107  108 2    
   214  107  109 am   BACKBONE|DICT|INTERRES
   215  109  110 1    
   216  109  230 1    
   217  110  111 1    
   218  110  112 1    
   219  110  231 1    
   220  111  232 1    
   221  111  233 1    
   222  111  234 1    
   223  112  113 2    
   224  112  114 am   BACKBONE|DICT|INTERRES
   225  114  115 1    
   226  114  235 1    
   227  115  116 1    
   228  115  117 1    
   229  115  236 1    
   230  116  237 1    
   231  116  238 1    
   232  116  239 1    
   233  117  118 2    
   234  117  119 am   BACKBONE|DICT|INTERRES
   235  119  120 1    
   236  119  240 1    
   237  120  121 1    
   238  120  124 1    
   239  120  241 1    
   240  121  122 am   BACKBONE|DICT|INTERRES
   241  121  123 2    
   242  122  242 1    
   243  122  243 1    
   244  124  125 1    
   245  124  244 1    
   246  124  245 1    
   247  125  126 1    
   248  126  246 1    
   249  126  247 1    
@<TRIPOS>SUBSTRUCTURE
     1 UNK         1 GROUP             0       ****    0 ROOT    
