@<TRIPOS>MOLECULE
3R540
247   249    1
SMALL
USER_CHARGES


@<TRIPOS>ATOM
      1 CA         -3.8077  -12.6821  -50.4202 C.3       0 UNK        -0.1800 
      2 C          -2.4752  -12.0495  -50.0451 C.2       0 UNK         0.5000 
      3 O          -2.4364  -11.1820  -49.1729 O.2       0 UNK        -0.5000 
      4 N          -1.3842  -12.4753  -50.6978 N.am      1 UNK        -0.5000 
      5 CA         -0.0226  -11.9788  -50.4567 C.3       1 UNK         0.1400 
      6 C6          0.9184  -12.2719  -51.6557 C.3       23 UNK        -0.0398 
      7 S7          1.5713  -13.9781  -51.7846 S.3       23 UNK        -0.2404 
      8 C8          0.3313  -14.8315  -52.8086 C.3       23 UNK        -0.0205 
      9 C9         -0.4501  -15.8641  -52.0069 C.ar      23 UNK        -0.0193 
     10 C10        -1.8299  -15.7309  -51.8220 C.ar      23 UNK        -0.1150 
     11 C11        -2.5520  -16.7145  -51.1386 C.ar      23 UNK        -0.0193 
     12 C12        -1.8820  -17.8316  -50.6344 C.ar      23 UNK        -0.1150 
     13 C13        -0.5070  -17.9842  -50.8174 C.ar      23 UNK        -0.0193 
     14 C14         0.2041  -16.9907  -51.4962 C.ar      23 UNK        -0.1150 
     15 C15         0.1977  -19.2477  -50.3418 C.3       23 UNK        -0.0205 
     16 S16         0.6230  -19.1880  -48.5726 S.3       23 UNK        -0.2404 
     17 C17        -0.8308  -19.9747  -47.7952 C.3       23 UNK        -0.0398 
     18 CA         -0.5135  -21.4059  -47.2981 C.3       11 UNK         0.1400 
     19 N           0.4102  -21.4154  -46.1604 N.am      11 UNK        -0.5000 
     20 C           1.0167  -22.5103  -45.6815 C.2       10 UNK         0.5000 
     21 O           0.8825  -23.6331  -46.1677 O.2       10 UNK        -0.5000 
     22 CA          1.8942  -22.3307  -44.4299 C.3       10 UNK         0.1400 
     23 CB          3.2656  -21.7420  -44.7944 C.3       10 UNK        -0.1800 
     24 N           1.2492  -21.5005  -43.4127 N.am      10 UNK        -0.5000 
     25 C           0.1575  -21.8656  -42.7246 C.2       9 UNK         0.5000 
     26 O          -0.3872  -22.9643  -42.8369 O.2       9 UNK        -0.5000 
     27 CA         -0.4431  -20.8234  -41.7627 C.3       9 UNK         0.1400 
     28 CB          0.2832  -20.8560  -40.4098 C.3       9 UNK        -0.1800 
     29 N          -0.4206  -19.4605  -42.2953 N.am      9 UNK        -0.5000 
     30 C          -1.0647  -19.0624  -43.4022 C.2       8 UNK         0.5000 
     31 O          -1.7618  -19.7998  -44.0958 O.2       8 UNK        -0.5000 
     32 CA         -0.8396  -17.6099  -43.8501 C.3       8 UNK         0.1400 
     33 CB         -1.6307  -16.6359  -42.9644 C.3       8 UNK        -0.1800 
     34 N           0.5752  -17.2433  -43.8535 N.am      8 UNK        -0.5000 
     35 C           1.5294  -17.8691  -44.5574 C.2       7 UNK         0.5000 
     36 O           1.3197  -18.8259  -45.3000 O.2       7 UNK        -0.5000 
     37 CA          2.9683  -17.3737  -44.3543 C.3       7 UNK         0.1400 
     38 CB          3.2172  -16.0700  -45.1299 C.3       7 UNK        -0.1800 
     39 N           3.2695  -17.1831  -42.9360 N.am      7 UNK        -0.5000 
     40 C           3.3677  -18.1821  -42.0463 C.2       6 UNK         0.5000 
     41 O           3.2662  -19.3739  -42.3382 O.2       6 UNK        -0.5000 
     42 CA          3.5757  -17.7754  -40.5765 C.3       6 UNK         0.1400 
     43 CB          5.0589  -17.4917  -40.2955 C.3       6 UNK        -0.1800 
     44 N           2.7772  -16.6078  -40.2001 N.am      6 UNK        -0.5000 
     45 C           1.4389  -16.6014  -40.1257 C.2       5 UNK         0.5000 
     46 O           0.7360  -17.5884  -40.3418 O.2       5 UNK        -0.5000 
     47 CA          0.7731  -15.2520  -39.7971 C.3       5 UNK         0.1400 
     48 CB          0.7298  -15.0265  -38.2784 C.3       5 UNK        -0.1800 
     49 N           1.4165  -14.1026  -40.4430 N.am      5 UNK        -0.5000 
     50 C           1.5254  -13.9410  -41.7680 C.2       4 UNK         0.5000 
     51 O           1.1704  -14.7862  -42.5907 O.2       4 UNK        -0.5000 
     52 CA          2.1792  -12.6406  -42.2617 C.3       4 UNK         0.1400 
     53 CB          3.6720  -12.8676  -42.5460 C.3       4 UNK        -0.1800 
     54 N           1.5262  -12.1680  -43.4818 N.am      4 UNK        -0.5000 
     55 C           0.3111  -11.6041  -43.5215 C.2       3 UNK         0.5000 
     56 O          -0.3466  -11.3278  -42.5171 O.2       3 UNK        -0.5000 
     57 CA         -0.2670  -11.2882  -44.9135 C.3       3 UNK         0.1400 
     58 CB          0.0678   -9.8459  -45.3230 C.3       3 UNK        -0.1800 
     59 N           0.2097  -12.1985  -45.9553 N.am      3 UNK        -0.5000 
     60 C          -0.2094  -13.4582  -46.1260 C.2       2 UNK         0.5000 
     61 O          -1.0554  -13.9954  -45.4112 O.2       2 UNK        -0.5000 
     62 CA          0.3924  -14.2152  -47.3291 C.3       2 UNK         0.1400 
     63 CB         -0.0573  -15.6839  -47.3986 C.3       2 UNK        -0.1800 
     64 N           0.0369  -13.5810  -48.5950 N.am      2 UNK        -0.5000 
     65 C           0.5569  -12.4565  -49.1047 C.2       1 UNK         0.5000 
     66 O           1.4411  -11.8011  -48.5498 O.2       1 UNK        -0.5000 
     67 C          -1.8025  -22.1963  -46.9931 C.2       11 UNK         0.5000 
     68 O          -2.2123  -23.0188  -47.8117 O.2       11 UNK        -0.5000 
     69 N          -2.3863  -21.9832  -45.8039 N.am      12 UNK        -0.5000 
     70 CA         -3.6243  -22.6093  -45.3210 C.3       12 UNK         0.1400 
     71 CB         -4.0418  -21.9473  -43.9982 C.3       12 UNK        -0.1800 
     72 C          -3.5849  -24.1443  -45.1655 C.2       12 UNK         0.5000 
     73 O          -4.6342  -24.7461  -44.9327 O.2       12 UNK        -0.5000 
     74 N          -2.4035  -24.7611  -45.3048 N.am      13 UNK        -0.5000 
     75 CA         -2.2354  -26.2115  -45.3933 C.3       13 UNK         0.1400 
     76 CB         -0.7415  -26.5504  -45.2851 C.3       13 UNK        -0.1800 
     77 C          -2.8339  -26.8069  -46.6861 C.2       13 UNK         0.5000 
     78 O          -3.2178  -27.9775  -46.6860 O.2       13 UNK        -0.5000 
     79 N          -2.9098  -26.0016  -47.7550 N.am      14 UNK        -0.5000 
     80 CA         -3.5526  -26.3567  -49.0176 C.3       14 UNK         0.1400 
     81 CB         -2.8344  -25.6194  -50.1545 C.3       14 UNK        -0.1800 
     82 C          -5.0427  -25.9771  -49.0026 C.2       14 UNK         0.5000 
     83 O          -5.4463  -25.0693  -48.2699 O.2       14 UNK        -0.5000 
     84 N          -5.8293  -26.6503  -49.8532 N.am      15 UNK        -0.5000 
     85 CA         -7.2484  -26.3710  -50.0850 C.3       15 UNK         0.1400 
     86 CB         -7.8149  -27.4036  -51.0709 C.3       15 UNK        -0.1800 
     87 C          -7.4575  -24.9401  -50.6134 C.2       15 UNK         0.5000 
     88 O          -6.7744  -24.5370  -51.5574 O.2       15 UNK        -0.5000 
     89 N          -8.3481  -24.1851  -49.9533 N.am      16 UNK        -0.5000 
     90 CA         -8.6366  -22.7592  -50.1799 C.3       16 UNK         0.1400 
     91 CB         -9.3295  -22.5608  -51.5444 C.3       16 UNK        -0.1800 
     92 C          -7.4054  -21.8360  -50.0078 C.2       16 UNK         0.5000 
     93 O          -7.3936  -20.7262  -50.5412 O.2       16 UNK        -0.5000 
     94 N          -6.3850  -22.3279  -49.2875 N.am      17 UNK        -0.5000 
     95 CA         -5.0482  -21.7591  -49.1025 C.3       17 UNK         0.1400 
     96 CB         -5.1073  -20.4198  -48.3390 C.3       17 UNK        -0.1800 
     97 C          -4.2120  -21.6645  -50.3987 C.2       17 UNK         0.5000 
     98 O          -3.1926  -20.9741  -50.4124 O.2       17 UNK        -0.5000 
     99 N          -4.6264  -22.3573  -51.4688 N.am      18 UNK        -0.5000 
    100 CA        -4.0250  -22.2759  -52.7989 C.3       18 UNK         0.1400 
    101 CB        -5.1011  -22.5977  -53.8504 C.3       18 UNK        -0.1800 
    102 C         -2.7754  -23.1702  -52.9275 C.2       18 UNK         0.5000 
    103 O         -2.7368  -24.0740  -53.7654 O.2       18 UNK        -0.5000 
    104 N         -1.7680  -22.9135  -52.0841 N.am      19 UNK        -0.5000 
    105 CA        -0.4942  -23.6348  -52.0207 C.3       19 UNK         0.1400 
    106 CB         0.1435  -23.3975  -50.6401 C.3       19 UNK        -0.1800 
    107 C          0.4443  -23.2434  -53.1809 C.2       19 UNK         0.5000 
    108 O          1.4788  -22.6139  -52.9538 O.2       19 UNK        -0.5000 
    109 N          0.0351  -23.5965  -54.4090 N.am      20 UNK        -0.5000 
    110 CA         0.6675  -23.2615  -55.6933 C.3       20 UNK         0.1400 
    111 CB         2.0330  -23.9659  -55.8346 C.3       20 UNK        -0.1800 
    112 C          0.7437  -21.7370  -55.9344 C.2       20 UNK         0.5000 
    113 O          1.7071  -21.2407  -56.5216 O.2       20 UNK        -0.5000 
    114 N         -0.2804  -21.0253  -55.4548 N.am      21 UNK        -0.5000 
    115 CA        -0.4121  -19.5754  -55.4309 C.3       21 UNK         0.1400 
    116 CB         0.5313  -18.9860  -54.3623 C.3       21 UNK        -0.1800 
    117 C         -1.8856  -19.2328  -55.1502 C.2       21 UNK         0.5000 
    118 O         -2.7209  -20.1381  -55.0684 O.2       21 UNK        -0.5000 
    119 N         -2.1722  -17.9362  -54.9973 N.am      22 UNK        -0.5000 
    120 CA        -3.5101  -17.3585  -54.7971 C.3       22 UNK         0.1400 
    121 C         -4.4043  -17.3865  -56.0753 C.2       22 UNK         0.5000 
    122 N         -5.6688  -17.0003  -55.9697 N.am      22 UNK        -0.7600 
    123 O         -3.9602  -17.7140  -57.1742 O.2       22 UNK        -0.5000 
    124 C124       -4.2321  -17.8979  -53.5207 C.3       23 UNK        -0.0398 
    125 S125       -4.9717  -16.5353  -52.5502 S.3       23 UNK        -0.2404 
    126 C126       -4.0628  -16.6080  -50.9686 C.3       23 UNK        -0.0205 
    127 H127       -4.1484  -13.3382  -49.6195 H         1 UNK         0.0600 
    128 H128       -3.7406  -13.2639  -51.3387 H         1 UNK         0.0600 
    129 H129       -4.5610  -11.9086  -50.5700 H         1 UNK         0.0600 
    130 H130       -1.4692  -13.1954  -51.3985 H         1 UNK         0.3000 
    131 H131       -0.0964  -10.8915  -50.3824 H         1 UNK         0.0600 
    132 H132        1.7873  -11.6158  -51.5818 H         1 UNK         0.0800 
    133 H133        0.4368  -11.9913  -52.5932 H         1 UNK         0.0800 
    134 H134        0.8486  -15.3414  -53.6223 H         1 UNK         0.0800 
    135 H135       -0.3376  -14.1126  -53.2831 H         1 UNK         0.0800 
    136 H136       -2.3537  -14.8866  -52.2441 H         1 UNK         0.1150 
    137 H137       -2.4407  -18.5983  -50.1212 H         1 UNK         0.1150 
    138 H138        1.2675  -17.1055  -51.6531 H         1 UNK         0.1150 
    139 H139       -0.4248  -20.1178  -50.5532 H         1 UNK         0.0800 
    140 H140        1.1170  -19.3950  -50.9104 H         1 UNK         0.0800 
    141 H141       -1.6506  -19.9886  -48.5119 H         1 UNK         0.0800 
    142 H142       -1.1641  -19.3461  -46.9677 H         1 UNK         0.0800 
    143 H143       -0.0170  -21.9343  -48.1133 H         1 UNK         0.0600 
    144 H144        0.6194  -20.5124  -45.7395 H         1 UNK         0.3000 
    145 H145        2.0601  -23.3199  -43.9981 H         1 UNK         0.0600 
    146 H146        3.9131  -21.6823  -43.9195 H         1 UNK         0.0600 
    147 H147        3.7725  -22.3641  -45.5330 H         1 UNK         0.0600 
    148 H148        3.1794  -20.7400  -45.2142 H         1 UNK         0.0600 
    149 H149        1.6545  -20.5873  -43.2450 H         1 UNK         0.3000 
    150 H150       -1.4874  -21.0939  -41.5944 H         1 UNK         0.0600 
    151 H151        0.2769  -21.8607  -39.9853 H         1 UNK         0.0600 
    152 H152       -0.1984  -20.1954  -39.6886 H         1 UNK         0.0600 
    153 H153        1.3240  -20.5443  -40.5053 H         1 UNK         0.0600 
    154 H154        0.1138  -18.7768  -41.7665 H         1 UNK         0.3000 
    155 H155       -1.2063  -17.5140  -44.8739 H         1 UNK         0.0600 
    156 H156       -1.3143  -16.6877  -41.9230 H         1 UNK         0.0600 
    157 H157       -2.6974  -16.8602  -42.9956 H         1 UNK         0.0600 
    158 H158       -1.5045  -15.6064  -43.2985 H         1 UNK         0.0600 
    159 H159        0.8323  -16.4309  -43.2961 H         1 UNK         0.3000 
    160 H160        3.6452  -18.1357  -44.7466 H         1 UNK         0.0600 
    161 H161        2.5552  -15.2676  -44.8047 H         1 UNK         0.0600 
    162 H162        3.0474  -16.2184  -46.1971 H         1 UNK         0.0600 
    163 H163        4.2452  -15.7285  -45.0090 H         1 UNK         0.0600 
    164 H164        3.3037  -16.2321  -42.6016 H         1 UNK         0.3000 
    165 H165        3.2646  -18.6158  -39.9520 H         1 UNK         0.0600 
    166 H166        5.2261  -17.2788  -39.2394 H         1 UNK         0.0600 
    167 H167        5.6760  -18.3533  -40.5539 H         1 UNK         0.0600 
    168 H168        5.4245  -16.6410  -40.8719 H         1 UNK         0.0600 
    169 H169        3.2756  -15.7515  -40.0083 H         1 UNK         0.3000 
    170 H170       -0.2553  -15.2987  -40.1608 H         1 UNK         0.0600 
    171 H171        0.2392  -15.8601  -37.7740 H         1 UNK         0.0600 
    172 H172        1.7306  -14.9301  -37.8558 H         1 UNK         0.0600 
    173 H173        0.1711  -14.1243  -38.0292 H         1 UNK         0.0600 
    174 H174        1.7458  -13.3701  -39.8308 H         1 UNK         0.3000 
    175 H175        2.0817  -11.8740  -41.4901 H         1 UNK         0.0600 
    176 H176        3.8275  -13.6191  -43.3206 H         1 UNK         0.0600 
    177 H177        4.1546  -11.9463  -42.8727 H         1 UNK         0.0600 
    178 H178        4.1942  -13.2063  -41.6503 H         1 UNK         0.0600 
    179 H179        1.9765  -12.3927  -44.3557 H         1 UNK         0.3000 
    180 H180       -1.3535  -11.3785  -44.8481 H         1 UNK         0.0600 
    181 H181        1.1434   -9.6952  -45.4235 H         1 UNK         0.0600 
    182 H182       -0.2965   -9.1340  -44.5811 H         1 UNK         0.0600 
    183 H183       -0.3974   -9.5892  -46.2751 H         1 UNK         0.0600 
    184 H184        0.8568  -11.8209  -46.6402 H         1 UNK         0.3000 
    185 H185        1.4786  -14.2001  -47.2195 H         1 UNK         0.0600 
    186 H186        0.2110  -16.2179  -46.4897 H         1 UNK         0.0600 
    187 H187       -1.1365  -15.7747  -47.5273 H         1 UNK         0.0600 
    188 H188        0.4217  -16.2000  -48.2306 H         1 UNK         0.0600 
    189 H189       -0.6963  -14.0318  -49.1217 H         1 UNK         0.3000 
    190 H190       -1.9866  -21.2794  -45.1857 H         1 UNK         0.3000 
    191 H191       -4.4013  -22.3975  -46.0568 H         1 UNK         0.0600 
    192 H192       -4.2221  -20.8807  -44.1315 H         1 UNK         0.0600 
    193 H193       -3.2744  -22.0680  -43.2329 H         1 UNK         0.0600 
    194 H194       -4.9646  -22.3803  -43.6102 H         1 UNK         0.0600 
    195 H195       -1.5834  -24.1965  -45.4793 H         1 UNK         0.3000 
    196 H196       -2.7519  -26.6661  -44.5455 H         1 UNK         0.0600 
    197 H197       -0.5867  -27.6299  -45.2705 H         1 UNK         0.0600 
    198 H198       -0.3085  -26.1457  -44.3699 H         1 UNK         0.0600 
    199 H199       -0.1777  -26.1501  -46.1286 H         1 UNK         0.0600 
    200 H200       -2.6306  -25.0307  -47.6575 H         1 UNK         0.3000 
    201 H201       -3.4632  -27.4314  -49.1900 H         1 UNK         0.0600 
    202 H202       -1.7810  -25.8956  -50.1949 H         1 UNK         0.0600 
    203 H203       -2.8954  -24.5386  -50.0262 H         1 UNK         0.0600 
    204 H204       -3.2719  -25.8597  -51.1244 H         1 UNK         0.0600 
    205 H205       -5.4147  -27.3535  -50.4469 H         1 UNK         0.3000 
    206 H206       -7.7700  -26.4813  -49.1320 H         1 UNK         0.0600 
    207 H207       -7.7110  -28.4178  -50.6847 H         1 UNK         0.0600 
    208 H208       -8.8773  -27.2311  -51.2483 H         1 UNK         0.0600 
    209 H209       -7.3095  -27.3576  -52.0366 H         1 UNK         0.0600 
    210 H210       -8.8424  -24.6026  -49.1765 H         1 UNK         0.3000 
    211 H211       -9.3440  -22.4635  -49.4039 H         1 UNK         0.0600 
    212 H212       -8.6529  -22.7628  -52.3754 H         1 UNK         0.0600 
    213 H213       -9.6877  -21.5370  -51.6577 H         1 UNK         0.0600 
    214 H214      -10.1933  -23.2174  -51.6476 H         1 UNK         0.0600 
    215 H215       -6.4888  -23.2628  -48.9089 H         1 UNK         0.3000 
    216 H216       -4.5353  -22.4771  -48.4683 H         1 UNK         0.0600 
    217 H217       -4.1102  -20.0957  -48.0401 H         1 UNK         0.0600 
    218 H218       -5.7020  -20.5087  -47.4301 H         1 UNK         0.0600 
    219 H219       -5.5380  -19.6249  -48.9482 H         1 UNK         0.0600 
    220 H220       -5.4360  -22.9627  -51.3830 H         1 UNK         0.3000 
    221 H221       -3.7043  -21.2467  -52.9661 H         1 UNK         0.0600 
    222 H222       -5.4585  -23.6242  -53.7619 H         1 UNK         0.0600 
    223 H223       -5.9601  -21.9337  -53.7506 H         1 UNK         0.0600 
    224 H224       -4.7081  -22.4701  -54.8598 H         1 UNK         0.0600 
    225 H225       -1.9027  -22.1584  -51.4196 H         1 UNK         0.3000 
    226 H226       -0.6935  -24.7042  -52.1130 H         1 UNK         0.0600 
    227 H227       -0.5171  -23.7200  -49.8363 H         1 UNK         0.0600 
    228 H228        1.0725  -23.9594  -50.5377 H         1 UNK         0.0600 
    229 H229        0.3786  -22.3458  -50.4796 H         1 UNK         0.0600 
    230 H230       -0.8688  -24.0566  -54.4695 H         1 UNK         0.3000 
    231 H231        0.0113  -23.6577  -56.4694 H         1 UNK         0.0600 
    232 H232        1.9429  -25.0385  -55.6628 H         1 UNK         0.0600 
    233 H233        2.7672  -23.5735  -55.1304 H         1 UNK         0.0600 
    234 H234        2.4396  -23.8323  -56.8377 H         1 UNK         0.0600 
    235 H235       -1.0732  -21.5083  -55.0520 H         1 UNK         0.3000 
    236 H236       -0.1536  -19.1769  -56.4138 H         1 UNK         0.0600 
    237 H237        0.4799  -17.8977  -54.3358 H         1 UNK         0.0600 
    238 H238        0.2792  -19.3561  -53.3684 H         1 UNK         0.0600 
    239 H239        1.5712  -19.2473  -54.5574 H         1 UNK         0.0600 
    240 H240       -1.4268  -17.2640  -55.0999 H         1 UNK         0.3000 
    241 H241       -3.2918  -16.3003  -54.6490 H         1 UNK         0.0600 
    242 H242       -6.2536  -16.9980  -56.7912 H         1 UNK         0.3800 
    243 H243       -6.0507  -16.7003  -55.0853 H         1 UNK         0.3800 
    244 H244       -5.0089  -18.6221  -53.7724 H         1 UNK         0.0800 
    245 H245       -3.5414  -18.4532  -52.8866 H         1 UNK         0.0800 
    246 H246       -4.2946  -15.7176  -50.3843 H         1 UNK         0.0800 
    247 H247       -4.4448  -17.4547  -50.3957 H         1 UNK         0.0800 
@<TRIPOS>BOND
     1    1    2 1    
     2    1  127 1    
     3    1  128 1    
     4    1  129 1    
     5    2    3 2    
     6    2    4 am   BACKBONE|DICT|INTERRES
     7    4    5 1    
     8    4  130 1    
     9    5    6 1    
    10    5   65 1    
    11    5  131 1    
    12    6    7 1    
    13    6  132 1    
    14    6  133 1    
    15    7    8 1    
    16    8    9 1    
    17    8  134 1    
    18    8  135 1    
    19    9   10 ar   
    20    9   14 ar   
    21   10   11 ar   
    22   10  136 1    
    23   11   12 ar   
    24   11  126 1    
    25   12   13 ar   
    26   12  137 1    
    27   13   14 ar   
    28   13   15 1    
    29   14  138 1    
    30   15   16 1    
    31   15  139 1    
    32   15  140 1    
    33   16   17 1    
    34   17   18 1    
    35   17  141 1    
    36   17  142 1    
    37   18   19 1    
    38   18   67 1    
    39   18  143 1    
    40   19   20 am   BACKBONE|DICT|INTERRES
    41   19  144 1    
    42   20   21 2    
    43   20   22 1    
    44   22   23 1    
    45   22   24 1    
    46   22  145 1    
    47   23  146 1    
    48   23  147 1    
    49   23  148 1    
    50   24   25 am   BACKBONE|DICT|INTERRES
    51   24  149 1    
    52   25   26 2    
    53   25   27 1    
    54   27   28 1    
    55   27   29 1    
    56   27  150 1    
    57   28  151 1    
    58   28  152 1    
    59   28  153 1    
    60   29   30 am   BACKBONE|DICT|INTERRES
    61   29  154 1    
    62   30   31 2    
    63   30   32 1    
    64   32   33 1    
    65   32   34 1    
    66   32  155 1    
    67   33  156 1    
    68   33  157 1    
    69   33  158 1    
    70   34   35 am   BACKBONE|DICT|INTERRES
    71   34  159 1    
    72   35   36 2    
    73   35   37 1    
    74   37   38 1    
    75   37   39 1    
    76   37  160 1    
    77   38  161 1    
    78   38  162 1    
    79   38  163 1    
    80   39   40 am   BACKBONE|DICT|INTERRES
    81   39  164 1    
    82   40   41 2    
    83   40   42 1    
    84   42   43 1    
    85   42   44 1    
    86   42  165 1    
    87   43  166 1    
    88   43  167 1    
    89   43  168 1    
    90   44   45 am   BACKBONE|DICT|INTERRES
    91   44  169 1    
    92   45   46 2    
    93   45   47 1    
    94   47   48 1    
    95   47   49 1    
    96   47  170 1    
    97   48  171 1    
    98   48  172 1    
    99   48  173 1    
   100   49   50 am   BACKBONE|DICT|INTERRES
   101   49  174 1    
   102   50   51 2    
   103   50   52 1    
   104   52   53 1    
   105   52   54 1    
   106   52  175 1    
   107   53  176 1    
   108   53  177 1    
   109   53  178 1    
   110   54   55 am   BACKBONE|DICT|INTERRES
   111   54  179 1    
   112   55   56 2    
   113   55   57 1    
   114   57   58 1    
   115   57   59 1    
   116   57  180 1    
   117   58  181 1    
   118   58  182 1    
   119   58  183 1    
   120   59   60 am   BACKBONE|DICT|INTERRES
   121   59  184 1    
   122   60   61 2    
   123   60   62 1    
   124   62   63 1    
   125   62   64 1    
   126   62  185 1    
   127   63  186 1    
   128   63  187 1    
   129   63  188 1    
   130   64   65 am   BACKBONE|DICT|INTERRES
   131   64  189 1    
   132   65   66 2    
   133   67   68 2    
   134   67   69 am   BACKBONE|DICT|INTERRES
   135   69   70 1    
   136   69  190 1    
   137   70   71 1    
   138   70   72 1    
   139   70  191 1    
   140   71  192 1    
   141   71  193 1    
   142   71  194 1    
   143   72   73 2    
   144   72   74 am   BACKBONE|DICT|INTERRES
   145   74   75 1    
   146   74  195 1    
   147   75   76 1    
   148   75   77 1    
   149   75  196 1    
   150   76  197 1    
   151   76  198 1    
   152   76  199 1    
   153   77   78 2    
   154   77   79 am   BACKBONE|DICT|INTERRES
   155   79   80 1    
   156   79  200 1    
   157   80   81 1    
   158   80   82 1    
   159   80  201 1    
   160   81  202 1    
   161   81  203 1    
   162   81  204 1    
   163   82   83 2    
   164   82   84 am   BACKBONE|DICT|INTERRES
   165   84   85 1    
   166   84  205 1    
   167   85   86 1    
   168   85   87 1    
   169   85  206 1    
   170   86  207 1    
   171   86  208 1    
   172   86  209 1    
   173   87   88 2    
   174   87   89 am   BACKBONE|DICT|INTERRES
   175   89   90 1    
   176   89  210 1    
   177   90   91 1    
   178   90   92 1    
   179   90  211 1    
   180   91  212 1    
   181   91  213 1    
   182   91  214 1    
   183   92   93 2    
   184   92   94 am   BACKBONE|DICT|INTERRES
   185   94   95 1    
   186   94  215 1    
   187   95   96 1    
   188   95   97 1    
   189   95  216 1    
   190   96  217 1    
   191   96  218 1    
   192   96  219 1    
   193   97   98 2    
   194   97   99 am   BACKBONE|DICT|INTERRES
   195   99  100 1    
   196   99  220 1    
   197  100  101 1    
   198  100  102 1    
   199  100  221 1    
   200  101  222 1    
   201  101  223 1    
   202  101  224 1    
   203  102  103 2    
   204  102  104 am   BACKBONE|DICT|INTERRES
   205  104  105 1    
   206  104  225 1    
   207  105  106 1    
   208  105  107 1    
   209  105  226 1    
   210  106  227 1    
   211  106  228 1    
   212  106  229 1    
   213  107  108 2    
   214  107  109 am   BACKBONE|DICT|INTERRES
   215  109  110 1    
   216  109  230 1    
   217  110  111 1    
   218  110  112 1    
   219  110  231 1    
   220  111  232 1    
   221  111  233 1    
   222  111  234 1    
   223  112  113 2    
   224  112  114 am   BACKBONE|DICT|INTERRES
   225  114  115 1    
   226  114  235 1    
   227  115  116 1    
   228  115  117 1    
   229  115  236 1    
   230  116  237 1    
   231  116  238 1    
   232  116  239 1    
   233  117  118 2    
   234  117  119 am   BACKBONE|DICT|INTERRES
   235  119  120 1    
   236  119  240 1    
   237  120  121 1    
   238  120  124 1    
   239  120  241 1    
   240  121  122 am   BACKBONE|DICT|INTERRES
   241  121  123 2    
   242  122  242 1    
   243  122  243 1    
   244  124  125 1    
   245  124  244 1    
   246  124  245 1    
   247  125  126 1    
   248  126  246 1    
   249  126  247 1    
@<TRIPOS>SUBSTRUCTURE
     1 UNK         1 GROUP             0       ****    0 ROOT    
