@<TRIPOS>MOLECULE
3R540
247   249    1
SMALL
USER_CHARGES


@<TRIPOS>ATOM
      1 CA         -3.2126  -11.6497  -45.8423 C.3       0 UNK        -0.1800 
      2 C          -1.9979  -12.3525  -46.4303 C.2       0 UNK         0.5000 
      3 O          -1.5642  -13.3700  -45.8976 O.2       0 UNK        -0.5000 
      4 N          -1.4408  -11.8079  -47.5185 N.am      1 UNK        -0.5000 
      5 CA         -0.2787  -12.2962  -48.2821 C.3       1 UNK         0.1400 
      6 C6         -0.3491  -13.7837  -48.7267 C.3       23 UNK        -0.0398 
      7 S7         -1.9244  -14.2266  -49.5414 S.3       23 UNK        -0.2404 
      8 C8         -2.2711  -15.8529  -48.7973 C.3       23 UNK        -0.0205 
      9 C9         -1.5725  -16.9675  -49.5610 C.ar      23 UNK        -0.0193 
     10 C10        -2.2780  -17.7162  -50.5062 C.ar      23 UNK        -0.1150 
     11 C11        -1.6421  -18.7275  -51.2313 C.ar      23 UNK        -0.0193 
     12 C12        -0.2873  -18.9877  -51.0060 C.ar      23 UNK        -0.1150 
     13 C13         0.4278  -18.2523  -50.0563 C.ar      23 UNK        -0.0193 
     14 C14        -0.2232  -17.2489  -49.3322 C.ar      23 UNK        -0.1150 
     15 C15         1.9095  -18.5223  -49.8312 C.3       23 UNK        -0.0205 
     16 S16         2.2275  -20.1424  -49.0607 S.3       23 UNK        -0.2404 
     17 C17         1.4670  -19.9298  -47.4167 C.3       23 UNK        -0.0398 
     18 CA          0.6028  -21.1354  -46.9820 C.3       11 UNK         0.1400 
     19 N           0.2805  -21.0733  -45.5563 N.am      11 UNK        -0.5000 
     20 C          -0.2312  -22.0833  -44.8402 C.2       10 UNK         0.5000 
     21 O          -0.4464  -23.2073  -45.2919 O.2       10 UNK        -0.5000 
     22 CA         -0.6043  -21.7671  -43.3821 C.3       10 UNK         0.1400 
     23 CB          0.6103  -21.9512  -42.4650 C.3       10 UNK        -0.1800 
     24 N          -1.1363  -20.4109  -43.2326 N.am      10 UNK        -0.5000 
     25 C          -2.3431  -20.0437  -43.6871 C.2       9 UNK         0.5000 
     26 O          -3.1138  -20.8099  -44.2649 O.2       9 UNK        -0.5000 
     27 CA         -2.7513  -18.5725  -43.5003 C.3       9 UNK         0.1400 
     28 CB         -3.3142  -18.3472  -42.0892 C.3       9 UNK        -0.1800 
     29 N          -1.6766  -17.6110  -43.7457 N.am      9 UNK        -0.5000 
     30 C          -0.9782  -17.4853  -44.8819 C.2       8 UNK         0.5000 
     31 O          -1.1026  -18.2388  -45.8471 O.2       8 UNK        -0.5000 
     32 CA          0.0359  -16.3364  -44.9575 C.3       8 UNK         0.1400 
     33 CB         -0.1341  -15.2815  -43.8481 C.3       8 UNK        -0.1800 
     34 N           1.3772  -16.8947  -44.8634 N.am      8 UNK        -0.5000 
     35 C           2.3464  -16.7600  -45.7757 C.2       7 UNK         0.5000 
     36 O           2.1888  -16.2012  -46.8609 O.2       7 UNK        -0.5000 
     37 CA          3.7333  -17.3326  -45.4189 C.3       7 UNK         0.1400 
     38 CB          4.8281  -16.2589  -45.5345 C.3       7 UNK        -0.1800 
     39 N           3.7710  -17.8713  -44.0589 N.am      7 UNK        -0.5000 
     40 C           3.8291  -19.1697  -43.7382 C.2       6 UNK         0.5000 
     41 O           3.8548  -20.0813  -44.5641 O.2       6 UNK        -0.5000 
     42 CA          3.8581  -19.5128  -42.2355 C.3       6 UNK         0.1400 
     43 CB          5.3104  -19.6480  -41.7533 C.3       6 UNK        -0.1800 
     44 N           3.1700  -18.5401  -41.3844 N.am      6 UNK        -0.5000 
     45 C           1.8744  -18.2015  -41.4505 C.2       5 UNK         0.5000 
     46 O           1.0725  -18.6704  -42.2607 O.2       5 UNK        -0.5000 
     47 CA          1.4174  -17.0981  -40.4784 C.3       5 UNK         0.1400 
     48 CB          1.0136  -17.7123  -39.1302 C.3       5 UNK        -0.1800 
     49 N           2.4159  -16.0436  -40.2545 N.am      5 UNK        -0.5000 
     50 C           2.9976  -15.2987  -41.2065 C.2       4 UNK         0.5000 
     51 O           2.8194  -15.4585  -42.4154 O.2       4 UNK        -0.5000 
     52 CA          3.9914  -14.2279  -40.7364 C.3       4 UNK         0.1400 
     53 CB          5.4273  -14.6402  -41.0978 C.3       4 UNK        -0.1800 
     54 N           3.6879  -12.9485  -41.3726 N.am      4 UNK        -0.5000 
     55 C           2.7872  -12.0657  -40.9194 C.2       3 UNK         0.5000 
     56 O           2.1395  -12.2220  -39.8834 O.2       3 UNK        -0.5000 
     57 CA          2.5815  -10.7879  -41.7566 C.3       3 UNK         0.1400 
     58 CB          3.5388   -9.6805  -41.2893 C.3       3 UNK        -0.1800 
     59 N           2.7818  -11.0225  -43.1883 N.am      3 UNK        -0.5000 
     60 C           1.8545  -11.5520  -43.9951 C.2       2 UNK         0.5000 
     61 O           0.7026  -11.8124  -43.6389 O.2       2 UNK        -0.5000 
     62 CA          2.3030  -11.8540  -45.4321 C.3       2 UNK         0.1400 
     63 CB          3.2460  -13.0695  -45.4591 C.3       2 UNK        -0.1800 
     64 N           1.1330  -12.1196  -46.2626 N.am      2 UNK        -0.5000 
     65 C           1.0716  -11.9983  -47.5929 C.2       1 UNK         0.5000 
     66 O           2.0279  -11.6422  -48.2833 O.2       1 UNK        -0.5000 
     67 C          -0.6793  -21.2886  -47.8239 C.2       11 UNK         0.5000 
     68 O          -0.7365  -22.1656  -48.6852 O.2       11 UNK        -0.5000 
     69 N          -1.7065  -20.4877  -47.5055 N.am      12 UNK        -0.5000 
     70 CA         -3.0360  -20.5625  -48.1070 C.3       12 UNK         0.1400 
     71 CB         -3.9090  -19.4175  -47.5743 C.3       12 UNK        -0.1800 
     72 C          -3.7132  -21.9248  -47.8775 C.2       12 UNK         0.5000 
     73 O          -4.2426  -22.5007  -48.8277 O.2       12 UNK        -0.5000 
     74 N          -3.6514  -22.4341  -46.6383 N.am      13 UNK        -0.5000 
     75 CA         -4.1589  -23.7524  -46.2562 C.3       13 UNK         0.1400 
     76 CB         -4.0316  -23.9435  -44.7376 C.3       13 UNK        -0.1800 
     77 C          -3.4677  -24.8985  -47.0158 C.2       13 UNK         0.5000 
     78 O          -4.1592  -25.7549  -47.5699 O.2       13 UNK        -0.5000 
     79 N          -2.1267  -24.8645  -47.0643 N.am      14 UNK        -0.5000 
     80 CA         -1.2890  -25.8191  -47.7951 C.3       14 UNK         0.1400 
     81 CB          0.1918  -25.5406  -47.4976 C.3       14 UNK        -0.1800 
     82 C          -1.5480  -25.8121  -49.3125 C.2       14 UNK         0.5000 
     83 O          -1.5667  -26.8763  -49.9313 O.2       14 UNK        -0.5000 
     84 N          -1.8106  -24.6264  -49.8753 N.am      15 UNK        -0.5000 
     85 CA         -2.1945  -24.3940  -51.2685 C.3       15 UNK         0.1400 
     86 CB         -1.8439  -22.9434  -51.6300 C.3       15 UNK        -0.1800 
     87 C          -3.6760  -24.7289  -51.5636 C.2       15 UNK         0.5000 
     88 O          -4.3308  -24.0005  -52.3108 O.2       15 UNK        -0.5000 
     89 N          -4.1665  -25.8323  -50.9806 N.am      16 UNK        -0.5000 
     90 CA         -5.5002  -26.4210  -51.1273 C.3       16 UNK         0.1400 
     91 CB         -5.6533  -27.0569  -52.5237 C.3       16 UNK        -0.1800 
     92 C          -6.6486  -25.4565  -50.7628 C.2       16 UNK         0.5000 
     93 O          -7.6394  -25.3735  -51.4909 O.2       16 UNK        -0.5000 
     94 N          -6.4932  -24.7703  -49.6209 N.am      17 UNK        -0.5000 
     95 CA         -7.4349  -23.8093  -49.0347 C.3       17 UNK         0.1400 
     96 CB         -8.7407  -24.5083  -48.6000 C.3       17 UNK        -0.1800 
     97 C          -7.6666  -22.5733  -49.9305 C.2       17 UNK         0.5000 
     98 O          -8.8101  -22.2192  -50.2258 O.2       17 UNK        -0.5000 
     99 N          -6.5498  -21.9325  -50.2972 N.am      18 UNK        -0.5000 
    100 CA        -6.3943  -20.7005  -51.0726 C.3       18 UNK         0.1400 
    101 CB        -7.1563  -19.5303  -50.4169 C.3       18 UNK        -0.1800 
    102 C         -6.7414  -20.8307  -52.5690 C.2       18 UNK         0.5000 
    103 O         -7.3982  -21.7812  -52.9969 O.2       18 UNK        -0.5000 
    104 N         -6.2713  -19.8396  -53.3400 N.am      19 UNK        -0.5000 
    105 CA        -6.4722  -19.5758  -54.7728 C.3       19 UNK         0.1400 
    106 CB        -7.9631  -19.3451  -55.0833 C.3       19 UNK        -0.1800 
    107 C         -5.8658  -20.6055  -55.7483 C.2       19 UNK         0.5000 
    108 O         -5.3886  -20.2119  -56.8131 O.2       19 UNK        -0.5000 
    109 N         -5.9121  -21.8934  -55.3958 N.am      20 UNK        -0.5000 
    110 CA        -5.5917  -23.0199  -56.2708 C.3       20 UNK         0.1400 
    111 CB        -6.1013  -24.3088  -55.6117 C.3       20 UNK        -0.1800 
    112 C         -4.1029  -23.1610  -56.6376 C.2       20 UNK         0.5000 
    113 O         -3.8059  -23.7068  -57.7018 O.2       20 UNK        -0.5000 
    114 N         -3.1965  -22.7002  -55.7656 N.am      21 UNK        -0.5000 
    115 CA        -1.7527  -22.8981  -55.9161 C.3       21 UNK         0.1400 
    116 CB        -1.3585  -24.2921  -55.3843 C.3       21 UNK        -0.1800 
    117 C         -0.9411  -21.7529  -55.2856 C.2       21 UNK         0.5000 
    118 O          0.1030  -22.0021  -54.6814 O.2       21 UNK        -0.5000 
    119 N         -1.4264  -20.5129  -55.4311 N.am      22 UNK        -0.5000 
    120 CA        -0.7360  -19.3003  -54.9456 C.3       22 UNK         0.1400 
    121 C          0.4100  -18.7947  -55.8721 C.2       22 UNK         0.5000 
    122 N          0.5975  -19.3436  -57.0663 N.am      22 UNK        -0.7600 
    123 O          1.1503  -17.8900  -55.4970 O.2       22 UNK        -0.5000 
    124 C124       -1.7187  -18.1458  -54.6130 C.3       23 UNK        -0.0398 
    125 S125       -3.1553  -18.5955  -53.5781 S.3       23 UNK        -0.2404 
    126 C126       -2.4317  -19.5691  -52.2202 C.3       23 UNK        -0.0205 
    127 H127       -4.0685  -12.3247  -45.8369 H         1 UNK         0.0600 
    128 H128       -3.4832  -10.7606  -46.4122 H         1 UNK         0.0600 
    129 H129       -3.0084  -11.3476  -44.8151 H         1 UNK         0.0600 
    130 H130       -1.8459  -10.9572  -47.8834 H         1 UNK         0.3000 
    131 H131       -0.2836  -11.6981  -49.1949 H         1 UNK         0.0600 
    132 H132        0.4582  -14.0051  -49.4270 H         1 UNK         0.0800 
    133 H133       -0.1822  -14.4374  -47.8705 H         1 UNK         0.0800 
    134 H134       -1.9794  -15.8692  -47.7461 H         1 UNK         0.0800 
    135 H135       -3.3500  -16.0141  -48.8088 H         1 UNK         0.0800 
    136 H136       -3.3249  -17.5117  -50.6813 H         1 UNK         0.1150 
    137 H137        0.2123  -19.7727  -51.5563 H         1 UNK         0.1150 
    138 H138        0.3236  -16.6765  -48.5978 H         1 UNK         0.1150 
    139 H139        2.4245  -18.4843  -50.7920 H         1 UNK         0.0800 
    140 H140        2.3575  -17.7405  -49.2156 H         1 UNK         0.0800 
    141 H141        0.8906  -19.0056  -47.3804 H         1 UNK         0.0800 
    142 H142        2.2849  -19.7992  -46.7094 H         1 UNK         0.0800 
    143 H143        1.1978  -22.0393  -47.1312 H         1 UNK         0.0600 
    144 H144        0.3595  -20.1695  -45.1140 H         1 UNK         0.3000 
    145 H145       -1.3748  -22.4745  -43.0681 H         1 UNK         0.0600 
    146 H146        0.3751  -21.6940  -41.4321 H         1 UNK         0.0600 
    147 H147        0.9543  -22.9861  -42.4771 H         1 UNK         0.0600 
    148 H148        1.4405  -21.3273  -42.7895 H         1 UNK         0.0600 
    149 H149       -0.5276  -19.7199  -42.8036 H         1 UNK         0.3000 
    150 H150       -3.5443  -18.3616  -44.2206 H         1 UNK         0.0600 
    151 H151       -4.1304  -19.0397  -41.8785 H         1 UNK         0.0600 
    152 H152       -3.7104  -17.3376  -41.9783 H         1 UNK         0.0600 
    153 H153       -2.5514  -18.4953  -41.3235 H         1 UNK         0.0600 
    154 H154       -1.4886  -16.9560  -43.0019 H         1 UNK         0.3000 
    155 H155       -0.1183  -15.8454  -45.9194 H         1 UNK         0.0600 
    156 H156        0.0928  -15.6791  -42.8623 H         1 UNK         0.0600 
    157 H157       -1.1486  -14.8831  -43.8218 H         1 UNK         0.0600 
    158 H158        0.5368  -14.4412  -44.0185 H         1 UNK         0.0600 
    159 H159        1.5819  -17.4046  -44.0139 H         1 UNK         0.3000 
    160 H160        3.9513  -18.1131  -46.1501 H         1 UNK         0.0600 
    161 H161        4.6984  -15.4735  -44.7897 H         1 UNK         0.0600 
    162 H162        4.8242  -15.7887  -46.5186 H         1 UNK         0.0600 
    163 H163        5.8171  -16.6932  -45.3882 H         1 UNK         0.0600 
    164 H164        3.6979  -17.1845  -43.3164 H         1 UNK         0.3000 
    165 H165        3.3719  -20.4786  -42.1007 H         1 UNK         0.0600 
    166 H166        5.3532  -19.9762  -40.7146 H         1 UNK         0.0600 
    167 H167        5.8527  -20.3850  -42.3474 H         1 UNK         0.0600 
    168 H168        5.8497  -18.7030  -41.8306 H         1 UNK         0.0600 
    169 H169        3.7377  -18.0779  -40.6896 H         1 UNK         0.3000 
    170 H170        0.5307  -16.6284  -40.9033 H         1 UNK         0.0600 
    171 H171        0.2579  -18.4877  -39.2645 H         1 UNK         0.0600 
    172 H172        1.8649  -18.1678  -38.6226 H         1 UNK         0.0600 
    173 H173        0.5889  -16.9602  -38.4650 H         1 UNK         0.0600 
    174 H174        2.6362  -15.8451  -39.2890 H         1 UNK         0.3000 
    175 H175        3.9277  -14.1205  -39.6513 H         1 UNK         0.0600 
    176 H176        5.5560  -14.7595  -42.1747 H         1 UNK         0.0600 
    177 H177        6.1480  -13.8977  -40.7549 H         1 UNK         0.0600 
    178 H178        5.6911  -15.5892  -40.6292 H         1 UNK         0.0600 
    179 H179        4.1349  -12.7720  -42.2588 H         1 UNK         0.3000 
    180 H180        1.5593  -10.4408  -41.5896 H         1 UNK         0.0600 
    181 H181        4.5830   -9.9612  -41.4327 H         1 UNK         0.0600 
    182 H182        3.3993   -9.4663  -40.2288 H         1 UNK         0.0600 
    183 H183        3.3626   -8.7521  -41.8328 H         1 UNK         0.0600 
    184 H184        3.6974  -10.8110  -43.5585 H         1 UNK         0.3000 
    185 H185        2.8235  -10.9751  -45.8182 H         1 UNK         0.0600 
    186 H186        4.1656  -12.8711  -44.9082 H         1 UNK         0.0600 
    187 H187        2.7743  -13.9413  -45.0055 H         1 UNK         0.0600 
    188 H188        3.5311  -13.3362  -46.4768 H         1 UNK         0.0600 
    189 H189        0.3009  -12.4036  -45.7529 H         1 UNK         0.3000 
    190 H190       -1.5611  -19.7617  -46.8075 H         1 UNK         0.3000 
    191 H191       -2.9165  -20.4288  -49.1830 H         1 UNK         0.0600 
    192 H192       -3.4495  -18.4488  -47.7671 H         1 UNK         0.0600 
    193 H193       -4.8870  -19.4170  -48.0553 H         1 UNK         0.0600 
    194 H194       -4.0705  -19.4987  -46.4994 H         1 UNK         0.0600 
    195 H195       -3.2425  -21.8733  -45.8962 H         1 UNK         0.3000 
    196 H196       -5.2203  -23.7821  -46.5073 H         1 UNK         0.0600 
    197 H197       -4.4152  -24.9180  -44.4328 H         1 UNK         0.0600 
    198 H198       -4.6007  -23.1872  -44.1969 H         1 UNK         0.0600 
    199 H199       -2.9948  -23.8806  -44.4076 H         1 UNK         0.0600 
    200 H200       -1.6351  -24.1326  -46.5593 H         1 UNK         0.3000 
    201 H201       -1.5282  -26.8180  -47.4250 H         1 UNK         0.0600 
    202 H202        0.4048  -25.6390  -46.4331 H         1 UNK         0.0600 
    203 H203        0.4814  -24.5352  -47.8050 H         1 UNK         0.0600 
    204 H204        0.8367  -26.2450  -48.0245 H         1 UNK         0.0600 
    205 H205       -1.7384  -23.7956  -49.2955 H         1 UNK         0.3000 
    206 H206       -1.5941  -25.0474  -51.9041 H         1 UNK         0.0600 
    207 H207       -0.7789  -22.7481  -51.5025 H         1 UNK         0.0600 
    208 H208       -2.0912  -22.7225  -52.6674 H         1 UNK         0.0600 
    209 H209       -2.3908  -22.2418  -51.0004 H         1 UNK         0.0600 
    210 H210       -3.5265  -26.3509  -50.3905 H         1 UNK         0.3000 
    211 H211       -5.5515  -27.2301  -50.3973 H         1 UNK         0.0600 
    212 H212       -5.6266  -26.3078  -53.3128 H         1 UNK         0.0600 
    213 H213       -6.6000  -27.5913  -52.6106 H         1 UNK         0.0600 
    214 H214       -4.8575  -27.7758  -52.7185 H         1 UNK         0.0600 
    215 H215       -5.6261  -24.9007  -49.1130 H         1 UNK         0.3000 
    216 H216       -6.9581  -23.4347  -48.1285 H         1 UNK         0.0600 
    217 H217       -9.3871  -23.8192  -48.0555 H         1 UNK         0.0600 
    218 H218       -8.5355  -25.3505  -47.9391 H         1 UNK         0.0600 
    219 H219       -9.3086  -24.8810  -49.4528 H         1 UNK         0.0600 
    220 H220       -5.6725  -22.3311  -49.9682 H         1 UNK         0.3000 
    221 H221       -5.3315  -20.4726  -51.0110 H         1 UNK         0.0600 
    222 H222       -8.2356  -19.6345  -50.5316 H         1 UNK         0.0600 
    223 H223       -6.9394  -19.4615  -49.3513 H         1 UNK         0.0600 
    224 H224       -6.8753  -18.5768  -50.8650 H         1 UNK         0.0600 
    225 H225       -5.6966  -19.1425  -52.8870 H         1 UNK         0.3000 
    226 H226       -5.9551  -18.6350  -54.9678 H         1 UNK         0.0600 
    227 H227       -8.3774  -18.5523  -54.4605 H         1 UNK         0.0600 
    228 H228       -8.1031  -19.0477  -56.1233 H         1 UNK         0.0600 
    229 H229       -8.5568  -20.2451  -54.9200 H         1 UNK         0.0600 
    230 H230       -6.3535  -22.1138  -54.5061 H         1 UNK         0.3000 
    231 H231       -6.1406  -22.8803  -57.2045 H         1 UNK         0.0600 
    232 H232       -5.6248  -24.4656  -54.6449 H         1 UNK         0.0600 
    233 H233       -5.8916  -25.1820  -56.2310 H         1 UNK         0.0600 
    234 H234       -7.1789  -24.2730  -55.4510 H         1 UNK         0.0600 
    235 H235       -3.5159  -22.2629  -54.9122 H         1 UNK         0.3000 
    236 H236       -1.4992  -22.8663  -56.9777 H         1 UNK         0.0600 
    237 H237       -1.8799  -25.0830  -55.9234 H         1 UNK         0.0600 
    238 H238       -0.2903  -24.4759  -55.5047 H         1 UNK         0.0600 
    239 H239       -1.5960  -24.3998  -54.3269 H         1 UNK         0.0600 
    240 H240       -2.2860  -20.3719  -55.9423 H         1 UNK         0.3000 
    241 H241       -0.2278  -19.5565  -54.0155 H         1 UNK         0.0600 
    242 H242        1.3459  -19.0092  -57.6533 H         1 UNK         0.3800 
    243 H243       -0.0006  -20.0849  -57.3928 H         1 UNK         0.3800 
    244 H244       -1.1891  -17.3392  -54.1026 H         1 UNK         0.0800 
    245 H245       -2.1102  -17.7123  -55.5347 H         1 UNK         0.0800 
    246 H246       -1.8189  -20.3706  -52.6262 H         1 UNK         0.0800 
    247 H247       -3.2378  -20.0611  -51.6808 H         1 UNK         0.0800 
@<TRIPOS>BOND
     1    1    2 1    
     2    1  127 1    
     3    1  128 1    
     4    1  129 1    
     5    2    3 2    
     6    2    4 am   BACKBONE|DICT|INTERRES
     7    4    5 1    
     8    4  130 1    
     9    5    6 1    
    10    5   65 1    
    11    5  131 1    
    12    6    7 1    
    13    6  132 1    
    14    6  133 1    
    15    7    8 1    
    16    8    9 1    
    17    8  134 1    
    18    8  135 1    
    19    9   10 ar   
    20    9   14 ar   
    21   10   11 ar   
    22   10  136 1    
    23   11   12 ar   
    24   11  126 1    
    25   12   13 ar   
    26   12  137 1    
    27   13   14 ar   
    28   13   15 1    
    29   14  138 1    
    30   15   16 1    
    31   15  139 1    
    32   15  140 1    
    33   16   17 1    
    34   17   18 1    
    35   17  141 1    
    36   17  142 1    
    37   18   19 1    
    38   18   67 1    
    39   18  143 1    
    40   19   20 am   BACKBONE|DICT|INTERRES
    41   19  144 1    
    42   20   21 2    
    43   20   22 1    
    44   22   23 1    
    45   22   24 1    
    46   22  145 1    
    47   23  146 1    
    48   23  147 1    
    49   23  148 1    
    50   24   25 am   BACKBONE|DICT|INTERRES
    51   24  149 1    
    52   25   26 2    
    53   25   27 1    
    54   27   28 1    
    55   27   29 1    
    56   27  150 1    
    57   28  151 1    
    58   28  152 1    
    59   28  153 1    
    60   29   30 am   BACKBONE|DICT|INTERRES
    61   29  154 1    
    62   30   31 2    
    63   30   32 1    
    64   32   33 1    
    65   32   34 1    
    66   32  155 1    
    67   33  156 1    
    68   33  157 1    
    69   33  158 1    
    70   34   35 am   BACKBONE|DICT|INTERRES
    71   34  159 1    
    72   35   36 2    
    73   35   37 1    
    74   37   38 1    
    75   37   39 1    
    76   37  160 1    
    77   38  161 1    
    78   38  162 1    
    79   38  163 1    
    80   39   40 am   BACKBONE|DICT|INTERRES
    81   39  164 1    
    82   40   41 2    
    83   40   42 1    
    84   42   43 1    
    85   42   44 1    
    86   42  165 1    
    87   43  166 1    
    88   43  167 1    
    89   43  168 1    
    90   44   45 am   BACKBONE|DICT|INTERRES
    91   44  169 1    
    92   45   46 2    
    93   45   47 1    
    94   47   48 1    
    95   47   49 1    
    96   47  170 1    
    97   48  171 1    
    98   48  172 1    
    99   48  173 1    
   100   49   50 am   BACKBONE|DICT|INTERRES
   101   49  174 1    
   102   50   51 2    
   103   50   52 1    
   104   52   53 1    
   105   52   54 1    
   106   52  175 1    
   107   53  176 1    
   108   53  177 1    
   109   53  178 1    
   110   54   55 am   BACKBONE|DICT|INTERRES
   111   54  179 1    
   112   55   56 2    
   113   55   57 1    
   114   57   58 1    
   115   57   59 1    
   116   57  180 1    
   117   58  181 1    
   118   58  182 1    
   119   58  183 1    
   120   59   60 am   BACKBONE|DICT|INTERRES
   121   59  184 1    
   122   60   61 2    
   123   60   62 1    
   124   62   63 1    
   125   62   64 1    
   126   62  185 1    
   127   63  186 1    
   128   63  187 1    
   129   63  188 1    
   130   64   65 am   BACKBONE|DICT|INTERRES
   131   64  189 1    
   132   65   66 2    
   133   67   68 2    
   134   67   69 am   BACKBONE|DICT|INTERRES
   135   69   70 1    
   136   69  190 1    
   137   70   71 1    
   138   70   72 1    
   139   70  191 1    
   140   71  192 1    
   141   71  193 1    
   142   71  194 1    
   143   72   73 2    
   144   72   74 am   BACKBONE|DICT|INTERRES
   145   74   75 1    
   146   74  195 1    
   147   75   76 1    
   148   75   77 1    
   149   75  196 1    
   150   76  197 1    
   151   76  198 1    
   152   76  199 1    
   153   77   78 2    
   154   77   79 am   BACKBONE|DICT|INTERRES
   155   79   80 1    
   156   79  200 1    
   157   80   81 1    
   158   80   82 1    
   159   80  201 1    
   160   81  202 1    
   161   81  203 1    
   162   81  204 1    
   163   82   83 2    
   164   82   84 am   BACKBONE|DICT|INTERRES
   165   84   85 1    
   166   84  205 1    
   167   85   86 1    
   168   85   87 1    
   169   85  206 1    
   170   86  207 1    
   171   86  208 1    
   172   86  209 1    
   173   87   88 2    
   174   87   89 am   BACKBONE|DICT|INTERRES
   175   89   90 1    
   176   89  210 1    
   177   90   91 1    
   178   90   92 1    
   179   90  211 1    
   180   91  212 1    
   181   91  213 1    
   182   91  214 1    
   183   92   93 2    
   184   92   94 am   BACKBONE|DICT|INTERRES
   185   94   95 1    
   186   94  215 1    
   187   95   96 1    
   188   95   97 1    
   189   95  216 1    
   190   96  217 1    
   191   96  218 1    
   192   96  219 1    
   193   97   98 2    
   194   97   99 am   BACKBONE|DICT|INTERRES
   195   99  100 1    
   196   99  220 1    
   197  100  101 1    
   198  100  102 1    
   199  100  221 1    
   200  101  222 1    
   201  101  223 1    
   202  101  224 1    
   203  102  103 2    
   204  102  104 am   BACKBONE|DICT|INTERRES
   205  104  105 1    
   206  104  225 1    
   207  105  106 1    
   208  105  107 1    
   209  105  226 1    
   210  106  227 1    
   211  106  228 1    
   212  106  229 1    
   213  107  108 2    
   214  107  109 am   BACKBONE|DICT|INTERRES
   215  109  110 1    
   216  109  230 1    
   217  110  111 1    
   218  110  112 1    
   219  110  231 1    
   220  111  232 1    
   221  111  233 1    
   222  111  234 1    
   223  112  113 2    
   224  112  114 am   BACKBONE|DICT|INTERRES
   225  114  115 1    
   226  114  235 1    
   227  115  116 1    
   228  115  117 1    
   229  115  236 1    
   230  116  237 1    
   231  116  238 1    
   232  116  239 1    
   233  117  118 2    
   234  117  119 am   BACKBONE|DICT|INTERRES
   235  119  120 1    
   236  119  240 1    
   237  120  121 1    
   238  120  124 1    
   239  120  241 1    
   240  121  122 am   BACKBONE|DICT|INTERRES
   241  121  123 2    
   242  122  242 1    
   243  122  243 1    
   244  124  125 1    
   245  124  244 1    
   246  124  245 1    
   247  125  126 1    
   248  126  246 1    
   249  126  247 1    
@<TRIPOS>SUBSTRUCTURE
     1 UNK         1 GROUP             0       ****    0 ROOT    
