@<TRIPOS>MOLECULE
3R540
247   249    1
SMALL
USER_CHARGES


@<TRIPOS>ATOM
      1 CA         -1.0779  -13.2931  -49.4879 C.3       0 UNK        -0.1800 
      2 C           0.3738  -12.8414  -49.4091 C.2       0 UNK         0.5000 
      3 O           0.7302  -12.0577  -48.5286 O.2       0 UNK        -0.5000 
      4 N           1.2228  -13.3623  -50.3063 N.am      1 UNK        -0.5000 
      5 CA          2.6636  -13.0722  -50.4086 C.3       1 UNK         0.1400 
      6 C6          3.2672  -13.6014  -51.7369 C.3       23 UNK        -0.0398 
      7 S7          3.1872  -15.4181  -51.9278 S.3       23 UNK        -0.2404 
      8 C8          1.6710  -15.6100  -52.9198 C.3       23 UNK        -0.0205 
      9 C9          1.0513  -16.9925  -52.7606 C.ar      23 UNK        -0.0193 
     10 C10         0.7362  -17.7622  -53.8851 C.ar      23 UNK        -0.1150 
     11 C11         0.1520  -19.0252  -53.7430 C.ar      23 UNK        -0.0193 
     12 C12        -0.0966  -19.5257  -52.4604 C.ar      23 UNK        -0.1150 
     13 C13         0.2065  -18.7639  -51.3300 C.ar      23 UNK        -0.0193 
     14 C14         0.7643  -17.4936  -51.4869 C.ar      23 UNK        -0.1150 
     15 C15        -0.0642  -19.3040  -49.9371 C.3       23 UNK        -0.0205 
     16 S16         1.4165  -20.1094  -49.2521 S.3       23 UNK        -0.2404 
     17 C17         0.9748  -20.1660  -47.4842 C.3       23 UNK        -0.0398 
     18 CA          0.6010  -21.5643  -46.9383 C.3       11 UNK         0.1400 
     19 N           0.3946  -21.5066  -45.4903 N.am      11 UNK        -0.5000 
     20 C           0.1908  -22.5538  -44.6815 C.2       10 UNK         0.5000 
     21 O           0.2196  -23.7249  -45.0567 O.2       10 UNK        -0.5000 
     22 CA         -0.1559  -22.2304  -43.2159 C.3       10 UNK         0.1400 
     23 CB          1.1119  -21.9261  -42.4044 C.3       10 UNK        -0.1800 
     24 N          -1.0988  -21.1150  -43.0978 N.am      10 UNK        -0.5000 
     25 C          -2.3588  -21.1430  -43.5564 C.2       9 UNK         0.5000 
     26 O          -2.8721  -22.1348  -44.0737 O.2       9 UNK        -0.5000 
     27 CA         -3.1669  -19.8353  -43.4686 C.3       9 UNK         0.1400 
     28 CB         -3.7310  -19.6321  -42.0548 C.3       9 UNK        -0.1800 
     29 N          -2.3865  -18.6631  -43.8683 N.am      9 UNK        -0.5000 
     30 C          -1.9071  -18.4583  -45.1037 C.2       8 UNK         0.5000 
     31 O          -2.1229  -19.2110  -46.0519 O.2       8 UNK        -0.5000 
     32 CA         -0.9846  -17.2438  -45.3087 C.3       8 UNK         0.1400 
     33 CB         -1.7990  -15.9626  -45.5379 C.3       8 UNK        -0.1800 
     34 N          -0.0562  -17.0528  -44.1951 N.am      8 UNK        -0.5000 
     35 C           0.9011  -17.9221  -43.8411 C.2       7 UNK         0.5000 
     36 O           1.1409  -18.9583  -44.4581 O.2       7 UNK        -0.5000 
     37 CA          1.6829  -17.6129  -42.5530 C.3       7 UNK         0.1400 
     38 CB          2.8090  -16.6002  -42.8035 C.3       7 UNK        -0.1800 
     39 N           0.8052  -17.1177  -41.4955 N.am      7 UNK        -0.5000 
     40 C          -0.0985  -17.8708  -40.8541 C.2       6 UNK         0.5000 
     41 O          -0.2665  -19.0713  -41.0697 O.2       6 UNK        -0.5000 
     42 CA         -0.9876  -17.1461  -39.8281 C.3       6 UNK         0.1400 
     43 CB         -0.2780  -17.0472  -38.4696 C.3       6 UNK        -0.1800 
     44 N          -1.3749  -15.8061  -40.2738 N.am      6 UNK        -0.5000 
     45 C          -2.1949  -15.5662  -41.3063 C.2       5 UNK         0.5000 
     46 O          -2.7227  -16.4502  -41.9800 O.2       5 UNK        -0.5000 
     47 CA         -2.4255  -14.0902  -41.6748 C.3       5 UNK         0.1400 
     48 CB         -3.4891  -13.4622  -40.7616 C.3       5 UNK        -0.1800 
     49 N          -1.2034  -13.2809  -41.6325 N.am      5 UNK        -0.5000 
     50 C          -0.1400  -13.4777  -42.4216 C.2       4 UNK         0.5000 
     51 O          -0.0401  -14.4125  -43.2188 O.2       4 UNK        -0.5000 
     52 CA          1.0138  -12.4793  -42.2979 C.3       4 UNK         0.1400 
     53 CB          2.0556  -12.9591  -41.2725 C.3       4 UNK        -0.1800 
     54 N           1.6206  -12.3393  -43.6170 N.am      4 UNK        -0.5000 
     55 C           2.3262  -11.2877  -44.0427 C.2       3 UNK         0.5000 
     56 O           2.6086  -10.3308  -43.3189 O.2       3 UNK        -0.5000 
     57 CA          2.7480  -11.2676  -45.5287 C.3       3 UNK         0.1400 
     58 CB          4.1162  -10.5867  -45.7439 C.3       3 UNK        -0.1800 
     59 N           2.7023  -12.5632  -46.2197 N.am      3 UNK        -0.5000 
     60 C           3.4707  -13.6427  -45.9943 C.2       2 UNK         0.5000 
     61 O           4.2447  -13.7487  -45.0432 O.2       2 UNK        -0.5000 
     62 CA          3.3836  -14.7941  -47.0226 C.3       2 UNK         0.1400 
     63 CB          2.4813  -15.9235  -46.5061 C.3       2 UNK        -0.1800 
     64 N           2.8785  -14.3714  -48.3277 N.am      2 UNK        -0.5000 
     65 C           3.4826  -13.5254  -49.1750 C.2       1 UNK         0.5000 
     66 O           4.6176  -13.0798  -49.0008 O.2       1 UNK        -0.5000 
     67 C          -0.6148  -22.1878  -47.6595 C.2       11 UNK         0.5000 
     68 O          -0.4342  -23.0914  -48.4743 O.2       11 UNK        -0.5000 
     69 N          -1.8298  -21.7387  -47.3128 N.am      12 UNK        -0.5000 
     70 CA         -3.0919  -22.2822  -47.8169 C.3       12 UNK         0.1400 
     71 CB         -4.2617  -21.4218  -47.3158 C.3       12 UNK        -0.1800 
     72 C          -3.2954  -23.7620  -47.4434 C.2       12 UNK         0.5000 
     73 O          -3.6920  -24.5543  -48.2971 O.2       12 UNK        -0.5000 
     74 N          -2.9778  -24.1256  -46.1925 N.am      13 UNK        -0.5000 
     75 CA         -3.0055  -25.5042  -45.6998 C.3       13 UNK         0.1400 
     76 CB         -2.7634  -25.5226  -44.1834 C.3       13 UNK        -0.1800 
     77 C          -2.0046  -26.4168  -46.4336 C.2       13 UNK         0.5000 
     78 O          -2.3770  -27.5185  -46.8391 O.2       13 UNK        -0.5000 
     79 N          -0.7753  -25.9243  -46.6465 N.am      14 UNK        -0.5000 
     80 CA          0.2714  -26.5917  -47.4277 C.3       14 UNK         0.1400 
     81 CB          1.5913  -25.8196  -47.2833 C.3       14 UNK        -0.1800 
     82 C          -0.1006  -26.7676  -48.9140 C.2       14 UNK         0.5000 
     83 O           0.2831  -27.7663  -49.5229 O.2       14 UNK        -0.5000 
     84 N          -0.8873  -25.8268  -49.4521 N.am      15 UNK        -0.5000 
     85 CA         -1.4855  -25.8631  -50.7878 C.3       15 UNK         0.1400 
     86 CB         -1.7387  -24.4193  -51.2573 C.3       15 UNK        -0.1800 
     87 C          -2.7705  -26.7215  -50.8648 C.2       15 UNK         0.5000 
     88 O          -3.4892  -26.6329  -51.8602 O.2       15 UNK        -0.5000 
     89 N          -3.0436  -27.5339  -49.8317 N.am      16 UNK        -0.5000 
     90 CA         -4.1644  -28.4706  -49.6997 C.3       16 UNK         0.1400 
     91 CB         -4.1076  -29.5673  -50.7845 C.3       16 UNK        -0.1800 
     92 C          -5.5320  -27.7644  -49.6111 C.2       16 UNK         0.5000 
     93 O          -6.5074  -28.2189  -50.2114 O.2       16 UNK        -0.5000 
     94 N          -5.5664  -26.6648  -48.8460 N.am      17 UNK        -0.5000 
     95 CA         -6.7167  -25.8018  -48.5574 C.3       17 UNK         0.1400 
     96 CB         -7.8722  -26.5868  -47.9008 C.3       17 UNK        -0.1800 
     97 C          -7.1686  -24.9451  -49.7575 C.2       17 UNK         0.5000 
     98 O          -8.2929  -24.4398  -49.7566 O.2       17 UNK        -0.5000 
     99 N          -6.2809  -24.7582  -50.7432 N.am      18 UNK        -0.5000 
    100 CA        -6.4403  -23.7807  -51.8181 C.3       18 UNK         0.1400 
    101 CB        -5.4549  -24.1106  -52.9482 C.3       18 UNK        -0.1800 
    102 C         -6.1959  -22.3562  -51.2878 C.2       18 UNK         0.5000 
    103 O         -5.4195  -22.1774  -50.3469 O.2       18 UNK        -0.5000 
    104 N         -6.8516  -21.3662  -51.9043 N.am      19 UNK        -0.5000 
    105 CA        -6.7026  -19.9500  -51.5666 C.3       19 UNK         0.1400 
    106 CB        -7.7632  -19.1389  -52.3272 C.3       19 UNK        -0.1800 
    107 C         -5.2897  -19.4246  -51.8845 C.2       19 UNK         0.5000 
    108 O         -4.7092  -19.8096  -52.9014 O.2       19 UNK        -0.5000 
    109 N         -4.7797  -18.5403  -51.0194 N.am      20 UNK        -0.5000 
    110 CA        -3.4993  -17.8545  -51.1910 C.3       20 UNK         0.1400 
    111 CB        -3.0928  -17.2294  -49.8445 C.3       20 UNK        -0.1800 
    112 C         -3.5541  -16.7845  -52.3010 C.2       20 UNK         0.5000 
    113 O         -4.6410  -16.3895  -52.7305 O.2       20 UNK        -0.5000 
    114 N         -2.3682  -16.3186  -52.7166 N.am      21 UNK        -0.5000 
    115 CA        -2.1356  -15.3100  -53.7599 C.3       21 UNK         0.1400 
    116 CB        -2.7815  -13.9542  -53.4015 C.3       21 UNK        -0.1800 
    117 C         -2.4784  -15.8006  -55.1823 C.2       21 UNK         0.5000 
    118 O         -2.8248  -14.9953  -56.0486 O.2       21 UNK        -0.5000 
    119 N         -2.3401  -17.1130  -55.4044 N.am      22 UNK        -0.5000 
    120 CA        -2.3581  -17.7648  -56.7213 C.3       22 UNK         0.1400 
    121 C         -1.1729  -17.3423  -57.6400 C.2       22 UNK         0.5000 
    122 N         -1.3159  -17.4971  -58.9495 N.am      22 UNK        -0.7600 
    123 O         -0.1180  -16.9051  -57.1864 O.2       22 UNK        -0.5000 
    124 C124       -2.4981  -19.3177  -56.6300 C.3       23 UNK        -0.0398 
    125 S125       -2.0039  -20.1335  -55.0664 S.3       23 UNK        -0.2404 
    126 C126       -0.2062  -19.8589  -54.9663 C.3       23 UNK        -0.0205 
    127 H127       -1.7201  -12.4491  -49.7394 H         1 UNK         0.0600 
    128 H128       -1.2221  -14.0687  -50.2407 H         1 UNK         0.0600 
    129 H129       -1.3989  -13.6928  -48.5258 H         1 UNK         0.0600 
    130 H130        0.8703  -14.0158  -50.9880 H         1 UNK         0.3000 
    131 H131        2.7545  -11.9841  -50.4333 H         1 UNK         0.0600 
    132 H132        4.3132  -13.3003  -51.8185 H         1 UNK         0.0800 
    133 H133        2.7681  -13.1285  -52.5839 H         1 UNK         0.0800 
    134 H134        0.9354  -14.8651  -52.6209 H         1 UNK         0.0800 
    135 H135        1.9095  -15.4072  -53.9653 H         1 UNK         0.0800 
    136 H136        0.9436  -17.3760  -54.8727 H         1 UNK         0.1150 
    137 H137       -0.5341  -20.5077  -52.3444 H         1 UNK         0.1150 
    138 H138        1.0013  -16.9048  -50.6117 H         1 UNK         0.1150 
    139 H139       -0.3728  -18.4828  -49.2889 H         1 UNK         0.0800 
    140 H140       -0.8924  -20.0147  -49.9537 H         1 UNK         0.0800 
    141 H141        0.1749  -19.4558  -47.2834 H         1 UNK         0.0800 
    142 H142        1.8399  -19.7888  -46.9372 H         1 UNK         0.0800 
    143 H143        1.4517  -22.2267  -47.1107 H         1 UNK         0.0600 
    144 H144        0.4195  -20.5792  -45.0741 H         1 UNK         0.3000 
    145 H145       -0.6292  -23.1146  -42.7842 H         1 UNK         0.0600 
    146 H146        0.8759  -21.7616  -41.3529 H         1 UNK         0.0600 
    147 H147        1.8157  -22.7578  -42.4544 H         1 UNK         0.0600 
    148 H148        1.6256  -21.0384  -42.7734 H         1 UNK         0.0600 
    149 H149       -0.7615  -20.2764  -42.6365 H         1 UNK         0.3000 
    150 H150       -4.0103  -19.9219  -44.1566 H         1 UNK         0.0600 
    151 H151       -4.3318  -20.4890  -41.7476 H         1 UNK         0.0600 
    152 H152       -4.3730  -18.7523  -42.0103 H         1 UNK         0.0600 
    153 H153       -2.9388  -19.5051  -41.3172 H         1 UNK         0.0600 
    154 H154       -2.2211  -17.9598  -43.1548 H         1 UNK         0.3000 
    155 H155       -0.3909  -17.4245  -46.2062 H         1 UNK         0.0600 
    156 H156       -2.3973  -15.7043  -44.6639 H         1 UNK         0.0600 
    157 H157       -2.4802  -16.0787  -46.3819 H         1 UNK         0.0600 
    158 H158       -1.1482  -15.1165  -45.7591 H         1 UNK         0.0600 
    159 H159       -0.1528  -16.1866  -43.6700 H         1 UNK         0.3000 
    160 H160        2.1388  -18.5427  -42.2060 H         1 UNK         0.0600 
    161 H161        3.3262  -16.3469  -41.8781 H         1 UNK         0.0600 
    162 H162        2.4358  -15.6752  -43.2444 H         1 UNK         0.0600 
    163 H163        3.5556  -17.0136  -43.4818 H         1 UNK         0.0600 
    164 H164        0.8469  -16.1312  -41.2908 H         1 UNK         0.3000 
    165 H165       -1.8956  -17.7386  -39.6967 H         1 UNK         0.0600 
    166 H166       -0.9285  -16.6015  -37.7169 H         1 UNK         0.0600 
    167 H167        0.0078  -18.0354  -38.1065 H         1 UNK         0.0600 
    168 H168        0.6290  -16.4443  -38.5296 H         1 UNK         0.0600 
    169 H169       -0.9807  -15.0221  -39.7750 H         1 UNK         0.3000 
    170 H170       -2.8033  -14.0652  -42.6992 H         1 UNK         0.0600 
    171 H171       -4.4149  -14.0387  -40.7870 H         1 UNK         0.0600 
    172 H172       -3.1571  -13.4198  -39.7235 H         1 UNK         0.0600 
    173 H173       -3.7316  -12.4478  -41.0786 H         1 UNK         0.0600 
    174 H174       -1.2050  -12.4969  -40.9958 H         1 UNK         0.3000 
    175 H175        0.6075  -11.5156  -41.9835 H         1 UNK         0.0600 
    176 H176        2.5116  -13.9023  -41.5723 H         1 UNK         0.0600 
    177 H177        2.8555  -12.2285  -41.1516 H         1 UNK         0.0600 
    178 H178        1.6024  -13.1076  -40.2917 H         1 UNK         0.0600 
    179 H179        1.3969  -13.0856  -44.2628 H         1 UNK         0.3000 
    180 H180        2.0016  -10.6501  -46.0305 H         1 UNK         0.0600 
    181 H181        4.9139  -11.1046  -45.2107 H         1 UNK         0.0600 
    182 H182        4.1034   -9.5553  -45.3897 H         1 UNK         0.0600 
    183 H183        4.3812  -10.5606  -46.8010 H         1 UNK         0.0600 
    184 H184        2.0805  -12.5868  -47.0214 H         1 UNK         0.3000 
    185 H185        4.3907  -15.1912  -47.1654 H         1 UNK         0.0600 
    186 H186        2.9031  -16.3687  -45.6080 H         1 UNK         0.0600 
    187 H187        1.4821  -15.5615  -46.2611 H         1 UNK         0.0600 
    188 H188        2.3804  -16.7241  -47.2395 H         1 UNK         0.0600 
    189 H189        1.9508  -14.6837  -48.5705 H         1 UNK         0.3000 
    190 H190       -1.9024  -20.9544  -46.6692 H         1 UNK         0.3000 
    191 H191       -3.0671  -22.2178  -48.9064 H         1 UNK         0.0600 
    192 H192       -4.3010  -21.3847  -46.2277 H         1 UNK         0.0600 
    193 H193       -5.2161  -21.8181  -47.6641 H         1 UNK         0.0600 
    194 H194       -4.1811  -20.3989  -47.6840 H         1 UNK         0.0600 
    195 H195       -2.7085  -23.4066  -45.5266 H         1 UNK         0.3000 
    196 H196       -4.0070  -25.8988  -45.8837 H         1 UNK         0.0600 
    197 H197       -1.7845  -25.1199  -43.9244 H         1 UNK         0.0600 
    198 H198       -2.8140  -26.5395  -43.7927 H         1 UNK         0.0600 
    199 H199       -3.5155  -24.9339  -43.6579 H         1 UNK         0.0600 
    200 H200       -0.5324  -25.0240  -46.2404 H         1 UNK         0.3000 
    201 H201        0.4141  -27.5883  -47.0053 H         1 UNK         0.0600 
    202 H202        1.5078  -24.8033  -47.6686 H         1 UNK         0.0600 
    203 H203        2.3952  -26.3135  -47.8304 H         1 UNK         0.0600 
    204 H204        1.8987  -25.7566  -46.2393 H         1 UNK         0.0600 
    205 H205       -1.0997  -25.0066  -48.8938 H         1 UNK         0.3000 
    206 H206       -0.7656  -26.3120  -51.4746 H         1 UNK         0.0600 
    207 H207       -0.8358  -23.8133  -51.1797 H         1 UNK         0.0600 
    208 H208       -2.0505  -24.3956  -52.3018 H         1 UNK         0.0600 
    209 H209       -2.5183  -23.9346  -50.6693 H         1 UNK         0.0600 
    210 H210       -2.4262  -27.4968  -49.0300 H         1 UNK         0.3000 
    211 H211       -4.0248  -28.9647  -48.7372 H         1 UNK         0.0600 
    212 H212       -4.3066  -29.1682  -51.7793 H         1 UNK         0.0600 
    213 H213       -4.8487  -30.3438  -50.5920 H         1 UNK         0.0600 
    214 H214       -3.1309  -30.0507  -50.8054 H         1 UNK         0.0600 
    215 H215       -4.6848  -26.3108  -48.4879 H         1 UNK         0.3000 
    216 H216       -6.3600  -25.0871  -47.8147 H         1 UNK         0.0600 
    217 H217       -7.5174  -27.1826  -47.0598 H         1 UNK         0.0600 
    218 H218       -8.6347  -25.9085  -47.5163 H         1 UNK         0.0600 
    219 H219       -8.3630  -27.2571  -48.6064 H         1 UNK         0.0600 
    220 H220       -5.3678  -25.1799  -50.6486 H         1 UNK         0.3000 
    221 H221       -7.4576  -23.8482  -52.2094 H         1 UNK         0.0600 
    222 H222       -4.4210  -24.0262  -52.6136 H         1 UNK         0.0600 
    223 H223       -5.6044  -25.1241  -53.3212 H         1 UNK         0.0600 
    224 H224       -5.5823  -23.4294  -53.7904 H         1 UNK         0.0600 
    225 H225       -7.4423  -21.5809  -52.6940 H         1 UNK         0.3000 
    226 H226       -6.8860  -19.8397  -50.4955 H         1 UNK         0.0600 
    227 H227       -8.7711  -19.4648  -52.0700 H         1 UNK         0.0600 
    228 H228       -7.6922  -18.0781  -52.0827 H         1 UNK         0.0600 
    229 H229       -7.6429  -19.2338  -53.4072 H         1 UNK         0.0600 
    230 H230       -5.3390  -18.2485  -50.2319 H         1 UNK         0.3000 
    231 H231       -2.7512  -18.5978  -51.4731 H         1 UNK         0.0600 
    232 H232       -3.8160  -16.4828  -49.5138 H         1 UNK         0.0600 
    233 H233       -2.1232  -16.7350  -49.9119 H         1 UNK         0.0600 
    234 H234       -3.0136  -17.9878  -49.0646 H         1 UNK         0.0600 
    235 H235       -1.5323  -16.7190  -52.3134 H         1 UNK         0.3000 
    236 H236       -1.0598  -15.1452  -53.7775 H         1 UNK         0.0600 
    237 H237       -3.8691  -13.9904  -53.4647 H         1 UNK         0.0600 
    238 H238       -2.5134  -13.6418  -52.3926 H         1 UNK         0.0600 
    239 H239       -2.4448  -13.1711  -54.0817 H         1 UNK         0.0600 
    240 H240       -2.0572  -17.7076  -54.6388 H         1 UNK         0.3000 
    241 H241       -3.2552  -17.3937  -57.2213 H         1 UNK         0.0600 
    242 H242       -0.5537  -17.2372  -59.5566 H         1 UNK         0.3800 
    243 H243       -2.1684  -17.8528  -59.3546 H         1 UNK         0.3800 
    244 H244       -3.5513  -19.5670  -56.7655 H         1 UNK         0.0800 
    245 H245       -1.9914  -19.8261  -57.4527 H         1 UNK         0.0800 
    246 H246        0.1609  -19.3934  -55.8814 H         1 UNK         0.0800 
    247 H247        0.2938  -20.8257  -54.8946 H         1 UNK         0.0800 
@<TRIPOS>BOND
     1    1    2 1    
     2    1  127 1    
     3    1  128 1    
     4    1  129 1    
     5    2    3 2    
     6    2    4 am   BACKBONE|DICT|INTERRES
     7    4    5 1    
     8    4  130 1    
     9    5    6 1    
    10    5   65 1    
    11    5  131 1    
    12    6    7 1    
    13    6  132 1    
    14    6  133 1    
    15    7    8 1    
    16    8    9 1    
    17    8  134 1    
    18    8  135 1    
    19    9   10 ar   
    20    9   14 ar   
    21   10   11 ar   
    22   10  136 1    
    23   11   12 ar   
    24   11  126 1    
    25   12   13 ar   
    26   12  137 1    
    27   13   14 ar   
    28   13   15 1    
    29   14  138 1    
    30   15   16 1    
    31   15  139 1    
    32   15  140 1    
    33   16   17 1    
    34   17   18 1    
    35   17  141 1    
    36   17  142 1    
    37   18   19 1    
    38   18   67 1    
    39   18  143 1    
    40   19   20 am   BACKBONE|DICT|INTERRES
    41   19  144 1    
    42   20   21 2    
    43   20   22 1    
    44   22   23 1    
    45   22   24 1    
    46   22  145 1    
    47   23  146 1    
    48   23  147 1    
    49   23  148 1    
    50   24   25 am   BACKBONE|DICT|INTERRES
    51   24  149 1    
    52   25   26 2    
    53   25   27 1    
    54   27   28 1    
    55   27   29 1    
    56   27  150 1    
    57   28  151 1    
    58   28  152 1    
    59   28  153 1    
    60   29   30 am   BACKBONE|DICT|INTERRES
    61   29  154 1    
    62   30   31 2    
    63   30   32 1    
    64   32   33 1    
    65   32   34 1    
    66   32  155 1    
    67   33  156 1    
    68   33  157 1    
    69   33  158 1    
    70   34   35 am   BACKBONE|DICT|INTERRES
    71   34  159 1    
    72   35   36 2    
    73   35   37 1    
    74   37   38 1    
    75   37   39 1    
    76   37  160 1    
    77   38  161 1    
    78   38  162 1    
    79   38  163 1    
    80   39   40 am   BACKBONE|DICT|INTERRES
    81   39  164 1    
    82   40   41 2    
    83   40   42 1    
    84   42   43 1    
    85   42   44 1    
    86   42  165 1    
    87   43  166 1    
    88   43  167 1    
    89   43  168 1    
    90   44   45 am   BACKBONE|DICT|INTERRES
    91   44  169 1    
    92   45   46 2    
    93   45   47 1    
    94   47   48 1    
    95   47   49 1    
    96   47  170 1    
    97   48  171 1    
    98   48  172 1    
    99   48  173 1    
   100   49   50 am   BACKBONE|DICT|INTERRES
   101   49  174 1    
   102   50   51 2    
   103   50   52 1    
   104   52   53 1    
   105   52   54 1    
   106   52  175 1    
   107   53  176 1    
   108   53  177 1    
   109   53  178 1    
   110   54   55 am   BACKBONE|DICT|INTERRES
   111   54  179 1    
   112   55   56 2    
   113   55   57 1    
   114   57   58 1    
   115   57   59 1    
   116   57  180 1    
   117   58  181 1    
   118   58  182 1    
   119   58  183 1    
   120   59   60 am   BACKBONE|DICT|INTERRES
   121   59  184 1    
   122   60   61 2    
   123   60   62 1    
   124   62   63 1    
   125   62   64 1    
   126   62  185 1    
   127   63  186 1    
   128   63  187 1    
   129   63  188 1    
   130   64   65 am   BACKBONE|DICT|INTERRES
   131   64  189 1    
   132   65   66 2    
   133   67   68 2    
   134   67   69 am   BACKBONE|DICT|INTERRES
   135   69   70 1    
   136   69  190 1    
   137   70   71 1    
   138   70   72 1    
   139   70  191 1    
   140   71  192 1    
   141   71  193 1    
   142   71  194 1    
   143   72   73 2    
   144   72   74 am   BACKBONE|DICT|INTERRES
   145   74   75 1    
   146   74  195 1    
   147   75   76 1    
   148   75   77 1    
   149   75  196 1    
   150   76  197 1    
   151   76  198 1    
   152   76  199 1    
   153   77   78 2    
   154   77   79 am   BACKBONE|DICT|INTERRES
   155   79   80 1    
   156   79  200 1    
   157   80   81 1    
   158   80   82 1    
   159   80  201 1    
   160   81  202 1    
   161   81  203 1    
   162   81  204 1    
   163   82   83 2    
   164   82   84 am   BACKBONE|DICT|INTERRES
   165   84   85 1    
   166   84  205 1    
   167   85   86 1    
   168   85   87 1    
   169   85  206 1    
   170   86  207 1    
   171   86  208 1    
   172   86  209 1    
   173   87   88 2    
   174   87   89 am   BACKBONE|DICT|INTERRES
   175   89   90 1    
   176   89  210 1    
   177   90   91 1    
   178   90   92 1    
   179   90  211 1    
   180   91  212 1    
   181   91  213 1    
   182   91  214 1    
   183   92   93 2    
   184   92   94 am   BACKBONE|DICT|INTERRES
   185   94   95 1    
   186   94  215 1    
   187   95   96 1    
   188   95   97 1    
   189   95  216 1    
   190   96  217 1    
   191   96  218 1    
   192   96  219 1    
   193   97   98 2    
   194   97   99 am   BACKBONE|DICT|INTERRES
   195   99  100 1    
   196   99  220 1    
   197  100  101 1    
   198  100  102 1    
   199  100  221 1    
   200  101  222 1    
   201  101  223 1    
   202  101  224 1    
   203  102  103 2    
   204  102  104 am   BACKBONE|DICT|INTERRES
   205  104  105 1    
   206  104  225 1    
   207  105  106 1    
   208  105  107 1    
   209  105  226 1    
   210  106  227 1    
   211  106  228 1    
   212  106  229 1    
   213  107  108 2    
   214  107  109 am   BACKBONE|DICT|INTERRES
   215  109  110 1    
   216  109  230 1    
   217  110  111 1    
   218  110  112 1    
   219  110  231 1    
   220  111  232 1    
   221  111  233 1    
   222  111  234 1    
   223  112  113 2    
   224  112  114 am   BACKBONE|DICT|INTERRES
   225  114  115 1    
   226  114  235 1    
   227  115  116 1    
   228  115  117 1    
   229  115  236 1    
   230  116  237 1    
   231  116  238 1    
   232  116  239 1    
   233  117  118 2    
   234  117  119 am   BACKBONE|DICT|INTERRES
   235  119  120 1    
   236  119  240 1    
   237  120  121 1    
   238  120  124 1    
   239  120  241 1    
   240  121  122 am   BACKBONE|DICT|INTERRES
   241  121  123 2    
   242  122  242 1    
   243  122  243 1    
   244  124  125 1    
   245  124  244 1    
   246  124  245 1    
   247  125  126 1    
   248  126  246 1    
   249  126  247 1    
@<TRIPOS>SUBSTRUCTURE
     1 UNK         1 GROUP             0       ****    0 ROOT    
