@<TRIPOS>MOLECULE
3R540
247   249    1
SMALL
USER_CHARGES


@<TRIPOS>ATOM
      1 CA          3.8639  -10.1105  -50.0781 C.3       0 UNK        -0.1800 
      2 C           3.3682  -11.2688  -49.2242 C.2       0 UNK         0.5000 
      3 O           2.6005  -11.0546  -48.2873 O.2       0 UNK        -0.5000 
      4 N           3.8024  -12.4935  -49.5464 N.am      1 UNK        -0.5000 
      5 CA          3.4241  -13.7373  -48.8615 C.3       1 UNK         0.1400 
      6 C6          4.4423  -14.8746  -49.1346 C.3       23 UNK        -0.0398 
      7 S7          4.7516  -15.2014  -50.9106 S.3       23 UNK        -0.2404 
      8 C8          4.3951  -16.9819  -51.0567 C.3       23 UNK        -0.0205 
      9 C9          2.9039  -17.2698  -51.1464 C.ar      23 UNK        -0.0193 
     10 C10         2.2422  -17.1774  -52.3754 C.ar      23 UNK        -0.1150 
     11 C11         0.8761  -17.4601  -52.4679 C.ar      23 UNK        -0.0193 
     12 C12         0.1718  -17.8352  -51.3213 C.ar      23 UNK        -0.1150 
     13 C13         0.8218  -17.9315  -50.0889 C.ar      23 UNK        -0.0193 
     14 C14         2.1882  -17.6507  -50.0082 C.ar      23 UNK        -0.1150 
     15 C15         0.0382  -18.3152  -48.8466 C.3       23 UNK        -0.0205 
     16 S16         0.4972  -19.9649  -48.2360 S.3       23 UNK        -0.2404 
     17 C17        -1.0262  -20.3866  -47.3406 C.3       23 UNK        -0.0398 
     18 CA         -1.1164  -21.8906  -47.0021 C.3       11 UNK         0.1400 
     19 N          -0.1620  -22.2833  -45.9615 N.am      11 UNK        -0.5000 
     20 C           0.1144  -23.5429  -45.5932 C.2       10 UNK         0.5000 
     21 O          -0.5104  -24.5267  -45.9935 O.2       10 UNK        -0.5000 
     22 CA          1.2825  -23.7356  -44.6141 C.3       10 UNK         0.1400 
     23 CB          2.6239  -23.5379  -45.3367 C.3       10 UNK        -0.1800 
     24 N           1.1825  -22.7868  -43.5082 N.am      10 UNK        -0.5000 
     25 C           0.8352  -23.1053  -42.2538 C.2       9 UNK         0.5000 
     26 O           0.6955  -24.2611  -41.8532 O.2       9 UNK        -0.5000 
     27 CA          0.5739  -21.9376  -41.2769 C.3       9 UNK         0.1400 
     28 CB          1.8331  -21.6370  -40.4500 C.3       9 UNK        -0.1800 
     29 N           0.1283  -20.7000  -41.9228 N.am      9 UNK        -0.5000 
     30 C          -0.9551  -20.5755  -42.7021 C.2       8 UNK         0.5000 
     31 O          -1.7406  -21.4928  -42.9330 O.2       8 UNK        -0.5000 
     32 CA         -1.1600  -19.2247  -43.4107 C.3       8 UNK         0.1400 
     33 CB         -2.0857  -18.3220  -42.5837 C.3       8 UNK        -0.1800 
     34 N           0.0753  -18.4983  -43.7269 N.am      8 UNK        -0.5000 
     35 C           1.1578  -18.9699  -44.3660 C.2       7 UNK         0.5000 
     36 O           1.2657  -20.1323  -44.7602 O.2       7 UNK        -0.5000 
     37 CA          2.3278  -17.9911  -44.5729 C.3       7 UNK         0.1400 
     38 CB          2.2596  -17.3429  -45.9621 C.3       7 UNK        -0.1800 
     39 N           2.3582  -16.9359  -43.5604 N.am      7 UNK        -0.5000 
     40 C           2.8885  -17.0663  -42.3369 C.2       6 UNK         0.5000 
     41 O           3.4143  -18.1010  -41.9261 O.2       6 UNK        -0.5000 
     42 CA          2.8164  -15.8314  -41.4177 C.3       6 UNK         0.1400 
     43 CB          4.0484  -14.9368  -41.6233 C.3       6 UNK        -0.1800 
     44 N           1.6064  -15.0376  -41.6394 N.am      6 UNK        -0.5000 
     45 C           0.3844  -15.3973  -41.2237 C.2       5 UNK         0.5000 
     46 O           0.1638  -16.3994  -40.5440 O.2       5 UNK        -0.5000 
     47 CA         -0.7937  -14.5039  -41.6626 C.3       5 UNK         0.1400 
     48 CB         -1.0862  -13.4385  -40.5954 C.3       5 UNK        -0.1800 
     49 N          -0.5991  -13.8449  -42.9601 N.am      5 UNK        -0.5000 
     50 C          -0.4438  -14.4862  -44.1257 C.2       4 UNK         0.5000 
     51 O          -0.3735  -15.7124  -44.2217 O.2       4 UNK        -0.5000 
     52 CA         -0.2721  -13.6118  -45.3797 C.3       4 UNK         0.1400 
     53 CB          1.2076  -13.2425  -45.5614 C.3       4 UNK        -0.1800 
     54 N          -0.7409  -14.2937  -46.5865 N.am      4 UNK        -0.5000 
     55 C          -2.0254  -14.5584  -46.8661 C.2       3 UNK         0.5000 
     56 O          -2.9624  -14.1891  -46.1554 O.2       3 UNK        -0.5000 
     57 CA         -2.3044  -15.3779  -48.1478 C.3       3 UNK         0.1400 
     58 CB         -3.7501  -15.2359  -48.6661 C.3       3 UNK        -0.1800 
     59 N          -1.3380  -15.1344  -49.2252 N.am      3 UNK        -0.5000 
     60 C          -1.0637  -13.9712  -49.8337 C.2       2 UNK         0.5000 
     61 O          -1.6507  -12.9110  -49.6118 O.2       2 UNK        -0.5000 
     62 CA          0.0998  -14.0139  -50.8458 C.3       2 UNK         0.1400 
     63 CB         -0.1439  -13.0789  -52.0426 C.3       2 UNK        -0.1800 
     64 N           1.4046  -13.6859  -50.2682 N.am      2 UNK        -0.5000 
     65 C           1.9803  -14.1920  -49.1663 C.2       1 UNK         0.5000 
     66 O           1.4405  -14.9935  -48.4031 O.2       1 UNK        -0.5000 
     67 C          -2.5750  -22.2809  -46.7028 C.2       11 UNK         0.5000 
     68 O          -3.2926  -22.6193  -47.6425 O.2       11 UNK        -0.5000 
     69 N          -2.9984  -22.2285  -45.4341 N.am      12 UNK        -0.5000 
     70 CA         -4.3398  -22.6451  -45.0112 C.3       12 UNK         0.1400 
     71 CB         -4.8491  -21.6869  -43.9213 C.3       12 UNK        -0.1800 
     72 C          -4.3600  -24.1087  -44.5264 C.2       12 UNK         0.5000 
     73 O          -5.4190  -24.5969  -44.1290 O.2       12 UNK        -0.5000 
     74 N          -3.1997  -24.7756  -44.5591 N.am      13 UNK        -0.5000 
     75 CA         -3.0014  -26.1696  -44.1916 C.3       13 UNK         0.1400 
     76 CB         -1.8716  -26.2462  -43.1443 C.3       13 UNK        -0.1800 
     77 C          -2.7369  -26.9874  -45.4705 C.2       13 UNK         0.5000 
     78 O          -3.5117  -26.8891  -46.4243 O.2       13 UNK        -0.5000 
     79 N          -1.6673  -27.7928  -45.4674 N.am      14 UNK        -0.5000 
     80 CA         -1.3378  -28.7818  -46.4940 C.3       14 UNK         0.1400 
     81 CB         -0.1569  -29.6305  -45.9973 C.3       14 UNK        -0.1800 
     82 C          -1.0335  -28.2132  -47.8932 C.2       14 UNK         0.5000 
     83 O          -1.2198  -28.9358  -48.8737 O.2       14 UNK        -0.5000 
     84 N          -0.5621  -26.9599  -47.9810 N.am      15 UNK        -0.5000 
     85 CA         -0.2209  -26.3306  -49.2606 C.3       15 UNK         0.1400 
     86 CB          0.7536  -25.1658  -49.0300 C.3       15 UNK        -0.1800 
     87 C          -1.4613  -25.8577  -50.0409 C.2       15 UNK         0.5000 
     88 O          -1.4206  -25.8326  -51.2707 O.2       15 UNK        -0.5000 
     89 N          -2.5266  -25.4800  -49.3149 N.am      16 UNK        -0.5000 
     90 CA         -3.8337  -25.0070  -49.8012 C.3       16 UNK         0.1400 
     91 CB         -4.5720  -26.1378  -50.5451 C.3       16 UNK        -0.1800 
     92 C          -3.7981  -23.7002  -50.6309 C.2       16 UNK         0.5000 
     93 O          -4.8156  -23.3141  -51.2081 O.2       16 UNK        -0.5000 
     94 N          -2.6441  -23.0211  -50.6576 N.am      17 UNK        -0.5000 
     95 CA         -2.3681  -21.8119  -51.4329 C.3       17 UNK         0.1400 
     96 CB         -0.8520  -21.5724  -51.4357 C.3       17 UNK        -0.1800 
     97 C          -3.1304  -20.5564  -50.9662 C.2       17 UNK         0.5000 
     98 O          -3.1592  -19.5693  -51.7005 O.2       17 UNK        -0.5000 
     99 N          -3.7593  -20.5997  -49.7819 N.am      18 UNK        -0.5000 
    100 CA        -4.6259  -19.5303  -49.2779 C.3       18 UNK         0.1400 
    101 CB        -4.9878  -19.7965  -47.8083 C.3       18 UNK        -0.1800 
    102 C         -5.9045  -19.3363  -50.1162 C.2       18 UNK         0.5000 
    103 O         -6.4571  -18.2362  -50.1067 O.2       18 UNK        -0.5000 
    104 N         -6.3370  -20.3866  -50.8334 N.am      19 UNK        -0.5000 
    105 CA        -7.4880  -20.4032  -51.7376 C.3       19 UNK         0.1400 
    106 CB        -7.6459  -21.8167  -52.3205 C.3       19 UNK        -0.1800 
    107 C         -7.3556  -19.3474  -52.8516 C.2       19 UNK         0.5000 
    108 O         -6.6086  -19.5528  -53.8112 O.2       19 UNK        -0.5000 
    109 N         -8.0361  -18.2091  -52.6536 N.am      20 UNK        -0.5000 
    110 CA        -8.0249  -16.9999  -53.4865 C.3       20 UNK         0.1400 
    111 CB        -8.6921  -17.2821  -54.8491 C.3       20 UNK        -0.1800 
    112 C         -6.6316  -16.3444  -53.6363 C.2       20 UNK         0.5000 
    113 O         -6.4338  -15.5693  -54.5727 O.2       20 UNK        -0.5000 
    114 N         -5.7039  -16.6636  -52.7165 N.am      21 UNK        -0.5000 
    115 CA        -4.2762  -16.3255  -52.7321 C.3       21 UNK         0.1400 
    116 CB        -4.0707  -14.8200  -52.4721 C.3       21 UNK        -0.1800 
    117 C         -3.5996  -16.8144  -54.0311 C.2       21 UNK         0.5000 
    118 O         -3.2723  -16.0093  -54.9053 O.2       21 UNK        -0.5000 
    119 N         -3.4370  -18.1388  -54.1336 N.am      22 UNK        -0.5000 
    120 CA        -2.9749  -18.8727  -55.3247 C.3       22 UNK         0.1400 
    121 C         -3.9799  -18.7972  -56.5144 C.2       22 UNK         0.5000 
    122 N         -5.2810  -18.8805  -56.2651 N.am      22 UNK        -0.7600 
    123 O         -3.5918  -18.6796  -57.6742 O.2       22 UNK        -0.5000 
    124 C124       -1.5086  -18.5447  -55.7350 C.3       23 UNK        -0.0398 
    125 S125       -0.3030  -18.9852  -54.4395 S.3       23 UNK        -0.2404 
    126 C126        0.1446  -17.3451  -53.7943 C.3       23 UNK        -0.0205 
    127 H127        3.0207   -9.6005  -50.5440 H         1 UNK         0.0600 
    128 H128        4.5364  -10.4470  -50.8675 H         1 UNK         0.0600 
    129 H129        4.3995   -9.3907  -49.4592 H         1 UNK         0.0600 
    130 H130        4.4352  -12.6101  -50.3262 H         1 UNK         0.3000 
    131 H131        3.4529  -13.5380  -47.7881 H         1 UNK         0.0600 
    132 H132        5.3994  -14.6082  -48.6846 H         1 UNK         0.0800 
    133 H133        4.1365  -15.7919  -48.6290 H         1 UNK         0.0800 
    134 H134        4.8438  -17.5205  -50.2205 H         1 UNK         0.0800 
    135 H135        4.8868  -17.3610  -51.9538 H         1 UNK         0.0800 
    136 H136        2.7929  -16.8844  -53.2582 H         1 UNK         0.1150 
    137 H137       -0.8845  -18.0544  -51.3965 H         1 UNK         0.1150 
    138 H138        2.6911  -17.7248  -49.0553 H         1 UNK         0.1150 
    139 H139        0.2096  -17.5788  -48.0616 H         1 UNK         0.0800 
    140 H140       -1.0294  -18.2890  -49.0677 H         1 UNK         0.0800 
    141 H141       -1.8619  -20.0871  -47.9708 H         1 UNK         0.0800 
    142 H142       -1.0868  -19.7716  -46.4455 H         1 UNK         0.0800 
    143 H143       -0.8457  -22.4435  -47.9027 H         1 UNK         0.0600 
    144 H144        0.4124  -21.5304  -45.5898 H         1 UNK         0.3000 
    145 H145        1.2447  -24.7639  -44.2494 H         1 UNK         0.0600 
    146 H146        2.7326  -22.5229  -45.7217 H         1 UNK         0.0600 
    147 H147        3.4614  -23.7311  -44.6663 H         1 UNK         0.0600 
    148 H148        2.7177  -24.2224  -46.1809 H         1 UNK         0.0600 
    149 H149        1.2631  -21.8048  -43.7526 H         1 UNK         0.3000 
    150 H150       -0.2181  -22.2553  -40.5959 H         1 UNK         0.0600 
    151 H151        2.1868  -22.5313  -39.9352 H         1 UNK         0.0600 
    152 H152        1.6351  -20.8821  -39.6888 H         1 UNK         0.0600 
    153 H153        2.6482  -21.2744  -41.0781 H         1 UNK         0.0600 
    154 H154        0.7246  -19.8928  -41.8108 H         1 UNK         0.3000 
    155 H155       -1.6676  -19.4315  -44.3515 H         1 UNK         0.0600 
    156 H156       -3.0369  -18.8173  -42.3833 H         1 UNK         0.0600 
    157 H157       -1.6414  -18.0656  -41.6220 H         1 UNK         0.0600 
    158 H158       -2.3092  -17.3943  -43.1107 H         1 UNK         0.0600 
    159 H159        0.0533  -17.5008  -43.5414 H         1 UNK         0.3000 
    160 H160        3.2541  -18.5666  -44.5149 H         1 UNK         0.0600 
    161 H161        3.0955  -16.6628  -46.1260 H         1 UNK         0.0600 
    162 H162        2.3054  -18.1025  -46.7416 H         1 UNK         0.0600 
    163 H163        1.3377  -16.7774  -46.1009 H         1 UNK         0.0600 
    164 H164        1.8847  -16.0759  -43.7958 H         1 UNK         0.3000 
    165 H165        2.8205  -16.1835  -40.3838 H         1 UNK         0.0600 
    166 H166        4.0423  -14.0930  -40.9331 H         1 UNK         0.0600 
    167 H167        4.9691  -15.4941  -41.4453 H         1 UNK         0.0600 
    168 H168        4.0954  -14.5407  -42.6385 H         1 UNK         0.0600 
    169 H169        1.7039  -14.1878  -42.1748 H         1 UNK         0.3000 
    170 H170       -1.6715  -15.1476  -41.7496 H         1 UNK         0.0600 
    171 H171       -1.2609  -13.8982  -39.6216 H         1 UNK         0.0600 
    172 H172       -0.2552  -12.7407  -40.4846 H         1 UNK         0.0600 
    173 H173       -1.9779  -12.8634  -40.8454 H         1 UNK         0.0600 
    174 H174       -0.6261  -12.8353  -42.9567 H         1 UNK         0.3000 
    175 H175       -0.8525  -12.6955  -45.2538 H         1 UNK         0.0600 
    176 H176        1.8298  -14.1273  -45.7030 H         1 UNK         0.0600 
    177 H177        1.3439  -12.5956  -46.4274 H         1 UNK         0.0600 
    178 H178        1.5912  -12.7046  -44.6937 H         1 UNK         0.0600 
    179 H179       -0.0226  -14.6333  -47.2201 H         1 UNK         0.3000 
    180 H180       -2.1730  -16.4197  -47.8539 H         1 UNK         0.0600 
    181 H181       -3.9760  -14.2105  -48.9597 H         1 UNK         0.0600 
    182 H182       -4.4726  -15.5247  -47.9019 H         1 UNK         0.0600 
    183 H183       -3.9234  -15.8800  -49.5276 H         1 UNK         0.0600 
    184 H184       -0.7209  -15.9061  -49.4338 H         1 UNK         0.3000 
    185 H185        0.1666  -15.0285  -51.2362 H         1 UNK         0.0600 
    186 H186        0.6195  -13.2139  -52.8092 H         1 UNK         0.0600 
    187 H187       -1.1074  -13.2771  -52.5112 H         1 UNK         0.0600 
    188 H188       -0.1356  -12.0303  -51.7423 H         1 UNK         0.0600 
    189 H189        1.9535  -13.0216  -50.7923 H         1 UNK         0.3000 
    190 H190       -2.3615  -21.9694  -44.6852 H         1 UNK         0.3000 
    191 H191       -5.0338  -22.5781  -45.8514 H         1 UNK         0.0600 
    192 H192       -4.3005  -21.8048  -42.9871 H         1 UNK         0.0600 
    193 H193       -5.9010  -21.8736  -43.7025 H         1 UNK         0.0600 
    194 H194       -4.7629  -20.6466  -44.2355 H         1 UNK         0.0600 
    195 H195       -2.3972  -24.3214  -44.9759 H         1 UNK         0.3000 
    196 H196       -3.9060  -26.5793  -43.7383 H         1 UNK         0.0600 
    197 H197       -1.7388  -27.2632  -42.7736 H         1 UNK         0.0600 
    198 H198       -2.1008  -25.6222  -42.2801 H         1 UNK         0.0600 
    199 H199       -0.9174  -25.9046  -43.5464 H         1 UNK         0.0600 
    200 H200       -1.0720  -27.7853  -44.6522 H         1 UNK         0.3000 
    201 H201       -2.2038  -29.4385  -46.6000 H         1 UNK         0.0600 
    202 H202       -0.3970  -30.1329  -45.0600 H         1 UNK         0.0600 
    203 H203        0.7340  -29.0223  -45.8354 H         1 UNK         0.0600 
    204 H204        0.1016  -30.4049  -46.7209 H         1 UNK         0.0600 
    205 H205       -0.4600  -26.3993  -47.1427 H         1 UNK         0.3000 
    206 H206        0.2955  -27.0670  -49.8806 H         1 UNK         0.0600 
    207 H207        1.6293  -25.4859  -48.4653 H         1 UNK         0.0600 
    208 H208        1.1079  -24.7633  -49.9799 H         1 UNK         0.0600 
    209 H209        0.2852  -24.3473  -48.4888 H         1 UNK         0.0600 
    210 H210       -2.4533  -25.5596  -48.3091 H         1 UNK         0.3000 
    211 H211       -4.4135  -24.7741  -48.9071 H         1 UNK         0.0600 
    212 H212       -4.0814  -26.3922  -51.4849 H         1 UNK         0.0600 
    213 H213       -5.5974  -25.8499  -50.7799 H         1 UNK         0.0600 
    214 H214       -4.6218  -27.0410  -49.9365 H         1 UNK         0.0600 
    215 H215       -1.8713  -23.4115  -50.1420 H         1 UNK         0.3000 
    216 H216       -2.6807  -21.9975  -52.4624 H         1 UNK         0.0600 
    217 H217       -0.5952  -20.6445  -51.9467 H         1 UNK         0.0600 
    218 H218       -0.4547  -21.5115  -50.4246 H         1 UNK         0.0600 
    219 H219       -0.3289  -22.3790  -51.9497 H         1 UNK         0.0600 
    220 H220       -3.6974  -21.4453  -49.2236 H         1 UNK         0.3000 
    221 H221       -4.0662  -18.5935  -49.3233 H         1 UNK         0.0600 
    222 H222       -5.4685  -20.7673  -47.6825 H         1 UNK         0.0600 
    223 H223       -4.1074  -19.7689  -47.1683 H         1 UNK         0.0600 
    224 H224       -5.6762  -19.0393  -47.4305 H         1 UNK         0.0600 
    225 H225       -5.7906  -21.2383  -50.8045 H         1 UNK         0.3000 
    226 H226       -8.3800  -20.1826  -51.1479 H         1 UNK         0.0600 
    227 H227       -7.8039  -22.5535  -51.5327 H         1 UNK         0.0600 
    228 H228       -8.5030  -21.8686  -52.9929 H         1 UNK         0.0600 
    229 H229       -6.7645  -22.1200  -52.8873 H         1 UNK         0.0600 
    230 H230       -8.5608  -18.1253  -51.7934 H         1 UNK         0.3000 
    231 H231       -8.6423  -16.2682  -52.9637 H         1 UNK         0.0600 
    232 H232       -8.8293  -16.3622  -55.4185 H         1 UNK         0.0600 
    233 H233       -9.6774  -17.7302  -54.7205 H         1 UNK         0.0600 
    234 H234       -8.0938  -17.9578  -55.4605 H         1 UNK         0.0600 
    235 H235       -5.9945  -17.2858  -51.9711 H         1 UNK         0.3000 
    236 H236       -3.8159  -16.8671  -51.9043 H         1 UNK         0.0600 
    237 H237       -3.0102  -14.5905  -52.3810 H         1 UNK         0.0600 
    238 H238       -4.5518  -14.5087  -51.5453 H         1 UNK         0.0600 
    239 H239       -4.4720  -14.2048  -53.2779 H         1 UNK         0.0600 
    240 H240       -3.6557  -18.7170  -53.3270 H         1 UNK         0.3000 
    241 H241       -2.9869  -19.9240  -55.0349 H         1 UNK         0.0600 
    242 H242       -5.9299  -18.8360  -57.0335 H         1 UNK         0.3800 
    243 H243       -5.6329  -19.0367  -55.3227 H         1 UNK         0.3800 
    244 H244       -1.4012  -17.4958  -56.0130 H         1 UNK         0.0800 
    245 H245       -1.2299  -19.1159  -56.6218 H         1 UNK         0.0800 
    246 H246        0.7542  -16.8216  -54.5324 H         1 UNK         0.0800 
    247 H247       -0.7515  -16.7424  -53.6499 H         1 UNK         0.0800 
@<TRIPOS>BOND
     1    1    2 1    
     2    1  127 1    
     3    1  128 1    
     4    1  129 1    
     5    2    3 2    
     6    2    4 am   BACKBONE|DICT|INTERRES
     7    4    5 1    
     8    4  130 1    
     9    5    6 1    
    10    5   65 1    
    11    5  131 1    
    12    6    7 1    
    13    6  132 1    
    14    6  133 1    
    15    7    8 1    
    16    8    9 1    
    17    8  134 1    
    18    8  135 1    
    19    9   10 ar   
    20    9   14 ar   
    21   10   11 ar   
    22   10  136 1    
    23   11   12 ar   
    24   11  126 1    
    25   12   13 ar   
    26   12  137 1    
    27   13   14 ar   
    28   13   15 1    
    29   14  138 1    
    30   15   16 1    
    31   15  139 1    
    32   15  140 1    
    33   16   17 1    
    34   17   18 1    
    35   17  141 1    
    36   17  142 1    
    37   18   19 1    
    38   18   67 1    
    39   18  143 1    
    40   19   20 am   BACKBONE|DICT|INTERRES
    41   19  144 1    
    42   20   21 2    
    43   20   22 1    
    44   22   23 1    
    45   22   24 1    
    46   22  145 1    
    47   23  146 1    
    48   23  147 1    
    49   23  148 1    
    50   24   25 am   BACKBONE|DICT|INTERRES
    51   24  149 1    
    52   25   26 2    
    53   25   27 1    
    54   27   28 1    
    55   27   29 1    
    56   27  150 1    
    57   28  151 1    
    58   28  152 1    
    59   28  153 1    
    60   29   30 am   BACKBONE|DICT|INTERRES
    61   29  154 1    
    62   30   31 2    
    63   30   32 1    
    64   32   33 1    
    65   32   34 1    
    66   32  155 1    
    67   33  156 1    
    68   33  157 1    
    69   33  158 1    
    70   34   35 am   BACKBONE|DICT|INTERRES
    71   34  159 1    
    72   35   36 2    
    73   35   37 1    
    74   37   38 1    
    75   37   39 1    
    76   37  160 1    
    77   38  161 1    
    78   38  162 1    
    79   38  163 1    
    80   39   40 am   BACKBONE|DICT|INTERRES
    81   39  164 1    
    82   40   41 2    
    83   40   42 1    
    84   42   43 1    
    85   42   44 1    
    86   42  165 1    
    87   43  166 1    
    88   43  167 1    
    89   43  168 1    
    90   44   45 am   BACKBONE|DICT|INTERRES
    91   44  169 1    
    92   45   46 2    
    93   45   47 1    
    94   47   48 1    
    95   47   49 1    
    96   47  170 1    
    97   48  171 1    
    98   48  172 1    
    99   48  173 1    
   100   49   50 am   BACKBONE|DICT|INTERRES
   101   49  174 1    
   102   50   51 2    
   103   50   52 1    
   104   52   53 1    
   105   52   54 1    
   106   52  175 1    
   107   53  176 1    
   108   53  177 1    
   109   53  178 1    
   110   54   55 am   BACKBONE|DICT|INTERRES
   111   54  179 1    
   112   55   56 2    
   113   55   57 1    
   114   57   58 1    
   115   57   59 1    
   116   57  180 1    
   117   58  181 1    
   118   58  182 1    
   119   58  183 1    
   120   59   60 am   BACKBONE|DICT|INTERRES
   121   59  184 1    
   122   60   61 2    
   123   60   62 1    
   124   62   63 1    
   125   62   64 1    
   126   62  185 1    
   127   63  186 1    
   128   63  187 1    
   129   63  188 1    
   130   64   65 am   BACKBONE|DICT|INTERRES
   131   64  189 1    
   132   65   66 2    
   133   67   68 2    
   134   67   69 am   BACKBONE|DICT|INTERRES
   135   69   70 1    
   136   69  190 1    
   137   70   71 1    
   138   70   72 1    
   139   70  191 1    
   140   71  192 1    
   141   71  193 1    
   142   71  194 1    
   143   72   73 2    
   144   72   74 am   BACKBONE|DICT|INTERRES
   145   74   75 1    
   146   74  195 1    
   147   75   76 1    
   148   75   77 1    
   149   75  196 1    
   150   76  197 1    
   151   76  198 1    
   152   76  199 1    
   153   77   78 2    
   154   77   79 am   BACKBONE|DICT|INTERRES
   155   79   80 1    
   156   79  200 1    
   157   80   81 1    
   158   80   82 1    
   159   80  201 1    
   160   81  202 1    
   161   81  203 1    
   162   81  204 1    
   163   82   83 2    
   164   82   84 am   BACKBONE|DICT|INTERRES
   165   84   85 1    
   166   84  205 1    
   167   85   86 1    
   168   85   87 1    
   169   85  206 1    
   170   86  207 1    
   171   86  208 1    
   172   86  209 1    
   173   87   88 2    
   174   87   89 am   BACKBONE|DICT|INTERRES
   175   89   90 1    
   176   89  210 1    
   177   90   91 1    
   178   90   92 1    
   179   90  211 1    
   180   91  212 1    
   181   91  213 1    
   182   91  214 1    
   183   92   93 2    
   184   92   94 am   BACKBONE|DICT|INTERRES
   185   94   95 1    
   186   94  215 1    
   187   95   96 1    
   188   95   97 1    
   189   95  216 1    
   190   96  217 1    
   191   96  218 1    
   192   96  219 1    
   193   97   98 2    
   194   97   99 am   BACKBONE|DICT|INTERRES
   195   99  100 1    
   196   99  220 1    
   197  100  101 1    
   198  100  102 1    
   199  100  221 1    
   200  101  222 1    
   201  101  223 1    
   202  101  224 1    
   203  102  103 2    
   204  102  104 am   BACKBONE|DICT|INTERRES
   205  104  105 1    
   206  104  225 1    
   207  105  106 1    
   208  105  107 1    
   209  105  226 1    
   210  106  227 1    
   211  106  228 1    
   212  106  229 1    
   213  107  108 2    
   214  107  109 am   BACKBONE|DICT|INTERRES
   215  109  110 1    
   216  109  230 1    
   217  110  111 1    
   218  110  112 1    
   219  110  231 1    
   220  111  232 1    
   221  111  233 1    
   222  111  234 1    
   223  112  113 2    
   224  112  114 am   BACKBONE|DICT|INTERRES
   225  114  115 1    
   226  114  235 1    
   227  115  116 1    
   228  115  117 1    
   229  115  236 1    
   230  116  237 1    
   231  116  238 1    
   232  116  239 1    
   233  117  118 2    
   234  117  119 am   BACKBONE|DICT|INTERRES
   235  119  120 1    
   236  119  240 1    
   237  120  121 1    
   238  120  124 1    
   239  120  241 1    
   240  121  122 am   BACKBONE|DICT|INTERRES
   241  121  123 2    
   242  122  242 1    
   243  122  243 1    
   244  124  125 1    
   245  124  244 1    
   246  124  245 1    
   247  125  126 1    
   248  126  246 1    
   249  126  247 1    
@<TRIPOS>SUBSTRUCTURE
     1 UNK         1 GROUP             0       ****    0 ROOT    
