@<TRIPOS>MOLECULE
3R540
247   249    1
SMALL
USER_CHARGES


@<TRIPOS>ATOM
      1 CA         -1.2255  -12.9306  -48.1599 C.3       0 UNK        -0.1800 
      2 C           0.0882  -12.1937  -48.3752 C.2       0 UNK         0.5000 
      3 O           0.1520  -11.2932  -49.2126 O.2       0 UNK        -0.5000 
      4 N           1.1319  -12.5721  -47.6294 N.am      1 UNK        -0.5000 
      5 CA          2.4471  -11.9260  -47.6552 C.3       1 UNK         0.1400 
      6 C6          3.5736  -12.9152  -47.2703 C.3       23 UNK        -0.0398 
      7 S7          3.7864  -14.2395  -48.5067 S.3       23 UNK        -0.2404 
      8 C8          2.9483  -15.6169  -47.6657 C.3       23 UNK        -0.0205 
      9 C9          2.9042  -16.8724  -48.5228 C.ar      23 UNK        -0.0193 
     10 C10         2.1635  -16.8902  -49.7088 C.ar      23 UNK        -0.1150 
     11 C11         2.0641  -18.0596  -50.4696 C.ar      23 UNK        -0.0193 
     12 C12         2.7312  -19.2114  -50.0448 C.ar      23 UNK        -0.1150 
     13 C13         3.4801  -19.2053  -48.8647 C.ar      23 UNK        -0.0193 
     14 C14         3.5650  -18.0328  -48.1088 C.ar      23 UNK        -0.1150 
     15 C15         4.1884  -20.4700  -48.4018 C.3       23 UNK        -0.0205 
     16 S16         3.2293  -21.3671  -47.1405 S.3       23 UNK        -0.2404 
     17 C17         1.7345  -21.8152  -48.0849 C.3       23 UNK        -0.0398 
     18 CA          0.8432  -22.8246  -47.3274 C.3       11 UNK         0.1400 
     19 N           0.2065  -22.2412  -46.1423 N.am      11 UNK        -0.5000 
     20 C          -0.4755  -22.9406  -45.2241 C.2       10 UNK         0.5000 
     21 O          -0.6047  -24.1647  -45.2562 O.2       10 UNK        -0.5000 
     22 CA         -1.1721  -22.1379  -44.1100 C.3       10 UNK         0.1400 
     23 CB         -0.1632  -21.6781  -43.0474 C.3       10 UNK        -0.1800 
     24 N          -1.9136  -20.9855  -44.6246 N.am      10 UNK        -0.5000 
     25 C          -2.9704  -21.0705  -45.4457 C.2       9 UNK         0.5000 
     26 O          -3.4538  -22.1348  -45.8280 O.2       9 UNK        -0.5000 
     27 CA         -3.5661  -19.7489  -45.9621 C.3       9 UNK         0.1400 
     28 CB         -4.5422  -19.1441  -44.9426 C.3       9 UNK        -0.1800 
     29 N          -2.5363  -18.7686  -46.2991 N.am      9 UNK        -0.5000 
     30 C          -1.6645  -18.9068  -47.3079 C.2       8 UNK         0.5000 
     31 O          -1.6527  -19.8648  -48.0805 O.2       8 UNK        -0.5000 
     32 CA         -0.5938  -17.8102  -47.4316 C.3       8 UNK         0.1400 
     33 CB         -1.1882  -16.5413  -48.0585 C.3       8 UNK        -0.1800 
     34 N           0.0124  -17.4729  -46.1427 N.am      8 UNK        -0.5000 
     35 C           0.7006  -18.3365  -45.3825 C.2       7 UNK         0.5000 
     36 O           0.9257  -19.5006  -45.7030 O.2       7 UNK        -0.5000 
     37 CA          1.1505  -17.8407  -43.9980 C.3       7 UNK         0.1400 
     38 CB          2.5216  -17.1565  -44.0767 C.3       7 UNK        -0.1800 
     39 N           0.1782  -16.9395  -43.3773 N.am      7 UNK        -0.5000 
     40 C          -1.0576  -17.3055  -43.0046 C.2       6 UNK         0.5000 
     41 O          -1.5015  -18.4445  -43.1521 O.2       6 UNK        -0.5000 
     42 CA         -1.9574  -16.2223  -42.3813 C.3       6 UNK         0.1400 
     43 CB         -1.9149  -16.3102  -40.8487 C.3       6 UNK        -0.1800 
     44 N          -1.6036  -14.8619  -42.7917 N.am      6 UNK        -0.5000 
     45 C          -1.7900  -14.3622  -44.0215 C.2       5 UNK         0.5000 
     46 O          -2.2699  -15.0048  -44.9549 O.2       5 UNK        -0.5000 
     47 CA         -1.3269  -12.9105  -44.2478 C.3       5 UNK         0.1400 
     48 CB         -2.4326  -11.9190  -43.8583 C.3       5 UNK        -0.1800 
     49 N          -0.0995  -12.5837  -43.5193 N.am      5 UNK        -0.5000 
     50 C           1.0985  -13.1237  -43.7788 C.2       4 UNK         0.5000 
     51 O           1.2936  -13.9389  -44.6831 O.2       4 UNK        -0.5000 
     52 CA          2.2537  -12.6376  -42.8904 C.3       4 UNK         0.1400 
     53 CB          3.6131  -13.2833  -43.2218 C.3       4 UNK        -0.1800 
     54 N           2.3505  -11.1843  -42.9863 N.am      4 UNK        -0.5000 
     55 C           2.8465  -10.3765  -42.0401 C.2       3 UNK         0.5000 
     56 O           3.2389  -10.7834  -40.9450 O.2       3 UNK        -0.5000 
     57 CA          2.8985   -8.8634  -42.3590 C.3       3 UNK         0.1400 
     58 CB          4.0370   -8.1345  -41.6140 C.3       3 UNK        -0.1800 
     59 N           2.9332   -8.5593  -43.7957 N.am      3 UNK        -0.5000 
     60 C           3.8877   -8.8953  -44.6757 C.2       2 UNK         0.5000 
     61 O           4.9319   -9.4826  -44.3859 O.2       2 UNK        -0.5000 
     62 CA          3.5887   -8.5617  -46.1503 C.3       2 UNK         0.1400 
     63 CB          4.7203   -7.7288  -46.7739 C.3       2 UNK        -0.1800 
     64 N           3.3856   -9.7731  -46.9484 N.am      2 UNK        -0.5000 
     65 C           2.4442  -10.6993  -46.7196 C.2       1 UNK         0.5000 
     66 O           1.6155  -10.6148  -45.8078 O.2       1 UNK        -0.5000 
     67 C          -0.1922  -23.4542  -48.2790 C.2       11 UNK         0.5000 
     68 O           0.0425  -24.5579  -48.7715 O.2       11 UNK        -0.5000 
     69 N          -1.3305  -22.7760  -48.4879 N.am      12 UNK        -0.5000 
     70 CA         -2.4515  -23.2865  -49.2759 C.3       12 UNK         0.1400 
     71 CB         -3.5165  -22.1976  -49.4399 C.3       12 UNK        -0.1800 
     72 C          -3.0623  -24.5620  -48.6725 C.2       12 UNK         0.5000 
     73 O          -3.2643  -25.5322  -49.4001 O.2       12 UNK        -0.5000 
     74 N          -3.2916  -24.5629  -47.3516 N.am      13 UNK        -0.5000 
     75 CA         -3.7879  -25.7139  -46.5967 C.3       13 UNK         0.1400 
     76 CB         -4.0769  -25.2999  -45.1462 C.3       13 UNK        -0.1800 
     77 C          -2.8305  -26.9184  -46.6436 C.2       13 UNK         0.5000 
     78 O          -3.2899  -28.0444  -46.8354 O.2       13 UNK        -0.5000 
     79 N          -1.5205  -26.6599  -46.5183 N.am      14 UNK        -0.5000 
     80 CA         -0.4590  -27.6625  -46.6397 C.3       14 UNK         0.1400 
     81 CB          0.8825  -27.0419  -46.2217 C.3       14 UNK        -0.1800 
     82 C          -0.3632  -28.2713  -48.0527 C.2       14 UNK         0.5000 
     83 O          -0.1278  -29.4731  -48.1822 O.2       14 UNK        -0.5000 
     84 N          -0.5773  -27.4408  -49.0818 N.am      15 UNK        -0.5000 
     85 CA         -0.6311  -27.8425  -50.4893 C.3       15 UNK         0.1400 
     86 CB         -0.3999  -26.5988  -51.3633 C.3       15 UNK        -0.1800 
     87 C          -1.9522  -28.5349  -50.8870 C.2       15 UNK         0.5000 
     88 O          -2.0190  -29.1069  -51.9758 O.2       15 UNK        -0.5000 
     89 N          -2.9745  -28.4511  -50.0215 N.am      16 UNK        -0.5000 
     90 CA         -4.3661  -28.8666  -50.2313 C.3       16 UNK         0.1400 
     91 CB         -4.4741  -30.3979  -50.3864 C.3       16 UNK        -0.1800 
     92 C          -5.0408  -28.0814  -51.3783 C.2       16 UNK         0.5000 
     93 O          -5.7757  -28.6556  -52.1846 O.2       16 UNK        -0.5000 
     94 N          -4.7572  -26.7764  -51.4280 N.am      17 UNK        -0.5000 
     95 CA         -5.2358  -25.8166  -52.4155 C.3       17 UNK         0.1400 
     96 CB         -4.0045  -25.1795  -53.0810 C.3       17 UNK        -0.1800 
     97 C          -6.0993  -24.7398  -51.7358 C.2       17 UNK         0.5000 
     98 O          -6.1566  -24.6651  -50.5056 O.2       17 UNK        -0.5000 
     99 N          -6.7542  -23.9088  -52.5552 N.am      18 UNK        -0.5000 
    100 CA        -7.5138  -22.7442  -52.1046 C.3       18 UNK         0.1400 
    101 CB        -8.4301  -22.2705  -53.2435 C.3       18 UNK        -0.1800 
    102 C         -6.5716  -21.6066  -51.6773 C.2       18 UNK         0.5000 
    103 O         -5.5637  -21.3660  -52.3483 O.2       18 UNK        -0.5000 
    104 N         -6.9371  -20.8936  -50.6039 N.am      19 UNK        -0.5000 
    105 CA        -6.1963  -19.7380  -50.0867 C.3       19 UNK         0.1400 
    106 CB        -6.7256  -19.3688  -48.6932 C.3       19 UNK        -0.1800 
    107 C         -6.2350  -18.5234  -51.0326 C.2       19 UNK         0.5000 
    108 O         -5.2769  -17.7529  -51.0634 O.2       19 UNK        -0.5000 
    109 N         -7.3114  -18.4045  -51.8239 N.am      20 UNK        -0.5000 
    110 CA        -7.4685  -17.3960  -52.8755 C.3       20 UNK         0.1400 
    111 CB        -8.9263  -17.3990  -53.3600 C.3       20 UNK        -0.1800 
    112 C         -6.5052  -17.6108  -54.0603 C.2       20 UNK         0.5000 
    113 O         -6.0725  -16.6366  -54.6764 O.2       20 UNK        -0.5000 
    114 N         -6.1726  -18.8787  -54.3401 N.am      21 UNK        -0.5000 
    115 CA        -5.1764  -19.2823  -55.3350 C.3       21 UNK         0.1400 
    116 CB        -5.5604  -20.6691  -55.8765 C.3       21 UNK        -0.1800 
    117 C         -3.7479  -19.3123  -54.7544 C.2       21 UNK         0.5000 
    118 O         -2.7863  -19.3917  -55.5197 O.2       21 UNK        -0.5000 
    119 N         -3.6385  -19.2631  -53.4204 N.am      22 UNK        -0.5000 
    120 CA        -2.4125  -19.4453  -52.6326 C.3       22 UNK         0.1400 
    121 C         -1.8491  -20.8977  -52.6989 C.2       22 UNK         0.5000 
    122 N         -2.7046  -21.9057  -52.8279 N.am      22 UNK        -0.7600 
    123 O         -0.6442  -21.1241  -52.6340 O.2       22 UNK        -0.5000 
    124 C124       -1.3607  -18.3284  -52.8937 C.3       23 UNK        -0.0398 
    125 S125       -0.5351  -17.8219  -51.3508 S.3       23 UNK        -0.2404 
    126 C126        1.2207  -18.0883  -51.7361 C.3       23 UNK        -0.0205 
    127 H127       -1.9966  -12.2365  -47.8259 H         1 UNK         0.0600 
    128 H128       -1.1285  -13.7161  -47.4122 H         1 UNK         0.0600 
    129 H129       -1.5567  -13.3897  -49.0914 H         1 UNK         0.0600 
    130 H130        1.0080  -13.2591  -46.8974 H         1 UNK         0.3000 
    131 H131        2.6468  -11.5654  -48.6669 H         1 UNK         0.0600 
    132 H132        4.5316  -12.3992  -47.1858 H         1 UNK         0.0800 
    133 H133        3.3813  -13.3583  -46.2940 H         1 UNK         0.0800 
    134 H134        1.9296  -15.3282  -47.4054 H         1 UNK         0.0800 
    135 H135        3.4663  -15.8146  -46.7271 H         1 UNK         0.0800 
    136 H136        1.6414  -15.9985  -50.0269 H         1 UNK         0.1150 
    137 H137        2.6550  -20.1200  -50.6254 H         1 UNK         0.1150 
    138 H138        4.1308  -18.0333  -47.1878 H         1 UNK         0.1150 
    139 H139        4.3862  -21.1312  -49.2470 H         1 UNK         0.0800 
    140 H140        5.1625  -20.2103  -47.9852 H         1 UNK         0.0800 
    141 H141        2.0601  -22.2295  -49.0412 H         1 UNK         0.0800 
    142 H142        1.1703  -20.9086  -48.3127 H         1 UNK         0.0800 
    143 H143        1.4821  -23.6398  -46.9806 H         1 UNK         0.0600 
    144 H144        0.3178  -21.2364  -46.0212 H         1 UNK         0.3000 
    145 H145       -1.8914  -22.8009  -43.6248 H         1 UNK         0.0600 
    146 H146       -0.6568  -21.1325  -42.2429 H         1 UNK         0.0600 
    147 H147        0.3445  -22.5329  -42.5990 H         1 UNK         0.0600 
    148 H148        0.6028  -21.0299  -43.4715 H         1 UNK         0.0600 
    149 H149       -1.6068  -20.0680  -44.3174 H         1 UNK         0.3000 
    150 H150       -4.1261  -19.9714  -46.8727 H         1 UNK         0.0600 
    151 H151       -5.3386  -19.8495  -44.7021 H         1 UNK         0.0600 
    152 H152       -5.0142  -18.2434  -45.3354 H         1 UNK         0.0600 
    153 H153       -4.0435  -18.8823  -44.0091 H         1 UNK         0.0600 
    154 H154       -2.4497  -17.9675  -45.6907 H         1 UNK         0.3000 
    155 H155        0.1894  -18.1919  -48.0888 H         1 UNK         0.0600 
    156 H156       -1.8768  -16.0397  -47.3792 H         1 UNK         0.0600 
    157 H157       -0.4033  -15.8376  -48.3331 H         1 UNK         0.0600 
    158 H158       -1.7494  -16.7717  -48.9637 H         1 UNK         0.0600 
    159 H159       -0.1629  -16.5461  -45.7818 H         1 UNK         0.3000 
    160 H160        1.2514  -18.7150  -43.3524 H         1 UNK         0.0600 
    161 H161        2.4813  -16.2463  -44.6720 H         1 UNK         0.0600 
    162 H162        3.2610  -17.8155  -44.5339 H         1 UNK         0.0600 
    163 H163        2.8887  -16.8934  -43.0847 H         1 UNK         0.0600 
    164 H164        0.4576  -15.9769  -43.2590 H         1 UNK         0.3000 
    165 H165       -2.9808  -16.4216  -42.7067 H         1 UNK         0.0600 
    166 H166       -2.6077  -15.6022  -40.3933 H         1 UNK         0.0600 
    167 H167       -2.1994  -17.3063  -40.5066 H         1 UNK         0.0600 
    168 H168       -0.9170  -16.1025  -40.4604 H         1 UNK         0.0600 
    169 H169       -1.2005  -14.2638  -42.0855 H         1 UNK         0.3000 
    170 H170       -1.1236  -12.7843  -45.3107 H         1 UNK         0.0600 
    171 H171       -3.3528  -12.1264  -44.4063 H         1 UNK         0.0600 
    172 H172       -2.6651  -11.9698  -42.7939 H         1 UNK         0.0600 
    173 H173       -2.1416  -10.8944  -44.0908 H         1 UNK         0.0600 
    174 H174       -0.1745  -11.8964  -42.7833 H         1 UNK         0.3000 
    175 H175        1.9871  -12.9167  -41.8689 H         1 UNK         0.0600 
    176 H176        4.0060  -12.9267  -44.1726 H         1 UNK         0.0600 
    177 H177        4.3523  -13.0489  -42.4559 H         1 UNK         0.0600 
    178 H178        3.5384  -14.3696  -43.2734 H         1 UNK         0.0600 
    179 H179        2.0352  -10.7861  -43.8676 H         1 UNK         0.3000 
    180 H180        1.9569   -8.4540  -41.9908 H         1 UNK         0.0600 
    181 H181        5.0152   -8.5445  -41.8664 H         1 UNK         0.0600 
    182 H182        3.9171   -8.2215  -40.5335 H         1 UNK         0.0600 
    183 H183        4.0469   -7.0709  -41.8520 H         1 UNK         0.0600 
    184 H184        2.1002   -8.1134  -44.1553 H         1 UNK         0.3000 
    185 H185        2.6710   -7.9720  -46.2016 H         1 UNK         0.0600 
    186 H186        4.8924   -6.8161  -46.2020 H         1 UNK         0.0600 
    187 H187        5.6607   -8.2808  -46.8016 H         1 UNK         0.0600 
    188 H188        4.4758   -7.4309  -47.7937 H         1 UNK         0.0600 
    189 H189        4.0414   -9.9178  -47.7024 H         1 UNK         0.3000 
    190 H190       -1.4402  -21.8483  -48.0894 H         1 UNK         0.3000 
    191 H191       -2.0708  -23.5362  -50.2683 H         1 UNK         0.0600 
    192 H192       -3.9375  -21.8897  -48.4835 H         1 UNK         0.0600 
    193 H193       -4.3368  -22.5577  -50.0592 H         1 UNK         0.0600 
    194 H194       -3.1030  -21.3146  -49.9255 H         1 UNK         0.0600 
    195 H195       -3.1373  -23.7072  -46.8239 H         1 UNK         0.3000 
    196 H196       -4.7298  -26.0237  -47.0541 H         1 UNK         0.0600 
    197 H197       -4.4583  -26.1419  -44.5674 H         1 UNK         0.0600 
    198 H198       -4.8274  -24.5104  -45.1050 H         1 UNK         0.0600 
    199 H199       -3.1805  -24.9344  -44.6448 H         1 UNK         0.0600 
    200 H200       -1.2280  -25.7088  -46.3121 H         1 UNK         0.3000 
    201 H201       -0.6874  -28.4738  -45.9455 H         1 UNK         0.0600 
    202 H202        0.8442  -26.6746  -45.1960 H         1 UNK         0.0600 
    203 H203        1.1577  -26.2062  -46.8653 H         1 UNK         0.0600 
    204 H204        1.6867  -27.7767  -46.2749 H         1 UNK         0.0600 
    205 H205       -0.7010  -26.4512  -48.8914 H         1 UNK         0.3000 
    206 H206        0.1791  -28.5487  -50.6809 H         1 UNK         0.0600 
    207 H207        0.5585  -26.1307  -51.1380 H         1 UNK         0.0600 
    208 H208       -0.3940  -26.8573  -52.4229 H         1 UNK         0.0600 
    209 H209       -1.1800  -25.8519  -51.2126 H         1 UNK         0.0600 
    210 H210       -2.8086  -27.9306  -49.1698 H         1 UNK         0.3000 
    211 H211       -4.9014  -28.5914  -49.3215 H         1 UNK         0.0600 
    212 H212       -4.0163  -30.7479  -51.3118 H         1 UNK         0.0600 
    213 H213       -5.5175  -30.7148  -50.3994 H         1 UNK         0.0600 
    214 H214       -3.9897  -30.9121  -49.5563 H         1 UNK         0.0600 
    215 H215       -4.2025  -26.3719  -50.6737 H         1 UNK         0.3000 
    216 H216       -5.8417  -26.3115  -53.1770 H         1 UNK         0.0600 
    217 H217       -4.2901  -24.4455  -53.8354 H         1 UNK         0.0600 
    218 H218       -3.3938  -25.9340  -53.5775 H         1 UNK         0.0600 
    219 H219       -3.3756  -24.6756  -52.3464 H         1 UNK         0.0600 
    220 H220       -6.6356  -24.0070  -53.5527 H         1 UNK         0.3000 
    221 H221       -8.1354  -23.0352  -51.2550 H         1 UNK         0.0600 
    222 H222       -7.8609  -21.9755  -54.1258 H         1 UNK         0.0600 
    223 H223       -9.1247  -23.0560  -53.5416 H         1 UNK         0.0600 
    224 H224       -9.0273  -21.4112  -52.9356 H         1 UNK         0.0600 
    225 H225       -7.7759  -21.1512  -50.1036 H         1 UNK         0.3000 
    226 H226       -5.1491  -20.0235  -49.9819 H         1 UNK         0.0600 
    227 H227       -6.6195  -20.2024  -47.9984 H         1 UNK         0.0600 
    228 H228       -6.1704  -18.5279  -48.2750 H         1 UNK         0.0600 
    229 H229       -7.7785  -19.0862  -48.7232 H         1 UNK         0.0600 
    230 H230       -8.0597  -19.0736  -51.7200 H         1 UNK         0.3000 
    231 H231       -7.2519  -16.4163  -52.4443 H         1 UNK         0.0600 
    232 H232       -9.0831  -16.6423  -54.1300 H         1 UNK         0.0600 
    233 H233       -9.6139  -17.1771  -52.5437 H         1 UNK         0.0600 
    234 H234       -9.2085  -18.3632  -53.7851 H         1 UNK         0.0600 
    235 H235       -6.5576  -19.6182  -53.7709 H         1 UNK         0.3000 
    236 H236       -5.1837  -18.5759  -56.1678 H         1 UNK         0.0600 
    237 H237       -6.5631  -20.6631  -56.3040 H         1 UNK         0.0600 
    238 H238       -4.8741  -20.9840  -56.6636 H         1 UNK         0.0600 
    239 H239       -5.5315  -21.4299  -55.0956 H         1 UNK         0.0600 
    240 H240       -4.4913  -19.2130  -52.8833 H         1 UNK         0.3000 
    241 H241       -2.7574  -19.3417  -51.6030 H         1 UNK         0.0600 
    242 H242       -3.7057  -21.7340  -52.8259 H         1 UNK         0.3800 
    243 H243       -2.3471  -22.8422  -52.9015 H         1 UNK         0.3800 
    244 H244       -0.6357  -18.6264  -53.6527 H         1 UNK         0.0800 
    245 H245       -1.8468  -17.4347  -53.2871 H         1 UNK         0.0800 
    246 H246        1.3353  -19.0443  -52.2498 H         1 UNK         0.0800 
    247 H247        1.5650  -17.3159  -52.4249 H         1 UNK         0.0800 
@<TRIPOS>BOND
     1    1    2 1    
     2    1  127 1    
     3    1  128 1    
     4    1  129 1    
     5    2    3 2    
     6    2    4 am   BACKBONE|DICT|INTERRES
     7    4    5 1    
     8    4  130 1    
     9    5    6 1    
    10    5   65 1    
    11    5  131 1    
    12    6    7 1    
    13    6  132 1    
    14    6  133 1    
    15    7    8 1    
    16    8    9 1    
    17    8  134 1    
    18    8  135 1    
    19    9   10 ar   
    20    9   14 ar   
    21   10   11 ar   
    22   10  136 1    
    23   11   12 ar   
    24   11  126 1    
    25   12   13 ar   
    26   12  137 1    
    27   13   14 ar   
    28   13   15 1    
    29   14  138 1    
    30   15   16 1    
    31   15  139 1    
    32   15  140 1    
    33   16   17 1    
    34   17   18 1    
    35   17  141 1    
    36   17  142 1    
    37   18   19 1    
    38   18   67 1    
    39   18  143 1    
    40   19   20 am   BACKBONE|DICT|INTERRES
    41   19  144 1    
    42   20   21 2    
    43   20   22 1    
    44   22   23 1    
    45   22   24 1    
    46   22  145 1    
    47   23  146 1    
    48   23  147 1    
    49   23  148 1    
    50   24   25 am   BACKBONE|DICT|INTERRES
    51   24  149 1    
    52   25   26 2    
    53   25   27 1    
    54   27   28 1    
    55   27   29 1    
    56   27  150 1    
    57   28  151 1    
    58   28  152 1    
    59   28  153 1    
    60   29   30 am   BACKBONE|DICT|INTERRES
    61   29  154 1    
    62   30   31 2    
    63   30   32 1    
    64   32   33 1    
    65   32   34 1    
    66   32  155 1    
    67   33  156 1    
    68   33  157 1    
    69   33  158 1    
    70   34   35 am   BACKBONE|DICT|INTERRES
    71   34  159 1    
    72   35   36 2    
    73   35   37 1    
    74   37   38 1    
    75   37   39 1    
    76   37  160 1    
    77   38  161 1    
    78   38  162 1    
    79   38  163 1    
    80   39   40 am   BACKBONE|DICT|INTERRES
    81   39  164 1    
    82   40   41 2    
    83   40   42 1    
    84   42   43 1    
    85   42   44 1    
    86   42  165 1    
    87   43  166 1    
    88   43  167 1    
    89   43  168 1    
    90   44   45 am   BACKBONE|DICT|INTERRES
    91   44  169 1    
    92   45   46 2    
    93   45   47 1    
    94   47   48 1    
    95   47   49 1    
    96   47  170 1    
    97   48  171 1    
    98   48  172 1    
    99   48  173 1    
   100   49   50 am   BACKBONE|DICT|INTERRES
   101   49  174 1    
   102   50   51 2    
   103   50   52 1    
   104   52   53 1    
   105   52   54 1    
   106   52  175 1    
   107   53  176 1    
   108   53  177 1    
   109   53  178 1    
   110   54   55 am   BACKBONE|DICT|INTERRES
   111   54  179 1    
   112   55   56 2    
   113   55   57 1    
   114   57   58 1    
   115   57   59 1    
   116   57  180 1    
   117   58  181 1    
   118   58  182 1    
   119   58  183 1    
   120   59   60 am   BACKBONE|DICT|INTERRES
   121   59  184 1    
   122   60   61 2    
   123   60   62 1    
   124   62   63 1    
   125   62   64 1    
   126   62  185 1    
   127   63  186 1    
   128   63  187 1    
   129   63  188 1    
   130   64   65 am   BACKBONE|DICT|INTERRES
   131   64  189 1    
   132   65   66 2    
   133   67   68 2    
   134   67   69 am   BACKBONE|DICT|INTERRES
   135   69   70 1    
   136   69  190 1    
   137   70   71 1    
   138   70   72 1    
   139   70  191 1    
   140   71  192 1    
   141   71  193 1    
   142   71  194 1    
   143   72   73 2    
   144   72   74 am   BACKBONE|DICT|INTERRES
   145   74   75 1    
   146   74  195 1    
   147   75   76 1    
   148   75   77 1    
   149   75  196 1    
   150   76  197 1    
   151   76  198 1    
   152   76  199 1    
   153   77   78 2    
   154   77   79 am   BACKBONE|DICT|INTERRES
   155   79   80 1    
   156   79  200 1    
   157   80   81 1    
   158   80   82 1    
   159   80  201 1    
   160   81  202 1    
   161   81  203 1    
   162   81  204 1    
   163   82   83 2    
   164   82   84 am   BACKBONE|DICT|INTERRES
   165   84   85 1    
   166   84  205 1    
   167   85   86 1    
   168   85   87 1    
   169   85  206 1    
   170   86  207 1    
   171   86  208 1    
   172   86  209 1    
   173   87   88 2    
   174   87   89 am   BACKBONE|DICT|INTERRES
   175   89   90 1    
   176   89  210 1    
   177   90   91 1    
   178   90   92 1    
   179   90  211 1    
   180   91  212 1    
   181   91  213 1    
   182   91  214 1    
   183   92   93 2    
   184   92   94 am   BACKBONE|DICT|INTERRES
   185   94   95 1    
   186   94  215 1    
   187   95   96 1    
   188   95   97 1    
   189   95  216 1    
   190   96  217 1    
   191   96  218 1    
   192   96  219 1    
   193   97   98 2    
   194   97   99 am   BACKBONE|DICT|INTERRES
   195   99  100 1    
   196   99  220 1    
   197  100  101 1    
   198  100  102 1    
   199  100  221 1    
   200  101  222 1    
   201  101  223 1    
   202  101  224 1    
   203  102  103 2    
   204  102  104 am   BACKBONE|DICT|INTERRES
   205  104  105 1    
   206  104  225 1    
   207  105  106 1    
   208  105  107 1    
   209  105  226 1    
   210  106  227 1    
   211  106  228 1    
   212  106  229 1    
   213  107  108 2    
   214  107  109 am   BACKBONE|DICT|INTERRES
   215  109  110 1    
   216  109  230 1    
   217  110  111 1    
   218  110  112 1    
   219  110  231 1    
   220  111  232 1    
   221  111  233 1    
   222  111  234 1    
   223  112  113 2    
   224  112  114 am   BACKBONE|DICT|INTERRES
   225  114  115 1    
   226  114  235 1    
   227  115  116 1    
   228  115  117 1    
   229  115  236 1    
   230  116  237 1    
   231  116  238 1    
   232  116  239 1    
   233  117  118 2    
   234  117  119 am   BACKBONE|DICT|INTERRES
   235  119  120 1    
   236  119  240 1    
   237  120  121 1    
   238  120  124 1    
   239  120  241 1    
   240  121  122 am   BACKBONE|DICT|INTERRES
   241  121  123 2    
   242  122  242 1    
   243  122  243 1    
   244  124  125 1    
   245  124  244 1    
   246  124  245 1    
   247  125  126 1    
   248  126  246 1    
   249  126  247 1    
@<TRIPOS>SUBSTRUCTURE
     1 UNK         1 GROUP             0       ****    0 ROOT    
