@<TRIPOS>MOLECULE
3R540
247   249    1
SMALL
USER_CHARGES


@<TRIPOS>ATOM
      1 CA          0.0422  -13.0940  -51.4325 C.3       0 UNK        -0.1800 
      2 C           0.3417  -12.6121  -50.0198 C.2       0 UNK         0.5000 
      3 O           0.5433  -11.4159  -49.8117 O.2       0 UNK        -0.5000 
      4 N           0.3708  -13.5453  -49.0591 N.am      1 UNK        -0.5000 
      5 CA          0.5929  -13.3275  -47.6229 C.3       1 UNK         0.1400 
      6 C6         -0.5283  -12.5051  -46.9255 C.3       23 UNK        -0.0398 
      7 S7         -2.2528  -13.0570  -47.1847 S.3       23 UNK        -0.2404 
      8 C8         -2.1975  -14.8694  -46.9699 C.3       23 UNK        -0.0205 
      9 C9         -1.9113  -15.6275  -48.2623 C.ar      23 UNK        -0.0193 
     10 C10        -2.5660  -15.2909  -49.4511 C.ar      23 UNK        -0.1150 
     11 C11        -2.2854  -15.9717  -50.6374 C.ar      23 UNK        -0.0193 
     12 C12        -1.3603  -17.0189  -50.6284 C.ar      23 UNK        -0.1150 
     13 C13        -0.7211  -17.3895  -49.4416 C.ar      23 UNK        -0.0193 
     14 C14        -0.9956  -16.6829  -48.2678 C.ar      23 UNK        -0.1150 
     15 C15         0.2794  -18.5379  -49.4321 C.3       23 UNK        -0.0205 
     16 S16        -0.5071  -20.1457  -49.7701 S.3       23 UNK        -0.2404 
     17 C17        -1.4802  -20.4475  -48.2563 C.3       23 UNK        -0.0398 
     18 CA         -1.0873  -21.7902  -47.5775 C.3       11 UNK         0.1400 
     19 N          -0.1798  -21.6063  -46.4368 N.am      11 UNK        -0.5000 
     20 C           0.4329  -22.6071  -45.7861 C.2       10 UNK         0.5000 
     21 O           0.3152  -23.7919  -46.0920 O.2       10 UNK        -0.5000 
     22 CA          1.2777  -22.2396  -44.5545 C.3       10 UNK         0.1400 
     23 CB          2.6179  -21.6145  -44.9689 C.3       10 UNK        -0.1800 
     24 N           0.5690  -21.3581  -43.6266 N.am      10 UNK        -0.5000 
     25 C          -0.5547  -21.6956  -42.9761 C.2       9 UNK         0.5000 
     26 O          -1.0955  -22.7966  -43.0705 O.2       9 UNK        -0.5000 
     27 CA         -1.2131  -20.6135  -42.1031 C.3       9 UNK         0.1400 
     28 CB         -0.5108  -20.5112  -40.7412 C.3       9 UNK        -0.1800 
     29 N          -1.2336  -19.3012  -42.7461 N.am      9 UNK        -0.5000 
     30 C          -1.8596  -19.0217  -43.8987 C.2       8 UNK         0.5000 
     31 O          -2.5270  -19.8342  -44.5385 O.2       8 UNK        -0.5000 
     32 CA         -1.6372  -17.6106  -44.4689 C.3       8 UNK         0.1400 
     33 CB         -2.4568  -16.5694  -43.6901 C.3       8 UNK        -0.1800 
     34 N          -0.2201  -17.2373  -44.4726 N.am      8 UNK        -0.5000 
     35 C           0.7386  -17.9194  -45.1182 C.2       7 UNK         0.5000 
     36 O           0.5214  -18.8970  -45.8323 O.2       7 UNK        -0.5000 
     37 CA          2.1852  -17.4497  -44.9170 C.3       7 UNK         0.1400 
     38 CB          2.5189  -16.2877  -45.8624 C.3       7 UNK        -0.1800 
     39 N           2.4458  -17.0762  -43.5274 N.am      7 UNK        -0.5000 
     40 C           2.5113  -17.9611  -42.5216 C.2       6 UNK         0.5000 
     41 O           2.4308  -19.1794  -42.6762 O.2       6 UNK        -0.5000 
     42 CA          2.6259  -17.3845  -41.1006 C.3       6 UNK         0.1400 
     43 CB          4.0894  -17.0864  -40.7441 C.3       6 UNK        -0.1800 
     44 N           1.8109  -16.1797  -40.9324 N.am      6 UNK        -0.5000 
     45 C           0.4694  -16.1927  -40.9096 C.2       5 UNK         0.5000 
     46 O          -0.1998  -17.2213  -41.0012 O.2       5 UNK        -0.5000 
     47 CA         -0.2560  -14.8387  -40.8018 C.3       5 UNK         0.1400 
     48 CB         -0.5349  -14.4963  -39.3311 C.3       5 UNK        -0.1800 
     49 N           0.4634  -13.7282  -41.4247 N.am      5 UNK        -0.5000 
     50 C           0.7739  -13.6332  -42.7242 C.2       4 UNK         0.5000 
     51 O           0.4947  -14.4981  -43.5586 O.2       4 UNK        -0.5000 
     52 CA          1.5522  -12.3772  -43.1705 C.3       4 UNK         0.1400 
     53 CB          1.8192  -11.3555  -42.0417 C.3       4 UNK        -0.1800 
     54 N           2.8063  -12.7251  -43.8424 N.am      4 UNK        -0.5000 
     55 C           3.8091  -13.4699  -43.3508 C.2       3 UNK         0.5000 
     56 O           3.7835  -13.9875  -42.2333 O.2       3 UNK        -0.5000 
     57 CA          5.0268  -13.6920  -44.2703 C.3       3 UNK         0.1400 
     58 CB          5.7427  -15.0252  -43.9839 C.3       3 UNK        -0.1800 
     59 N           4.6268  -13.6507  -45.6782 N.am      3 UNK        -0.5000 
     60 C           5.0794  -12.7893  -46.5962 C.2       2 UNK         0.5000 
     61 O           5.9615  -11.9569  -46.3832 O.2       2 UNK        -0.5000 
     62 CA          4.4165  -12.8517  -47.9890 C.3       2 UNK         0.1400 
     63 CB          5.2418  -13.7405  -48.9319 C.3       2 UNK        -0.1800 
     64 N           3.0223  -13.3173  -48.0010 N.am      2 UNK        -0.5000 
     65 C           2.0003  -12.7492  -47.3420 C.2       1 UNK         0.5000 
     66 O           2.1424  -11.8167  -46.5491 O.2       1 UNK        -0.5000 
     67 C          -2.3364  -22.6113  -47.1948 C.2       11 UNK         0.5000 
     68 O          -2.7450  -23.4887  -47.9623 O.2       11 UNK        -0.5000 
     69 N          -2.9017  -22.3345  -46.0102 N.am      12 UNK        -0.5000 
     70 CA         -4.0327  -23.0656  -45.4443 C.3       12 UNK         0.1400 
     71 CB         -4.5242  -22.3789  -44.1615 C.3       12 UNK        -0.1800 
     72 C          -3.7063  -24.5478  -45.1919 C.2       12 UNK         0.5000 
     73 O          -4.4483  -25.4176  -45.6500 O.2       12 UNK        -0.5000 
     74 N          -2.5852  -24.8030  -44.5042 N.am      13 UNK        -0.5000 
     75 CA         -2.0966  -26.1418  -44.1753 C.3       13 UNK         0.1400 
     76 CB         -0.9322  -26.0289  -43.1796 C.3       13 UNK        -0.1800 
     77 C          -1.6708  -26.9611  -45.4064 C.2       13 UNK         0.5000 
     78 O          -1.8766  -28.1755  -45.4163 O.2       13 UNK        -0.5000 
     79 N          -1.0818  -26.2938  -46.4092 N.am      14 UNK        -0.5000 
     80 CA         -0.6001  -26.9074  -47.6445 C.3       14 UNK         0.1400 
     81 CB          0.2226  -25.8929  -48.4556 C.3       14 UNK        -0.1800 
     82 C          -1.7294  -27.5001  -48.5008 C.2       14 UNK         0.5000 
     83 O          -1.6742  -28.6874  -48.8266 O.2       14 UNK        -0.5000 
     84 N          -2.7183  -26.6708  -48.8631 N.am      15 UNK        -0.5000 
     85 CA         -3.7747  -27.0532  -49.8030 C.3       15 UNK         0.1400 
     86 CB         -3.2019  -27.1364  -51.2378 C.3       15 UNK        -0.1800 
     87 C          -4.9976  -26.1227  -49.7360 C.2       15 UNK         0.5000 
     88 O          -5.6715  -25.9560  -50.7514 O.2       15 UNK        -0.5000 
     89 N          -5.2712  -25.5004  -48.5782 N.am      16 UNK        -0.5000 
     90 CA         -6.3699  -24.5400  -48.3722 C.3       16 UNK         0.1400 
     91 CB         -7.7370  -25.2545  -48.4307 C.3       16 UNK        -0.1800 
     92 C          -6.2887  -23.3162  -49.3182 C.2       16 UNK         0.5000 
     93 O          -7.3157  -22.8248  -49.7883 O.2       16 UNK        -0.5000 
     94 N          -5.0520  -22.8810  -49.6031 N.am      17 UNK        -0.5000 
     95 CA         -4.6516  -21.8359  -50.5518 C.3       17 UNK         0.1400 
     96 CB         -5.2213  -20.4601  -50.1491 C.3       17 UNK        -0.1800 
     97 C          -4.9056  -22.1707  -52.0400 C.2       17 UNK         0.5000 
     98 O          -4.7613  -21.2844  -52.8849 O.2       17 UNK        -0.5000 
     99 N          -5.2205  -23.4339  -52.3707 N.am      18 UNK        -0.5000 
    100 CA        -5.2521  -23.9247  -53.7520 C.3       18 UNK         0.1400 
    101 CB        -5.9125  -25.3096  -53.8060 C.3       18 UNK        -0.1800 
    102 C         -3.8354  -23.9721  -54.3562 C.2       18 UNK         0.5000 
    103 O         -2.8475  -23.9960  -53.6175 O.2       18 UNK        -0.5000 
    104 N         -3.7629  -23.9356  -55.6927 N.am      19 UNK        -0.5000 
    105 CA        -2.5642  -23.8021  -56.5366 C.3       19 UNK         0.1400 
    106 CB        -1.5332  -24.9179  -56.2759 C.3       19 UNK        -0.1800 
    107 C         -1.9208  -22.4012  -56.4696 C.2       19 UNK         0.5000 
    108 O         -1.5363  -21.8699  -57.5119 O.2       19 UNK        -0.5000 
    109 N         -1.8640  -21.8027  -55.2711 N.am      20 UNK        -0.5000 
    110 CA        -1.5655  -20.3858  -55.0574 C.3       20 UNK         0.1400 
    111 CB        -1.3229  -20.1235  -53.5627 C.3       20 UNK        -0.1800 
    112 C         -2.6981  -19.4948  -55.6017 C.2       20 UNK         0.5000 
    113 O         -2.4206  -18.5099  -56.2866 O.2       20 UNK        -0.5000 
    114 N         -3.9492  -19.8892  -55.3152 N.am      21 UNK        -0.5000 
    115 CA        -5.2345  -19.3888  -55.8236 C.3       21 UNK         0.1400 
    116 CB        -5.3199  -19.5509  -57.3529 C.3       21 UNK        -0.1800 
    117 C         -5.6185  -17.9583  -55.3951 C.2       21 UNK         0.5000 
    118 O         -6.8047  -17.6989  -55.1854 O.2       21 UNK        -0.5000 
    119 N         -4.6263  -17.0736  -55.2569 N.am      22 UNK        -0.5000 
    120 CA        -4.7422  -15.6603  -54.8663 C.3       22 UNK         0.1400 
    121 C         -5.4360  -14.7690  -55.9444 C.2       22 UNK         0.5000 
    122 N         -5.7104  -13.5045  -55.6489 N.am      22 UNK        -0.7600 
    123 O         -5.6934  -15.1887  -57.0711 O.2       22 UNK        -0.5000 
    124 C124       -5.3380  -15.4675  -53.4392 C.3       23 UNK        -0.0398 
    125 S125       -4.5293  -16.4779  -52.1500 S.3       23 UNK        -0.2404 
    126 C126       -2.9781  -15.5603  -51.9239 C.3       23 UNK        -0.0205 
    127 H127        0.0186  -14.1824  -51.4930 H         1 UNK         0.0600 
    128 H128        0.8046  -12.7337  -52.1231 H         1 UNK         0.0600 
    129 H129       -0.9252  -12.7138  -51.7602 H         1 UNK         0.0600 
    130 H130        0.1584  -14.4995  -49.3152 H         1 UNK         0.3000 
    131 H131        0.5965  -14.3182  -47.1700 H         1 UNK         0.0600 
    132 H132       -0.4775  -11.4611  -47.2392 H         1 UNK         0.0800 
    133 H133       -0.3619  -12.4999  -45.8476 H         1 UNK         0.0800 
    134 H134       -1.4618  -15.1117  -46.2026 H         1 UNK         0.0800 
    135 H135       -3.1633  -15.2024  -46.5884 H         1 UNK         0.0800 
    136 H136       -3.2874  -14.4860  -49.4579 H         1 UNK         0.1150 
    137 H137       -1.1457  -17.5545  -51.5418 H         1 UNK         0.1150 
    138 H138       -0.4939  -16.9561  -47.3552 H         1 UNK         0.1150 
    139 H139        1.0348  -18.3518  -50.1965 H         1 UNK         0.0800 
    140 H140        0.8139  -18.5903  -48.4828 H         1 UNK         0.0800 
    141 H141       -2.5269  -20.4326  -48.5645 H         1 UNK         0.0800 
    142 H142       -1.3797  -19.6115  -47.5633 H         1 UNK         0.0800 
    143 H143       -0.5510  -22.4074  -48.3017 H         1 UNK         0.0600 
    144 H144       -0.0122  -20.6492  -46.1331 H         1 UNK         0.3000 
    145 H145        1.4962  -23.1662  -44.0194 H         1 UNK         0.0600 
    146 H146        3.2479  -21.4206  -44.1009 H         1 UNK         0.0600 
    147 H147        3.1712  -22.2842  -45.6282 H         1 UNK         0.0600 
    148 H148        2.4806  -20.6740  -45.5009 H         1 UNK         0.0600 
    149 H149        0.9774  -20.4445  -43.4645 H         1 UNK         0.3000 
    150 H150       -2.2487  -20.9120  -41.9292 H         1 UNK         0.0600 
    151 H151       -0.4924  -21.4781  -40.2368 H         1 UNK         0.0600 
    152 H152       -1.0269  -19.8111  -40.0841 H         1 UNK         0.0600 
    153 H153        0.5209  -20.1732  -40.8443 H         1 UNK         0.0600 
    154 H154       -0.7329  -18.5573  -42.2673 H         1 UNK         0.3000 
    155 H155       -1.9820  -17.6111  -45.5045 H         1 UNK         0.0600 
    156 H156       -3.5249  -16.7396  -43.8291 H         1 UNK         0.0600 
    157 H157       -2.2426  -15.5535  -44.0206 H         1 UNK         0.0600 
    158 H158       -2.2603  -16.6169  -42.6199 H         1 UNK         0.0600 
    159 H159        0.0399  -16.4083  -43.9479 H         1 UNK         0.3000 
    160 H160        2.8378  -18.2855  -45.1773 H         1 UNK         0.0600 
    161 H161        2.0643  -15.3548  -45.5317 H         1 UNK         0.0600 
    162 H162        2.1659  -16.4892  -46.8751 H         1 UNK         0.0600 
    163 H163        3.5962  -16.1485  -45.9282 H         1 UNK         0.0600 
    164 H164        2.4561  -16.0916  -43.3025 H         1 UNK         0.3000 
    165 H165        2.2597  -18.1420  -40.4040 H         1 UNK         0.0600 
    166 H166        4.1773  -16.6924  -39.7316 H         1 UNK         0.0600 
    167 H167        4.6923  -17.9940  -40.7935 H         1 UNK         0.0600 
    168 H168        4.5356  -16.3633  -41.4258 H         1 UNK         0.0600 
    169 H169        2.2994  -15.2937  -40.9041 H         1 UNK         0.3000 
    170 H170       -1.2143  -14.9362  -41.3143 H         1 UNK         0.0600 
    171 H171       -1.0950  -15.2956  -38.8436 H         1 UNK         0.0600 
    172 H172        0.3888  -14.3525  -38.7690 H         1 UNK         0.0600 
    173 H173       -1.1281  -13.5859  -39.2428 H         1 UNK         0.0600 
    174 H174        0.7547  -12.9820  -40.8103 H         1 UNK         0.3000 
    175 H175        0.9284  -11.8839  -43.9160 H         1 UNK         0.0600 
    176 H176        2.4428  -11.7691  -41.2482 H         1 UNK         0.0600 
    177 H177        2.3297  -10.4748  -42.4318 H         1 UNK         0.0600 
    178 H178        0.8881  -11.0074  -41.5926 H         1 UNK         0.0600 
    179 H179        2.8921  -12.3636  -44.7871 H         1 UNK         0.3000 
    180 H180        5.7249  -12.8823  -44.0499 H         1 UNK         0.0600 
    181 H181        5.0721  -15.8784  -44.0817 H         1 UNK         0.0600 
    182 H182        6.1468  -15.0418  -42.9710 H         1 UNK         0.0600 
    183 H183        6.5796  -15.1766  -44.6658 H         1 UNK         0.0600 
    184 H184        3.8968  -14.2900  -45.9540 H         1 UNK         0.3000 
    185 H185        4.4198  -11.8361  -48.3899 H         1 UNK         0.0600 
    186 H186        6.2807  -13.4101  -48.9728 H         1 UNK         0.0600 
    187 H187        5.2410  -14.7814  -48.6059 H         1 UNK         0.0600 
    188 H188        4.8524  -13.7059  -49.9496 H         1 UNK         0.0600 
    189 H189        2.8120  -14.0645  -48.6465 H         1 UNK         0.3000 
    190 H190       -2.5362  -21.5672  -45.4529 H         1 UNK         0.3000 
    191 H191       -4.8412  -23.0121  -46.1709 H         1 UNK         0.0600 
    192 H192       -4.8481  -21.3576  -44.3620 H         1 UNK         0.0600 
    193 H193       -5.3753  -22.9112  -43.7353 H         1 UNK         0.0600 
    194 H194       -3.7471  -22.3386  -43.3988 H         1 UNK         0.0600 
    195 H195       -2.0350  -24.0242  -44.1489 H         1 UNK         0.3000 
    196 H196       -2.9101  -26.6813  -43.6860 H         1 UNK         0.0600 
    197 H197       -0.5551  -27.0142  -42.9028 H         1 UNK         0.0600 
    198 H198       -1.2456  -25.5310  -42.2618 H         1 UNK         0.0600 
    199 H199       -0.0998  -25.4627  -43.5998 H         1 UNK         0.0600 
    200 H200       -0.8780  -25.3059  -46.2869 H         1 UNK         0.3000 
    201 H201        0.0664  -27.7271  -47.3678 H         1 UNK         0.0600 
    202 H202        1.1224  -25.5973  -47.9165 H         1 UNK         0.0600 
    203 H203       -0.3485  -24.9901  -48.6747 H         1 UNK         0.0600 
    204 H204        0.5435  -26.3185  -49.4073 H         1 UNK         0.0600 
    205 H205       -2.6978  -25.7048  -48.5565 H         1 UNK         0.3000 
    206 H206       -4.1427  -28.0423  -49.5231 H         1 UNK         0.0600 
    207 H207       -2.3522  -27.8153  -51.3016 H         1 UNK         0.0600 
    208 H208       -3.9484  -27.5095  -51.9392 H         1 UNK         0.0600 
    209 H209       -2.8742  -26.1583  -51.5930 H         1 UNK         0.0600 
    210 H210       -4.7031  -25.6910  -47.7601 H         1 UNK         0.3000 
    211 H211       -6.2659  -24.1553  -47.3605 H         1 UNK         0.0600 
    212 H212       -7.9664  -25.6166  -49.4332 H         1 UNK         0.0600 
    213 H213       -8.5424  -24.5808  -48.1360 H         1 UNK         0.0600 
    214 H214       -7.7646  -26.1066  -47.7515 H         1 UNK         0.0600 
    215 H215       -4.2781  -23.3434  -49.1335 H         1 UNK         0.3000 
    216 H216       -3.5666  -21.7703  -50.4597 H         1 UNK         0.0600 
    217 H217       -4.7676  -19.6617  -50.7383 H         1 UNK         0.0600 
    218 H218       -5.0218  -20.2398  -49.1005 H         1 UNK         0.0600 
    219 H219       -6.2987  -20.4060  -50.3055 H         1 UNK         0.0600 
    220 H220       -5.3179  -24.1338  -51.6439 H         1 UNK         0.3000 
    221 H221       -5.8588  -23.2328  -54.3403 H         1 UNK         0.0600 
    222 H222       -5.2871  -26.0719  -53.3423 H         1 UNK         0.0600 
    223 H223       -6.8777  -25.3102  -53.2991 H         1 UNK         0.0600 
    224 H224       -6.0866  -25.6189  -54.8371 H         1 UNK         0.0600 
    225 H225       -4.6340  -23.9080  -56.2047 H         1 UNK         0.3000 
    226 H226       -2.9197  -23.9292  -57.5604 H         1 UNK         0.0600 
    227 H227       -1.9953  -25.9035  -56.3320 H         1 UNK         0.0600 
    228 H228       -0.7382  -24.8882  -57.0218 H         1 UNK         0.0600 
    229 H229       -1.0594  -24.8230  -55.2989 H         1 UNK         0.0600 
    230 H230       -2.1695  -22.3409  -54.4669 H         1 UNK         0.3000 
    231 H231       -0.6503  -20.1413  -55.6005 H         1 UNK         0.0600 
    232 H232       -2.1998  -20.3554  -52.9578 H         1 UNK         0.0600 
    233 H233       -1.0739  -19.0763  -53.3899 H         1 UNK         0.0600 
    234 H234       -0.4920  -20.7205  -53.1865 H         1 UNK         0.0600 
    235 H235       -4.0504  -20.6238  -54.6214 H         1 UNK         0.3000 
    236 H236       -5.9863  -20.0474  -55.3855 H         1 UNK         0.0600 
    237 H237       -5.1273  -20.5812  -57.6520 H         1 UNK         0.0600 
    238 H238       -6.3132  -19.2857  -57.7168 H         1 UNK         0.0600 
    239 H239       -4.6038  -18.9112  -57.8695 H         1 UNK         0.0600 
    240 H240       -3.6987  -17.3874  -55.5264 H         1 UNK         0.3000 
    241 H241       -3.7134  -15.3012  -54.8413 H         1 UNK         0.0600 
    242 H242       -6.1434  -12.9264  -56.3529 H         1 UNK         0.3800 
    243 H243       -5.4881  -13.1012  -54.7526 H         1 UNK         0.3800 
    244 H244       -5.2786  -14.4237  -53.1296 H         1 UNK         0.0800 
    245 H245       -6.4004  -15.7150  -53.4379 H         1 UNK         0.0800 
    246 H246       -2.3226  -15.7379  -52.7777 H         1 UNK         0.0800 
    247 H247       -3.1791  -14.4881  -51.9049 H         1 UNK         0.0800 
@<TRIPOS>BOND
     1    1    2 1    
     2    1  127 1    
     3    1  128 1    
     4    1  129 1    
     5    2    3 2    
     6    2    4 am   BACKBONE|DICT|INTERRES
     7    4    5 1    
     8    4  130 1    
     9    5    6 1    
    10    5   65 1    
    11    5  131 1    
    12    6    7 1    
    13    6  132 1    
    14    6  133 1    
    15    7    8 1    
    16    8    9 1    
    17    8  134 1    
    18    8  135 1    
    19    9   10 ar   
    20    9   14 ar   
    21   10   11 ar   
    22   10  136 1    
    23   11   12 ar   
    24   11  126 1    
    25   12   13 ar   
    26   12  137 1    
    27   13   14 ar   
    28   13   15 1    
    29   14  138 1    
    30   15   16 1    
    31   15  139 1    
    32   15  140 1    
    33   16   17 1    
    34   17   18 1    
    35   17  141 1    
    36   17  142 1    
    37   18   19 1    
    38   18   67 1    
    39   18  143 1    
    40   19   20 am   BACKBONE|DICT|INTERRES
    41   19  144 1    
    42   20   21 2    
    43   20   22 1    
    44   22   23 1    
    45   22   24 1    
    46   22  145 1    
    47   23  146 1    
    48   23  147 1    
    49   23  148 1    
    50   24   25 am   BACKBONE|DICT|INTERRES
    51   24  149 1    
    52   25   26 2    
    53   25   27 1    
    54   27   28 1    
    55   27   29 1    
    56   27  150 1    
    57   28  151 1    
    58   28  152 1    
    59   28  153 1    
    60   29   30 am   BACKBONE|DICT|INTERRES
    61   29  154 1    
    62   30   31 2    
    63   30   32 1    
    64   32   33 1    
    65   32   34 1    
    66   32  155 1    
    67   33  156 1    
    68   33  157 1    
    69   33  158 1    
    70   34   35 am   BACKBONE|DICT|INTERRES
    71   34  159 1    
    72   35   36 2    
    73   35   37 1    
    74   37   38 1    
    75   37   39 1    
    76   37  160 1    
    77   38  161 1    
    78   38  162 1    
    79   38  163 1    
    80   39   40 am   BACKBONE|DICT|INTERRES
    81   39  164 1    
    82   40   41 2    
    83   40   42 1    
    84   42   43 1    
    85   42   44 1    
    86   42  165 1    
    87   43  166 1    
    88   43  167 1    
    89   43  168 1    
    90   44   45 am   BACKBONE|DICT|INTERRES
    91   44  169 1    
    92   45   46 2    
    93   45   47 1    
    94   47   48 1    
    95   47   49 1    
    96   47  170 1    
    97   48  171 1    
    98   48  172 1    
    99   48  173 1    
   100   49   50 am   BACKBONE|DICT|INTERRES
   101   49  174 1    
   102   50   51 2    
   103   50   52 1    
   104   52   53 1    
   105   52   54 1    
   106   52  175 1    
   107   53  176 1    
   108   53  177 1    
   109   53  178 1    
   110   54   55 am   BACKBONE|DICT|INTERRES
   111   54  179 1    
   112   55   56 2    
   113   55   57 1    
   114   57   58 1    
   115   57   59 1    
   116   57  180 1    
   117   58  181 1    
   118   58  182 1    
   119   58  183 1    
   120   59   60 am   BACKBONE|DICT|INTERRES
   121   59  184 1    
   122   60   61 2    
   123   60   62 1    
   124   62   63 1    
   125   62   64 1    
   126   62  185 1    
   127   63  186 1    
   128   63  187 1    
   129   63  188 1    
   130   64   65 am   BACKBONE|DICT|INTERRES
   131   64  189 1    
   132   65   66 2    
   133   67   68 2    
   134   67   69 am   BACKBONE|DICT|INTERRES
   135   69   70 1    
   136   69  190 1    
   137   70   71 1    
   138   70   72 1    
   139   70  191 1    
   140   71  192 1    
   141   71  193 1    
   142   71  194 1    
   143   72   73 2    
   144   72   74 am   BACKBONE|DICT|INTERRES
   145   74   75 1    
   146   74  195 1    
   147   75   76 1    
   148   75   77 1    
   149   75  196 1    
   150   76  197 1    
   151   76  198 1    
   152   76  199 1    
   153   77   78 2    
   154   77   79 am   BACKBONE|DICT|INTERRES
   155   79   80 1    
   156   79  200 1    
   157   80   81 1    
   158   80   82 1    
   159   80  201 1    
   160   81  202 1    
   161   81  203 1    
   162   81  204 1    
   163   82   83 2    
   164   82   84 am   BACKBONE|DICT|INTERRES
   165   84   85 1    
   166   84  205 1    
   167   85   86 1    
   168   85   87 1    
   169   85  206 1    
   170   86  207 1    
   171   86  208 1    
   172   86  209 1    
   173   87   88 2    
   174   87   89 am   BACKBONE|DICT|INTERRES
   175   89   90 1    
   176   89  210 1    
   177   90   91 1    
   178   90   92 1    
   179   90  211 1    
   180   91  212 1    
   181   91  213 1    
   182   91  214 1    
   183   92   93 2    
   184   92   94 am   BACKBONE|DICT|INTERRES
   185   94   95 1    
   186   94  215 1    
   187   95   96 1    
   188   95   97 1    
   189   95  216 1    
   190   96  217 1    
   191   96  218 1    
   192   96  219 1    
   193   97   98 2    
   194   97   99 am   BACKBONE|DICT|INTERRES
   195   99  100 1    
   196   99  220 1    
   197  100  101 1    
   198  100  102 1    
   199  100  221 1    
   200  101  222 1    
   201  101  223 1    
   202  101  224 1    
   203  102  103 2    
   204  102  104 am   BACKBONE|DICT|INTERRES
   205  104  105 1    
   206  104  225 1    
   207  105  106 1    
   208  105  107 1    
   209  105  226 1    
   210  106  227 1    
   211  106  228 1    
   212  106  229 1    
   213  107  108 2    
   214  107  109 am   BACKBONE|DICT|INTERRES
   215  109  110 1    
   216  109  230 1    
   217  110  111 1    
   218  110  112 1    
   219  110  231 1    
   220  111  232 1    
   221  111  233 1    
   222  111  234 1    
   223  112  113 2    
   224  112  114 am   BACKBONE|DICT|INTERRES
   225  114  115 1    
   226  114  235 1    
   227  115  116 1    
   228  115  117 1    
   229  115  236 1    
   230  116  237 1    
   231  116  238 1    
   232  116  239 1    
   233  117  118 2    
   234  117  119 am   BACKBONE|DICT|INTERRES
   235  119  120 1    
   236  119  240 1    
   237  120  121 1    
   238  120  124 1    
   239  120  241 1    
   240  121  122 am   BACKBONE|DICT|INTERRES
   241  121  123 2    
   242  122  242 1    
   243  122  243 1    
   244  124  125 1    
   245  124  244 1    
   246  124  245 1    
   247  125  126 1    
   248  126  246 1    
   249  126  247 1    
@<TRIPOS>SUBSTRUCTURE
     1 UNK         1 GROUP             0       ****    0 ROOT    
