@<TRIPOS>MOLECULE
3R540
247   249    1
SMALL
USER_CHARGES


@<TRIPOS>ATOM
      1 CA          3.4086  -15.8338  -46.7175 C.3       0 UNK        -0.1800 
      2 C           2.9251  -14.4250  -47.0228 C.2       0 UNK         0.5000 
      3 O           3.3782  -13.8220  -47.9953 O.2       0 UNK        -0.5000 
      4 N           2.0221  -13.8931  -46.1877 N.am      1 UNK        -0.5000 
      5 CA          1.3537  -12.5844  -46.2928 C.3       1 UNK         0.1400 
      6 C6          0.5972  -12.3368  -47.6272 C.3       23 UNK        -0.0398 
      7 S7         -0.6555  -13.6215  -47.9570 S.3       23 UNK        -0.2404 
      8 C8         -0.0192  -14.3945  -49.4817 C.3       23 UNK        -0.0205 
      9 C9         -0.6153  -15.7757  -49.7350 C.ar      23 UNK        -0.0193 
     10 C10        -1.9970  -15.9870  -49.6652 C.ar      23 UNK        -0.1150 
     11 C11        -2.5366  -17.2556  -49.8926 C.ar      23 UNK        -0.0193 
     12 C12        -1.6874  -18.3184  -50.2067 C.ar      23 UNK        -0.1150 
     13 C13        -0.3067  -18.1228  -50.2927 C.ar      23 UNK        -0.0193 
     14 C14         0.2220  -16.8482  -50.0606 C.ar      23 UNK        -0.1150 
     15 C15         0.6011  -19.2957  -50.6416 C.3       23 UNK        -0.0205 
     16 S16         1.9436  -19.5790  -49.4366 S.3       23 UNK        -0.2404 
     17 C17         1.0866  -19.5649  -47.8245 C.3       23 UNK        -0.0398 
     18 CA          0.5983  -20.9582  -47.3584 C.3       11 UNK         0.1400 
     19 N           0.5302  -21.0494  -45.8978 N.am      11 UNK        -0.5000 
     20 C           0.2692  -22.1620  -45.1977 C.2       10 UNK         0.5000 
     21 O           0.0977  -23.2677  -45.7092 O.2       10 UNK        -0.5000 
     22 CA          0.1253  -22.0024  -43.6722 C.3       10 UNK         0.1400 
     23 CB          1.4995  -21.9345  -42.9897 C.3       10 UNK        -0.1800 
     24 N          -0.6676  -20.8270  -43.3081 N.am      10 UNK        -0.5000 
     25 C          -1.9667  -20.6765  -43.6043 C.2       9 UNK         0.5000 
     26 O          -2.6457  -21.5433  -44.1556 O.2       9 UNK        -0.5000 
     27 CA         -2.6009  -19.3116  -43.2775 C.3       9 UNK         0.1400 
     28 CB         -2.9946  -19.2263  -41.7956 C.3       9 UNK        -0.1800 
     29 N          -1.7298  -18.1865  -43.6200 N.am      9 UNK        -0.5000 
     30 C          -1.3181  -17.8943  -44.8621 C.2       8 UNK         0.5000 
     31 O          -1.6548  -18.5231  -45.8624 O.2       8 UNK        -0.5000 
     32 CA         -0.3228  -16.7318  -45.0047 C.3       8 UNK         0.1400 
     33 CB         -1.0704  -15.3945  -44.9118 C.3       8 UNK        -0.1800 
     34 N           0.7496  -16.7889  -44.0062 N.am      8 UNK        -0.5000 
     35 C           1.6179  -17.8058  -43.8816 C.2       7 UNK         0.5000 
     36 O           1.6505  -18.7690  -44.6427 O.2       7 UNK        -0.5000 
     37 CA          2.5784  -17.7743  -42.6812 C.3       7 UNK         0.1400 
     38 CB          3.8273  -16.9343  -42.9849 C.3       7 UNK        -0.1800 
     39 N           1.9216  -17.2737  -41.4769 N.am      7 UNK        -0.5000 
     40 C           0.9578  -17.9308  -40.8157 C.2       6 UNK         0.5000 
     41 O           0.5693  -19.0607  -41.1139 O.2       6 UNK        -0.5000 
     42 CA          0.2806  -17.1623  -39.6662 C.3       6 UNK         0.1400 
     43 CB          1.1019  -17.2825  -38.3740 C.3       6 UNK        -0.1800 
     44 N           0.0918  -15.7465  -39.9940 N.am      6 UNK        -0.5000 
     45 C          -0.7373  -15.3001  -40.9491 C.2       5 UNK         0.5000 
     46 O          -1.4881  -16.0356  -41.5886 O.2       5 UNK        -0.5000 
     47 CA         -0.6774  -13.7952  -41.2791 C.3       5 UNK         0.1400 
     48 CB         -1.6694  -13.0120  -40.4073 C.3       5 UNK        -0.1800 
     49 N           0.6679  -13.2388  -41.1067 N.am      5 UNK        -0.5000 
     50 C           1.7078  -13.5083  -41.9064 C.2       4 UNK         0.5000 
     51 O           1.6273  -14.1881  -42.9351 O.2       4 UNK        -0.5000 
     52 CA          3.0753  -12.9989  -41.4290 C.3       4 UNK         0.1400 
     53 CB          3.5757  -13.8837  -40.2655 C.3       4 UNK        -0.1800 
     54 N           4.0150  -13.0337  -42.5472 N.am      4 UNK        -0.5000 
     55 C           5.2798  -12.5927  -42.5355 C.2       3 UNK         0.5000 
     56 O           5.8135  -12.0499  -41.5674 O.2       3 UNK        -0.5000 
     57 CA          6.0801  -12.7758  -43.8368 C.3       3 UNK         0.1400 
     58 CB          6.3192  -14.2636  -44.1441 C.3       3 UNK        -0.1800 
     59 N           5.4131  -12.1485  -44.9741 N.am      3 UNK        -0.5000 
     60 C           5.3380  -10.8270  -45.1886 C.2       2 UNK         0.5000 
     61 O           5.8819   -9.9815  -44.4776 O.2       2 UNK        -0.5000 
     62 CA          4.5044  -10.3776  -46.4036 C.3       2 UNK         0.1400 
     63 CB          5.3902  -10.2505  -47.6521 C.3       2 UNK        -0.1800 
     64 N           3.4097  -11.3061  -46.6856 N.am      2 UNK        -0.5000 
     65 C           2.2993  -11.4196  -45.9475 C.2       1 UNK         0.5000 
     66 O           2.0294  -10.6772  -45.0029 O.2       1 UNK        -0.5000 
     67 C          -0.7443  -21.3374  -48.0151 C.2       11 UNK         0.5000 
     68 O          -0.7537  -22.1383  -48.9470 O.2       11 UNK        -0.5000 
     69 N          -1.8532  -20.7984  -47.4894 N.am      12 UNK        -0.5000 
     70 CA         -3.2225  -21.0927  -47.9125 C.3       12 UNK         0.1400 
     71 CB         -4.1990  -20.2157  -47.1145 C.3       12 UNK        -0.1800 
     72 C          -3.5872  -22.5794  -47.7634 C.2       12 UNK         0.5000 
     73 O          -4.1480  -23.1631  -48.6930 O.2       12 UNK        -0.5000 
     74 N          -3.2271  -23.1674  -46.6135 N.am      13 UNK        -0.5000 
     75 CA         -3.4098  -24.5864  -46.3117 C.3       13 UNK         0.1400 
     76 CB         -3.0970  -24.8400  -44.8293 C.3       13 UNK        -0.1800 
     77 C          -2.5656  -25.5037  -47.2150 C.2       13 UNK         0.5000 
     78 O          -3.0674  -26.5357  -47.6607 O.2       13 UNK        -0.5000 
     79 N          -1.3144  -25.1054  -47.4852 N.am      14 UNK        -0.5000 
     80 CA         -0.4000  -25.8007  -48.3920 C.3       14 UNK         0.1400 
     81 CB          1.0195  -25.2372  -48.2245 C.3       14 UNK        -0.1800 
     82 C          -0.8495  -25.7206  -49.8623 C.2       14 UNK         0.5000 
     83 O          -0.7562  -26.7177  -50.5793 O.2       14 UNK        -0.5000 
     84 N          -1.3380  -24.5438  -50.2788 N.am      15 UNK        -0.5000 
     85 CA         -1.8837  -24.2859  -51.6101 C.3       15 UNK         0.1400 
     86 CB         -2.0993  -22.7771  -51.7941 C.3       15 UNK        -0.1800 
     87 C          -3.1913  -25.0457  -51.8826 C.2       15 UNK         0.5000 
     88 O          -3.4138  -25.4708  -53.0177 O.2       15 UNK        -0.5000 
     89 N          -4.0257  -25.1879  -50.8406 N.am      16 UNK        -0.5000 
     90 CA         -5.2476  -25.9993  -50.7677 C.3       16 UNK         0.1400 
     91 CB         -4.8777  -27.4966  -50.7915 C.3       16 UNK        -0.1800 
     92 C          -6.3140  -25.6455  -51.8277 C.2       16 UNK         0.5000 
     93 O          -7.1057  -26.5080  -52.2107 O.2       16 UNK        -0.5000 
     94 N          -6.2851  -24.3930  -52.3073 N.am      17 UNK        -0.5000 
     95 CA         -7.0583  -23.8336  -53.4232 C.3       17 UNK         0.1400 
     96 CB         -8.5752  -23.9121  -53.1545 C.3       17 UNK        -0.1800 
     97 C          -6.6798  -24.4038  -54.8106 C.2       17 UNK         0.5000 
     98 O          -7.3198  -24.0434  -55.7996 O.2       17 UNK        -0.5000 
     99 N          -5.6564  -25.2668  -54.8765 N.am      18 UNK        -0.5000 
    100 CA        -5.1754  -25.9113  -56.0966 C.3       18 UNK         0.1400 
    101 CB        -4.6782  -27.3254  -55.7572 C.3       18 UNK        -0.1800 
    102 C         -4.0623  -25.0884  -56.7634 C.2       18 UNK         0.5000 
    103 O         -4.0516  -24.9715  -57.9895 O.2       18 UNK        -0.5000 
    104 N         -3.1569  -24.5293  -55.9481 N.am      19 UNK        -0.5000 
    105 CA        -2.1170  -23.5952  -56.3769 C.3       19 UNK         0.1400 
    106 CB        -0.8679  -23.7834  -55.4950 C.3       19 UNK        -0.1800 
    107 C         -2.6978  -22.1699  -56.3438 C.2       19 UNK         0.5000 
    108 O         -3.4215  -21.7904  -57.2659 O.2       19 UNK        -0.5000 
    109 N         -2.4137  -21.4160  -55.2729 N.am      20 UNK        -0.5000 
    110 CA        -3.1037  -20.1705  -54.9407 C.3       20 UNK         0.1400 
    111 CB        -2.3652  -19.4631  -53.7921 C.3       20 UNK        -0.1800 
    112 C         -4.5566  -20.4833  -54.5438 C.2       20 UNK         0.5000 
    113 O         -4.7696  -21.3094  -53.6530 O.2       20 UNK        -0.5000 
    114 N         -5.5202  -19.8304  -55.2067 N.am      21 UNK        -0.5000 
    115 CA        -6.9620  -20.0830  -55.0811 C.3       21 UNK         0.1400 
    116 CB        -7.7115  -19.1982  -56.0886 C.3       21 UNK        -0.1800 
    117 C         -7.5326  -19.8841  -53.6626 C.2       21 UNK         0.5000 
    118 O         -8.5573  -20.4800  -53.3314 O.2       21 UNK        -0.5000 
    119 N         -6.8503  -19.0688  -52.8535 N.am      22 UNK        -0.5000 
    120 CA        -7.1103  -18.8806  -51.4222 C.3       22 UNK         0.1400 
    121 C         -6.6192  -20.0441  -50.5087 C.2       22 UNK         0.5000 
    122 N         -5.8024  -20.9829  -50.9763 N.am      22 UNK        -0.7600 
    123 O         -7.0033  -20.0997  -49.3449 O.2       22 UNK        -0.5000 
    124 C124       -6.5977  -17.4998  -50.9353 C.3       23 UNK        -0.0398 
    125 S125       -4.8570  -17.1500  -51.3760 S.3       23 UNK        -0.2404 
    126 C126       -4.0351  -17.4793  -49.7916 C.3       23 UNK        -0.0205 
    127 H127        4.4977  -15.8731  -46.7363 H         1 UNK         0.0600 
    128 H128        3.0755  -16.1664  -45.7373 H         1 UNK         0.0600 
    129 H129        3.0259  -16.5311  -47.4632 H         1 UNK         0.0600 
    130 H130        1.7383  -14.4294  -45.3788 H         1 UNK         0.3000 
    131 H131        0.6016  -12.5854  -45.5029 H         1 UNK         0.0600 
    132 H132        0.0761  -11.3787  -47.5893 H         1 UNK         0.0800 
    133 H133        1.2879  -12.2655  -48.4683 H         1 UNK         0.0800 
    134 H134       -0.2411  -13.7478  -50.3313 H         1 UNK         0.0800 
    135 H135        1.0672  -14.4649  -49.4190 H         1 UNK         0.0800 
    136 H136       -2.6550  -15.1631  -49.4274 H         1 UNK         0.1150 
    137 H137       -2.1045  -19.2988  -50.3879 H         1 UNK         0.1150 
    138 H138        1.2903  -16.6969  -50.1274 H         1 UNK         0.1150 
    139 H139        0.0229  -20.2152  -50.7399 H         1 UNK         0.0800 
    140 H140        1.0443  -19.1137  -51.6213 H         1 UNK         0.0800 
    141 H141        0.2866  -18.8241  -47.8019 H         1 UNK         0.0800 
    142 H142        1.8343  -19.1922  -47.1256 H         1 UNK         0.0800 
    143 H143        1.3354  -21.7003  -47.6725 H         1 UNK         0.0600 
    144 H144        0.7112  -20.1887  -45.3868 H         1 UNK         0.3000 
    145 H145       -0.3951  -22.8850  -43.2945 H         1 UNK         0.0600 
    146 H146        1.3983  -21.8699  -41.9062 H         1 UNK         0.0600 
    147 H147        2.0874  -22.8262  -43.2101 H         1 UNK         0.0600 
    148 H148        2.0760  -21.0718  -43.3227 H         1 UNK         0.0600 
    149 H149       -0.1878  -20.0813  -42.8166 H         1 UNK         0.3000 
    150 H150       -3.5100  -19.2182  -43.8748 H         1 UNK         0.0600 
    151 H151       -3.6745  -20.0353  -41.5258 H         1 UNK         0.0600 
    152 H152       -3.5024  -18.2868  -41.5767 H         1 UNK         0.0600 
    153 H153       -2.1257  -19.2955  -41.1412 H         1 UNK         0.0600 
    154 H154       -1.4448  -17.5792  -42.8581 H         1 UNK         0.3000 
    155 H155        0.1406  -16.7970  -45.9917 H         1 UNK         0.0600 
    156 H156       -0.3875  -14.5497  -44.9150 H         1 UNK         0.0600 
    157 H157       -1.6800  -15.3220  -44.0135 H         1 UNK         0.0600 
    158 H158       -1.7463  -15.2773  -45.7592 H         1 UNK         0.0600 
    159 H159        0.8207  -16.0076  -43.3651 H         1 UNK         0.3000 
    160 H160        2.9029  -18.7991  -42.4881 H         1 UNK         0.0600 
    161 H161        3.5770  -15.8962  -43.1954 H         1 UNK         0.0600 
    162 H162        4.3574  -17.3265  -43.8537 H         1 UNK         0.0600 
    163 H163        4.5255  -16.9471  -42.1480 H         1 UNK         0.0600 
    164 H164        2.1616  -16.3416  -41.1799 H         1 UNK         0.3000 
    165 H165       -0.7003  -17.6109  -39.4943 H         1 UNK         0.0600 
    166 H166        2.0892  -16.8305  -38.4776 H         1 UNK         0.0600 
    167 H167        0.5961  -16.7965  -37.5394 H         1 UNK         0.0600 
    168 H168        1.2464  -18.3285  -38.1003 H         1 UNK         0.0600 
    169 H169        0.6589  -15.0799  -39.4927 H         1 UNK         0.3000 
    170 H170       -0.9693  -13.6695  -42.3236 H         1 UNK         0.0600 
    171 H171       -2.6841  -13.3921  -40.5344 H         1 UNK         0.0600 
    172 H172       -1.4218  -13.0845  -39.3476 H         1 UNK         0.0600 
    173 H173       -1.6832  -11.9561  -40.6780 H         1 UNK         0.0600 
    174 H174        0.8140  -12.6644  -40.2887 H         1 UNK         0.3000 
    175 H175        2.9651  -11.9659  -41.0937 H         1 UNK         0.0600 
    176 H176        4.4902  -13.4898  -39.8235 H         1 UNK         0.0600 
    177 H177        2.8432  -13.9390  -39.4596 H         1 UNK         0.0600 
    178 H178        3.7812  -14.9025  -40.5947 H         1 UNK         0.0600 
    179 H179        3.6285  -13.4392  -43.3887 H         1 UNK         0.3000 
    180 H180        7.0541  -12.3008  -43.7000 H         1 UNK         0.0600 
    181 H181        5.3940  -14.7833  -44.3916 H         1 UNK         0.0600 
    182 H182        6.7657  -14.7739  -43.2896 H         1 UNK         0.0600 
    183 H183        7.0015  -14.3840  -44.9858 H         1 UNK         0.0600 
    184 H184        4.9421  -12.7599  -45.6227 H         1 UNK         0.3000 
    185 H185        4.0833   -9.3953  -46.1787 H         1 UNK         0.0600 
    186 H186        4.8197   -9.8783  -48.5032 H         1 UNK         0.0600 
    187 H187        6.2100   -9.5518  -47.4798 H         1 UNK         0.0600 
    188 H188        5.8281  -11.2087  -47.9350 H         1 UNK         0.0600 
    189 H189        3.5607  -11.9981  -47.4150 H         1 UNK         0.3000 
    190 H190       -1.7531  -20.1000  -46.7549 H         1 UNK         0.3000 
    191 H191       -3.3088  -20.8329  -48.9687 H         1 UNK         0.0600 
    192 H192       -3.9826  -19.1561  -47.2460 H         1 UNK         0.0600 
    193 H193       -5.2267  -20.3838  -47.4347 H         1 UNK         0.0600 
    194 H194       -4.1546  -20.4292  -46.0472 H         1 UNK         0.0600 
    195 H195       -2.8030  -22.5990  -45.8870 H         1 UNK         0.3000 
    196 H196       -4.4605  -24.8298  -46.4827 H         1 UNK         0.0600 
    197 H197       -3.2452  -25.8895  -44.5723 H         1 UNK         0.0600 
    198 H198       -3.7485  -24.2511  -44.1834 H         1 UNK         0.0600 
    199 H199       -2.0658  -24.5835  -44.5851 H         1 UNK         0.0600 
    200 H200       -0.9553  -24.2720  -47.0285 H         1 UNK         0.3000 
    201 H201       -0.3805  -26.8548  -48.1073 H         1 UNK         0.0600 
    202 H202        1.3738  -25.3612  -47.2011 H         1 UNK         0.0600 
    203 H203        1.0629  -24.1749  -48.4661 H         1 UNK         0.0600 
    204 H204        1.7244  -25.7525  -48.8780 H         1 UNK         0.0600 
    205 H205       -1.2992  -23.7474  -49.6458 H         1 UNK         0.3000 
    206 H206       -1.1481  -24.6252  -52.3410 H         1 UNK         0.0600 
    207 H207       -1.1532  -22.2370  -51.7664 H         1 UNK         0.0600 
    208 H208       -2.5714  -22.5669  -52.7520 H         1 UNK         0.0600 
    209 H209       -2.7447  -22.3627  -51.0191 H         1 UNK         0.0600 
    210 H210       -3.7833  -24.7051  -49.9810 H         1 UNK         0.3000 
    211 H211       -5.6976  -25.7820  -49.7980 H         1 UNK         0.0600 
    212 H212       -4.4749  -27.7959  -51.7599 H         1 UNK         0.0600 
    213 H213       -5.7477  -28.1221  -50.5890 H         1 UNK         0.0600 
    214 H214       -4.1303  -27.7290  -50.0327 H         1 UNK         0.0600 
    215 H215       -5.5767  -23.7789  -51.9320 H         1 UNK         0.3000 
    216 H216       -6.8021  -22.7777  -53.4540 H         1 UNK         0.0600 
    217 H217       -8.8228  -23.5002  -52.1761 H         1 UNK         0.0600 
    218 H218       -8.9480  -24.9353  -53.1970 H         1 UNK         0.0600 
    219 H219       -9.1302  -23.3347  -53.8947 H         1 UNK         0.0600 
    220 H220       -5.1347  -25.4681  -54.0301 H         1 UNK         0.3000 
    221 H221       -5.9979  -26.0078  -56.8086 H         1 UNK         0.0600 
    222 H222       -3.8494  -27.3054  -55.0485 H         1 UNK         0.0600 
    223 H223       -5.4754  -27.9274  -55.3207 H         1 UNK         0.0600 
    224 H224       -4.3323  -27.8425  -56.6531 H         1 UNK         0.0600 
    225 H225       -3.2452  -24.6937  -54.9518 H         1 UNK         0.3000 
    226 H226       -1.8269  -23.8065  -57.4083 H         1 UNK         0.0600 
    227 H227       -0.4598  -24.7876  -55.6119 H         1 UNK         0.0600 
    228 H228       -0.0809  -23.0821  -55.7753 H         1 UNK         0.0600 
    229 H229       -1.0820  -23.6396  -54.4381 H         1 UNK         0.0600 
    230 H230       -1.8174  -21.8007  -54.5572 H         1 UNK         0.3000 
    231 H231       -3.0927  -19.5181  -55.8163 H         1 UNK         0.0600 
    232 H232       -2.8382  -18.5094  -53.5542 H         1 UNK         0.0600 
    233 H233       -1.3288  -19.2533  -54.0564 H         1 UNK         0.0600 
    234 H234       -2.3637  -20.0587  -52.8789 H         1 UNK         0.0600 
    235 H235       -5.2508  -19.1675  -55.9193 H         1 UNK         0.3000 
    236 H236       -7.1341  -21.1263  -55.3529 H         1 UNK         0.0600 
    237 H237       -8.7864  -19.3797  -56.0454 H         1 UNK         0.0600 
    238 H238       -7.5493  -18.1380  -55.8905 H         1 UNK         0.0600 
    239 H239       -7.3910  -19.4036  -57.1102 H         1 UNK         0.0600 
    240 H240       -6.0151  -18.6252  -53.2062 H         1 UNK         0.3000 
    241 H241       -8.1945  -18.8667  -51.2950 H         1 UNK         0.0600 
    242 H242       -5.4750  -20.9729  -51.9382 H         1 UNK         0.3800 
    243 H243       -5.5087  -21.7154  -50.3504 H         1 UNK         0.3800 
    244 H244       -7.2048  -16.7186  -51.3943 H         1 UNK         0.0800 
    245 H245       -6.7462  -17.3811  -49.8604 H         1 UNK         0.0800 
    246 H246       -4.4563  -16.8388  -49.0152 H         1 UNK         0.0800 
    247 H247       -4.2397  -18.5075  -49.4945 H         1 UNK         0.0800 
@<TRIPOS>BOND
     1    1    2 1    
     2    1  127 1    
     3    1  128 1    
     4    1  129 1    
     5    2    3 2    
     6    2    4 am   BACKBONE|DICT|INTERRES
     7    4    5 1    
     8    4  130 1    
     9    5    6 1    
    10    5   65 1    
    11    5  131 1    
    12    6    7 1    
    13    6  132 1    
    14    6  133 1    
    15    7    8 1    
    16    8    9 1    
    17    8  134 1    
    18    8  135 1    
    19    9   10 ar   
    20    9   14 ar   
    21   10   11 ar   
    22   10  136 1    
    23   11   12 ar   
    24   11  126 1    
    25   12   13 ar   
    26   12  137 1    
    27   13   14 ar   
    28   13   15 1    
    29   14  138 1    
    30   15   16 1    
    31   15  139 1    
    32   15  140 1    
    33   16   17 1    
    34   17   18 1    
    35   17  141 1    
    36   17  142 1    
    37   18   19 1    
    38   18   67 1    
    39   18  143 1    
    40   19   20 am   BACKBONE|DICT|INTERRES
    41   19  144 1    
    42   20   21 2    
    43   20   22 1    
    44   22   23 1    
    45   22   24 1    
    46   22  145 1    
    47   23  146 1    
    48   23  147 1    
    49   23  148 1    
    50   24   25 am   BACKBONE|DICT|INTERRES
    51   24  149 1    
    52   25   26 2    
    53   25   27 1    
    54   27   28 1    
    55   27   29 1    
    56   27  150 1    
    57   28  151 1    
    58   28  152 1    
    59   28  153 1    
    60   29   30 am   BACKBONE|DICT|INTERRES
    61   29  154 1    
    62   30   31 2    
    63   30   32 1    
    64   32   33 1    
    65   32   34 1    
    66   32  155 1    
    67   33  156 1    
    68   33  157 1    
    69   33  158 1    
    70   34   35 am   BACKBONE|DICT|INTERRES
    71   34  159 1    
    72   35   36 2    
    73   35   37 1    
    74   37   38 1    
    75   37   39 1    
    76   37  160 1    
    77   38  161 1    
    78   38  162 1    
    79   38  163 1    
    80   39   40 am   BACKBONE|DICT|INTERRES
    81   39  164 1    
    82   40   41 2    
    83   40   42 1    
    84   42   43 1    
    85   42   44 1    
    86   42  165 1    
    87   43  166 1    
    88   43  167 1    
    89   43  168 1    
    90   44   45 am   BACKBONE|DICT|INTERRES
    91   44  169 1    
    92   45   46 2    
    93   45   47 1    
    94   47   48 1    
    95   47   49 1    
    96   47  170 1    
    97   48  171 1    
    98   48  172 1    
    99   48  173 1    
   100   49   50 am   BACKBONE|DICT|INTERRES
   101   49  174 1    
   102   50   51 2    
   103   50   52 1    
   104   52   53 1    
   105   52   54 1    
   106   52  175 1    
   107   53  176 1    
   108   53  177 1    
   109   53  178 1    
   110   54   55 am   BACKBONE|DICT|INTERRES
   111   54  179 1    
   112   55   56 2    
   113   55   57 1    
   114   57   58 1    
   115   57   59 1    
   116   57  180 1    
   117   58  181 1    
   118   58  182 1    
   119   58  183 1    
   120   59   60 am   BACKBONE|DICT|INTERRES
   121   59  184 1    
   122   60   61 2    
   123   60   62 1    
   124   62   63 1    
   125   62   64 1    
   126   62  185 1    
   127   63  186 1    
   128   63  187 1    
   129   63  188 1    
   130   64   65 am   BACKBONE|DICT|INTERRES
   131   64  189 1    
   132   65   66 2    
   133   67   68 2    
   134   67   69 am   BACKBONE|DICT|INTERRES
   135   69   70 1    
   136   69  190 1    
   137   70   71 1    
   138   70   72 1    
   139   70  191 1    
   140   71  192 1    
   141   71  193 1    
   142   71  194 1    
   143   72   73 2    
   144   72   74 am   BACKBONE|DICT|INTERRES
   145   74   75 1    
   146   74  195 1    
   147   75   76 1    
   148   75   77 1    
   149   75  196 1    
   150   76  197 1    
   151   76  198 1    
   152   76  199 1    
   153   77   78 2    
   154   77   79 am   BACKBONE|DICT|INTERRES
   155   79   80 1    
   156   79  200 1    
   157   80   81 1    
   158   80   82 1    
   159   80  201 1    
   160   81  202 1    
   161   81  203 1    
   162   81  204 1    
   163   82   83 2    
   164   82   84 am   BACKBONE|DICT|INTERRES
   165   84   85 1    
   166   84  205 1    
   167   85   86 1    
   168   85   87 1    
   169   85  206 1    
   170   86  207 1    
   171   86  208 1    
   172   86  209 1    
   173   87   88 2    
   174   87   89 am   BACKBONE|DICT|INTERRES
   175   89   90 1    
   176   89  210 1    
   177   90   91 1    
   178   90   92 1    
   179   90  211 1    
   180   91  212 1    
   181   91  213 1    
   182   91  214 1    
   183   92   93 2    
   184   92   94 am   BACKBONE|DICT|INTERRES
   185   94   95 1    
   186   94  215 1    
   187   95   96 1    
   188   95   97 1    
   189   95  216 1    
   190   96  217 1    
   191   96  218 1    
   192   96  219 1    
   193   97   98 2    
   194   97   99 am   BACKBONE|DICT|INTERRES
   195   99  100 1    
   196   99  220 1    
   197  100  101 1    
   198  100  102 1    
   199  100  221 1    
   200  101  222 1    
   201  101  223 1    
   202  101  224 1    
   203  102  103 2    
   204  102  104 am   BACKBONE|DICT|INTERRES
   205  104  105 1    
   206  104  225 1    
   207  105  106 1    
   208  105  107 1    
   209  105  226 1    
   210  106  227 1    
   211  106  228 1    
   212  106  229 1    
   213  107  108 2    
   214  107  109 am   BACKBONE|DICT|INTERRES
   215  109  110 1    
   216  109  230 1    
   217  110  111 1    
   218  110  112 1    
   219  110  231 1    
   220  111  232 1    
   221  111  233 1    
   222  111  234 1    
   223  112  113 2    
   224  112  114 am   BACKBONE|DICT|INTERRES
   225  114  115 1    
   226  114  235 1    
   227  115  116 1    
   228  115  117 1    
   229  115  236 1    
   230  116  237 1    
   231  116  238 1    
   232  116  239 1    
   233  117  118 2    
   234  117  119 am   BACKBONE|DICT|INTERRES
   235  119  120 1    
   236  119  240 1    
   237  120  121 1    
   238  120  124 1    
   239  120  241 1    
   240  121  122 am   BACKBONE|DICT|INTERRES
   241  121  123 2    
   242  122  242 1    
   243  122  243 1    
   244  124  125 1    
   245  124  244 1    
   246  124  245 1    
   247  125  126 1    
   248  126  246 1    
   249  126  247 1    
@<TRIPOS>SUBSTRUCTURE
     1 UNK         1 GROUP             0       ****    0 ROOT    
