@<TRIPOS>MOLECULE
3R540
247   249    1
SMALL
USER_CHARGES


@<TRIPOS>ATOM
      1 CA          2.1260  -14.3250  -52.4510 C.3       0 UNK        -0.1800 
      2 C           1.5875  -14.7743  -51.1003 C.2       0 UNK         0.5000 
      3 O           2.3220  -15.3794  -50.3205 O.2       0 UNK        -0.5000 
      4 N           0.3094  -14.4862  -50.8289 N.am      1 UNK        -0.5000 
      5 CA         -0.4006  -14.8425  -49.5972 C.3       1 UNK         0.1400 
      6 C6         -1.9406  -14.8475  -49.7928 C.3       23 UNK        -0.0398 
      7 S7         -2.4752  -15.9199  -51.1688 S.3       23 UNK        -0.2404 
      8 C8         -2.6669  -17.5197  -50.3303 C.3       23 UNK        -0.0205 
      9 C9         -4.0670  -17.7204  -49.7758 C.ar      23 UNK        -0.0193 
     10 C10        -5.0715  -18.2301  -50.6017 C.ar      23 UNK        -0.1150 
     11 C11        -6.3561  -18.4610  -50.1041 C.ar      23 UNK        -0.0193 
     12 C12        -6.6303  -18.1765  -48.7637 C.ar      23 UNK        -0.1150 
     13 C13        -5.6397  -17.6547  -47.9262 C.ar      23 UNK        -0.0193 
     14 C14        -4.3585  -17.4248  -48.4413 C.ar      23 UNK        -0.1150 
     15 C15        -5.9871  -17.3083  -46.4822 C.3       23 UNK        -0.0205 
     16 S16        -4.7582  -17.8762  -45.2638 S.3       23 UNK        -0.2404 
     17 C17        -4.7395  -19.6862  -45.5263 C.3       23 UNK        -0.0398 
     18 CA         -3.4290  -20.2104  -46.1785 C.3       11 UNK         0.1400 
     19 N          -2.2412  -19.5306  -45.6520 N.am      11 UNK        -0.5000 
     20 C          -0.9644  -19.7288  -46.0002 C.2       10 UNK         0.5000 
     21 O          -0.6034  -20.6106  -46.7800 O.2       10 UNK        -0.5000 
     22 CA          0.0689  -18.7952  -45.3345 C.3       10 UNK         0.1400 
     23 CB          1.3424  -18.5855  -46.1763 C.3       10 UNK        -0.1800 
     24 N          -0.4839  -17.5071  -44.8997 N.am      10 UNK        -0.5000 
     25 C          -1.0213  -16.5465  -45.6681 C.2       9 UNK         0.5000 
     26 O          -1.1618  -16.6458  -46.8869 O.2       9 UNK        -0.5000 
     27 CA         -1.4989  -15.2710  -44.9476 C.3       9 UNK         0.1400 
     28 CB         -2.6812  -14.5883  -45.6587 C.3       9 UNK        -0.1800 
     29 N          -1.8766  -15.5558  -43.5624 N.am      9 UNK        -0.5000 
     30 C          -1.3469  -14.9641  -42.4860 C.2       8 UNK         0.5000 
     31 O          -0.5169  -14.0556  -42.5403 O.2       8 UNK        -0.5000 
     32 CA         -1.8229  -15.4598  -41.1041 C.3       8 UNK         0.1400 
     33 CB         -2.9000  -14.5162  -40.5470 C.3       8 UNK        -0.1800 
     34 N          -2.3290  -16.8391  -41.0427 N.am      8 UNK        -0.5000 
     35 C          -1.6456  -17.9389  -41.3822 C.2       7 UNK         0.5000 
     36 O          -0.5657  -17.9220  -41.9766 O.2       7 UNK        -0.5000 
     37 CA         -2.2623  -19.2903  -40.9973 C.3       7 UNK         0.1400 
     38 CB         -3.2621  -19.7744  -42.0573 C.3       7 UNK        -0.1800 
     39 N          -1.1571  -20.2303  -40.8842 N.am      7 UNK        -0.5000 
     40 C          -1.1013  -21.3484  -40.1584 C.2       6 UNK         0.5000 
     41 O          -2.0661  -21.8031  -39.5429 O.2       6 UNK        -0.5000 
     42 CA          0.2709  -22.0543  -40.0490 C.3       6 UNK         0.1400 
     43 CB          0.2366  -23.4992  -40.5889 C.3       6 UNK        -0.1800 
     44 N           1.4073  -21.3033  -40.6077 N.am      6 UNK        -0.5000 
     45 C           1.6765  -21.0210  -41.8903 C.2       5 UNK         0.5000 
     46 O           0.9505  -21.3391  -42.8330 O.2       5 UNK        -0.5000 
     47 CA          2.9350  -20.1666  -42.1317 C.3       5 UNK         0.1400 
     48 CB          3.4735  -20.2938  -43.5657 C.3       5 UNK        -0.1800 
     49 N           2.6534  -18.7604  -41.8407 N.am      5 UNK        -0.5000 
     50 C           2.6320  -18.2195  -40.6167 C.2       4 UNK         0.5000 
     51 O           2.8947  -18.8640  -39.5986 O.2       4 UNK        -0.5000 
     52 CA          2.2657  -16.7212  -40.5117 C.3       4 UNK         0.1400 
     53 CB          2.4524  -16.1647  -39.0886 C.3       4 UNK        -0.1800 
     54 N           3.0103  -15.8728  -41.4452 N.am      4 UNK        -0.5000 
     55 C           2.7329  -15.7118  -42.7447 C.2       3 UNK         0.5000 
     56 O           1.8622  -16.3519  -43.3335 O.2       3 UNK        -0.5000 
     57 CA          3.5899  -14.6693  -43.4865 C.3       3 UNK         0.1400 
     58 CB          4.9291  -15.2722  -43.9564 C.3       3 UNK        -0.1800 
     59 N           2.8658  -13.9972  -44.5742 N.am      3 UNK        -0.5000 
     60 C           2.5409  -14.4652  -45.7878 C.2       2 UNK         0.5000 
     61 O           2.8818  -15.5602  -46.2402 O.2       2 UNK        -0.5000 
     62 CA          1.7182  -13.5093  -46.6652 C.3       2 UNK         0.1400 
     63 CB          2.6000  -12.3833  -47.2371 C.3       2 UNK        -0.1800 
     64 N           1.1141  -14.2608  -47.7588 N.am      2 UNK        -0.5000 
     65 C           0.0321  -13.9003  -48.4543 C.2       1 UNK         0.5000 
     66 O          -0.5901  -12.8562  -48.2496 O.2       1 UNK        -0.5000 
     67 C          -3.3367  -21.7420  -46.0235 C.2       11 UNK         0.5000 
     68 O          -3.5921  -22.4826  -46.9738 O.2       11 UNK        -0.5000 
     69 N          -2.9326  -22.1718  -44.8205 N.am      12 UNK        -0.5000 
     70 CA         -2.7720  -23.5699  -44.4298 C.3       12 UNK         0.1400 
     71 CB         -2.7180  -23.6449  -42.8980 C.3       12 UNK        -0.1800 
     72 C          -1.5396  -24.2455  -45.0583 C.2       12 UNK         0.5000 
     73 O          -1.5336  -25.4689  -45.1977 O.2       12 UNK        -0.5000 
     74 N          -0.5397  -23.4563  -45.4757 N.am      13 UNK        -0.5000 
     75 CA          0.6545  -23.9119  -46.1902 C.3       13 UNK         0.1400 
     76 CB          1.8191  -22.9497  -45.8961 C.3       13 UNK        -0.1800 
     77 C           0.3701  -24.0699  -47.6986 C.2       13 UNK         0.5000 
     78 O           1.0860  -23.5093  -48.5306 O.2       13 UNK        -0.5000 
     79 N          -0.6955  -24.8208  -48.0148 N.am      14 UNK        -0.5000 
     80 CA         -1.2086  -25.1365  -49.3506 C.3       14 UNK         0.1400 
     81 CB         -0.2601  -26.1260  -50.0596 C.3       14 UNK        -0.1800 
     82 C          -1.4977  -23.8781  -50.1943 C.2       14 UNK         0.5000 
     83 O          -1.0775  -23.8103  -51.3498 O.2       14 UNK        -0.5000 
     84 N          -2.1749  -22.8900  -49.5869 N.am      15 UNK        -0.5000 
     85 CA         -2.4743  -21.5687  -50.1510 C.3       15 UNK         0.1400 
     86 CB         -3.5042  -21.6849  -51.2932 C.3       15 UNK        -0.1800 
     87 C          -1.1924  -20.8223  -50.5707 C.2       15 UNK         0.5000 
     88 O          -1.0653  -20.4094  -51.7246 O.2       15 UNK        -0.5000 
     89 N          -0.2520  -20.7043  -49.6227 N.am      16 UNK        -0.5000 
     90 CA          1.0787  -20.1072  -49.7607 C.3       16 UNK         0.1400 
     91 CB          0.9591  -18.5785  -49.8993 C.3       16 UNK        -0.1800 
     92 C           1.9093  -20.7588  -50.8858 C.2       16 UNK         0.5000 
     93 O           2.4966  -20.0571  -51.7108 O.2       16 UNK        -0.5000 
     94 N           1.9129  -22.1003  -50.9002 N.am      17 UNK        -0.5000 
     95 CA          2.4951  -22.9745  -51.9227 C.3       17 UNK         0.1400 
     96 CB          4.0358  -22.8965  -51.8973 C.3       17 UNK        -0.1800 
     97 C           1.8899  -22.7206  -53.3210 C.2       17 UNK         0.5000 
     98 O           2.6227  -22.5289  -54.2936 O.2       17 UNK        -0.5000 
     99 N           0.5509  -22.7256  -53.3764 N.am      18 UNK        -0.5000 
    100 CA        -0.3045  -22.5000  -54.5423 C.3       18 UNK         0.1400 
    101 CB        -0.1749  -23.6661  -55.5441 C.3       18 UNK        -0.1800 
    102 C         -0.1008  -21.1140  -55.1884 C.2       18 UNK         0.5000 
    103 O          0.0481  -21.0130  -56.4083 O.2       18 UNK        -0.5000 
    104 N         -0.1219  -20.0605  -54.3598 N.am      19 UNK        -0.5000 
    105 CA        -0.1115  -18.6623  -54.8021 C.3       19 UNK         0.1400 
    106 CB         0.2140  -17.7478  -53.6129 C.3       19 UNK        -0.1800 
    107 C         -1.4484  -18.2448  -55.4456 C.2       19 UNK         0.5000 
    108 O         -1.4654  -17.3504  -56.2924 O.2       19 UNK        -0.5000 
    109 N         -2.5335  -18.9187  -55.0514 N.am      20 UNK        -0.5000 
    110 CA        -3.8629  -18.8304  -55.6362 C.3       20 UNK         0.1400 
    111 CB        -4.6835  -17.7549  -54.9052 C.3       20 UNK        -0.1800 
    112 C         -4.5207  -20.2126  -55.5207 C.2       20 UNK         0.5000 
    113 O         -4.1264  -21.0097  -54.6652 O.2       20 UNK        -0.5000 
    114 N         -5.5119  -20.4708  -56.3812 N.am      21 UNK        -0.5000 
    115 CA        -6.2767  -21.7215  -56.4030 C.3       21 UNK         0.1400 
    116 CB        -6.8490  -21.9243  -57.8152 C.3       21 UNK        -0.1800 
    117 C         -7.4078  -21.7597  -55.3553 C.2       21 UNK         0.5000 
    118 O         -7.9045  -22.8441  -55.0486 O.2       21 UNK        -0.5000 
    119 N         -7.8056  -20.5832  -54.8496 N.am      22 UNK        -0.5000 
    120 CA        -8.8938  -20.3636  -53.8769 C.3       22 UNK         0.1400 
    121 C        -10.3286  -20.6376  -54.4278 C.2       22 UNK         0.5000 
    122 N        -10.5293  -20.7387  -55.7363 N.am      22 UNK        -0.7600 
    123 O        -11.2862  -20.7267  -53.6639 O.2       22 UNK        -0.5000 
    124 C124       -8.6514  -21.0463  -52.4988 C.3       23 UNK        -0.0398 
    125 S125       -7.0561  -20.6095  -51.7267 S.3       23 UNK        -0.2404 
    126 C126       -7.4565  -18.9810  -51.0187 C.3       23 UNK        -0.0205 
    127 H127        2.4795  -15.1866  -53.0175 H         1 UNK         0.0600 
    128 H128        2.9620  -13.6395  -52.3127 H         1 UNK         0.0600 
    129 H129        1.3639  -13.8186  -53.0441 H         1 UNK         0.0600 
    130 H130       -0.2385  -13.9798  -51.5091 H         1 UNK         0.3000 
    131 H131       -0.1085  -15.8557  -49.3173 H         1 UNK         0.0600 
    132 H132       -2.3062  -13.8411  -50.0033 H         1 UNK         0.0800 
    133 H133       -2.4423  -15.1666  -48.8791 H         1 UNK         0.0800 
    134 H134       -1.9224  -17.6310  -49.5413 H         1 UNK         0.0800 
    135 H135       -2.4593  -18.2978  -51.0629 H         1 UNK         0.0800 
    136 H136       -4.8518  -18.4546  -51.6347 H         1 UNK         0.1150 
    137 H137       -7.6251  -18.3443  -48.3754 H         1 UNK         0.1150 
    138 H138       -3.5868  -17.0234  -47.8006 H         1 UNK         0.1150 
    139 H139       -6.0812  -16.2249  -46.4008 H         1 UNK         0.0800 
    140 H140       -6.9588  -17.7221  -46.2078 H         1 UNK         0.0800 
    141 H141       -5.6004  -19.9793  -46.1296 H         1 UNK         0.0800 
    142 H142       -4.8993  -20.1391  -44.5463 H         1 UNK         0.0800 
    143 H143       -3.4688  -19.9856  -47.2454 H         1 UNK         0.0600 
    144 H144       -2.4335  -18.7496  -45.0429 H         1 UNK         0.3000 
    145 H145        0.3675  -19.3071  -44.4204 H         1 UNK         0.0600 
    146 H146        2.1093  -18.0797  -45.5903 H         1 UNK         0.0600 
    147 H147        1.7669  -19.5308  -46.5127 H         1 UNK         0.0600 
    148 H148        1.1564  -17.9724  -47.0546 H         1 UNK         0.0600 
    149 H149       -0.3735  -17.3159  -43.9073 H         1 UNK         0.3000 
    150 H150       -0.6518  -14.5846  -44.9753 H         1 UNK         0.0600 
    151 H151       -2.4105  -14.2791  -46.6671 H         1 UNK         0.0600 
    152 H152       -2.9954  -13.6919  -45.1242 H         1 UNK         0.0600 
    153 H153       -3.5432  -15.2491  -45.7382 H         1 UNK         0.0600 
    154 H154       -2.5555  -16.2895  -43.4208 H         1 UNK         0.3000 
    155 H155       -0.9577  -15.4088  -40.4402 H         1 UNK         0.0600 
    156 H156       -2.5532  -13.4819  -40.5440 H         1 UNK         0.0600 
    157 H157       -3.1574  -14.7719  -39.5189 H         1 UNK         0.0600 
    158 H158       -3.8129  -14.5543  -41.1427 H         1 UNK         0.0600 
    159 H159       -3.2240  -16.9533  -40.5888 H         1 UNK         0.3000 
    160 H160       -2.7586  -19.1923  -40.0298 H         1 UNK         0.0600 
    161 H161       -3.7028  -20.7315  -41.7779 H         1 UNK         0.0600 
    162 H162       -2.7768  -19.8971  -43.0229 H         1 UNK         0.0600 
    163 H163       -4.0796  -19.0635  -42.1831 H         1 UNK         0.0600 
    164 H164       -0.3172  -19.9194  -41.3579 H         1 UNK         0.3000 
    165 H165        0.4686  -22.1208  -38.9782 H         1 UNK         0.0600 
    166 H166        0.1370  -23.5359  -41.6728 H         1 UNK         0.0600 
    167 H167        1.1492  -24.0336  -40.3254 H         1 UNK         0.0600 
    168 H168       -0.5981  -24.0590  -40.1654 H         1 UNK         0.0600 
    169 H169        2.0275  -20.8953  -39.9175 H         1 UNK         0.3000 
    170 H170        3.7194  -20.5215  -41.4597 H         1 UNK         0.0600 
    171 H171        2.7298  -20.0057  -44.3044 H         1 UNK         0.0600 
    172 H172        4.3545  -19.6696  -43.7151 H         1 UNK         0.0600 
    173 H173        3.7624  -21.3231  -43.7805 H         1 UNK         0.0600 
    174 H174        2.3651  -18.1708  -42.6156 H         1 UNK         0.3000 
    175 H175        1.2059  -16.6339  -40.7467 H         1 UNK         0.0600 
    176 H176        3.4933  -16.2201  -38.7679 H         1 UNK         0.0600 
    177 H177        2.1365  -15.1230  -39.0281 H         1 UNK         0.0600 
    178 H178        1.8544  -16.7228  -38.3669 H         1 UNK         0.0600 
    179 H179        3.7746  -15.3482  -41.0451 H         1 UNK         0.3000 
    180 H180        3.8221  -13.8771  -42.7730 H         1 UNK         0.0600 
    181 H181        4.7843  -16.1500  -44.5868 H         1 UNK         0.0600 
    182 H182        5.5319  -15.5878  -43.1043 H         1 UNK         0.0600 
    183 H183        5.5160  -14.5456  -44.5182 H         1 UNK         0.0600 
    184 H184        2.5109  -13.0848  -44.3247 H         1 UNK         0.3000 
    185 H185        0.9280  -13.0754  -46.0491 H         1 UNK         0.0600 
    186 H186        2.0144  -11.6835  -47.8333 H         1 UNK         0.0600 
    187 H187        3.0745  -11.8087  -46.4409 H         1 UNK         0.0600 
    188 H188        3.3920  -12.7818  -47.8726 H         1 UNK         0.0600 
    189 H189        1.5929  -15.1265  -47.9827 H         1 UNK         0.3000 
    190 H190       -2.7028  -21.4850  -44.1187 H         1 UNK         0.3000 
    191 H191       -3.6506  -24.1243  -44.7667 H         1 UNK         0.0600 
    192 H192       -1.9353  -23.0009  -42.5005 H         1 UNK         0.0600 
    193 H193       -3.6628  -23.3298  -42.4549 H         1 UNK         0.0600 
    194 H194       -2.5208  -24.6613  -42.5546 H         1 UNK         0.0600 
    195 H195       -0.6471  -22.4542  -45.3977 H         1 UNK         0.3000 
    196 H196        0.9433  -24.8955  -45.8145 H         1 UNK         0.0600 
    197 H197        2.0169  -22.8906  -44.8263 H         1 UNK         0.0600 
    198 H198        1.6139  -21.9420  -46.2550 H         1 UNK         0.0600 
    199 H199        2.7378  -23.2878  -46.3766 H         1 UNK         0.0600 
    200 H200       -1.2102  -25.2238  -47.2396 H         1 UNK         0.3000 
    201 H201       -2.1670  -25.6375  -49.2078 H         1 UNK         0.0600 
    202 H202       -0.6738  -26.4491  -51.0157 H         1 UNK         0.0600 
    203 H203       -0.1021  -27.0204  -49.4572 H         1 UNK         0.0600 
    204 H204        0.7149  -25.6799  -50.2585 H         1 UNK         0.0600 
    205 H205       -2.4810  -23.0254  -48.6289 H         1 UNK         0.3000 
    206 H206       -2.9309  -20.9790  -49.3560 H         1 UNK         0.0600 
    207 H207       -4.4154  -22.1761  -50.9527 H         1 UNK         0.0600 
    208 H208       -3.1161  -22.2493  -52.1414 H         1 UNK         0.0600 
    209 H209       -3.7873  -20.7005  -51.6663 H         1 UNK         0.0600 
    210 H210       -0.4567  -21.0522  -48.6904 H         1 UNK         0.3000 
    211 H211        1.6046  -20.3176  -48.8288 H         1 UNK         0.0600 
    212 H212        0.3433  -18.1624  -49.1050 H         1 UNK         0.0600 
    213 H213        1.9378  -18.1013  -49.8435 H         1 UNK         0.0600 
    214 H214        0.5051  -18.2908  -50.8447 H         1 UNK         0.0600 
    215 H215        1.4300  -22.5798  -50.1429 H         1 UNK         0.3000 
    216 H216        2.2136  -23.9919  -51.6473 H         1 UNK         0.0600 
    217 H217        4.4733  -23.6269  -52.5787 H         1 UNK         0.0600 
    218 H218        4.3990  -21.9129  -52.1962 H         1 UNK         0.0600 
    219 H219        4.4237  -23.1091  -50.9012 H         1 UNK         0.0600 
    220 H220        0.0406  -22.9238  -52.5174 H         1 UNK         0.3000 
    221 H221       -1.3287  -22.5071  -54.1658 H         1 UNK         0.0600 
    222 H222        0.8184  -23.7089  -55.9916 H         1 UNK         0.0600 
    223 H223       -0.3666  -24.6235  -55.0594 H         1 UNK         0.0600 
    224 H224       -0.8960  -23.5645  -56.3559 H         1 UNK         0.0600 
    225 H225       -0.2838  -20.2217  -53.3663 H         1 UNK         0.3000 
    226 H226        0.6745  -18.5425  -55.5505 H         1 UNK         0.0600 
    227 H227        1.1713  -18.0103  -53.1627 H         1 UNK         0.0600 
    228 H228        0.2762  -16.7049  -53.9256 H         1 UNK         0.0600 
    229 H229       -0.5546  -17.8112  -52.8425 H         1 UNK         0.0600 
    230 H230       -2.4273  -19.6689  -54.3792 H         1 UNK         0.3000 
    231 H231       -3.7807  -18.5745  -56.6947 H         1 UNK         0.0600 
    232 H232       -5.6757  -17.6504  -55.3449 H         1 UNK         0.0600 
    233 H233       -4.1982  -16.7804  -54.9633 H         1 UNK         0.0600 
    234 H234       -4.8146  -17.9990  -53.8518 H         1 UNK         0.0600 
    235 H235       -5.7685  -19.7729  -57.0650 H         1 UNK         0.3000 
    236 H236       -5.6040  -22.5550  -56.1885 H         1 UNK         0.0600 
    237 H237       -6.0537  -21.9698  -58.5595 H         1 UNK         0.0600 
    238 H238       -7.4064  -22.8597  -57.8812 H         1 UNK         0.0600 
    239 H239       -7.5268  -21.1176  -58.0964 H         1 UNK         0.0600 
    240 H240       -7.3336  -19.7516  -55.1700 H         1 UNK         0.3000 
    241 H241       -8.8900  -19.2885  -53.6969 H         1 UNK         0.0600 
    242 H242       -9.7613  -20.6551  -56.3822 H         1 UNK         0.3800 
    243 H243      -11.4612  -20.9042  -56.0835 H         1 UNK         0.3800 
    244 H244       -9.4460  -20.7907  -51.7961 H         1 UNK         0.0800 
    245 H245       -8.6898  -22.1312  -52.6025 H         1 UNK         0.0800 
    246 H246       -7.6115  -18.2646  -51.8263 H         1 UNK         0.0800 
    247 H247       -8.4007  -19.0481  -50.4763 H         1 UNK         0.0800 
@<TRIPOS>BOND
     1    1    2 1    
     2    1  127 1    
     3    1  128 1    
     4    1  129 1    
     5    2    3 2    
     6    2    4 am   BACKBONE|DICT|INTERRES
     7    4    5 1    
     8    4  130 1    
     9    5    6 1    
    10    5   65 1    
    11    5  131 1    
    12    6    7 1    
    13    6  132 1    
    14    6  133 1    
    15    7    8 1    
    16    8    9 1    
    17    8  134 1    
    18    8  135 1    
    19    9   10 ar   
    20    9   14 ar   
    21   10   11 ar   
    22   10  136 1    
    23   11   12 ar   
    24   11  126 1    
    25   12   13 ar   
    26   12  137 1    
    27   13   14 ar   
    28   13   15 1    
    29   14  138 1    
    30   15   16 1    
    31   15  139 1    
    32   15  140 1    
    33   16   17 1    
    34   17   18 1    
    35   17  141 1    
    36   17  142 1    
    37   18   19 1    
    38   18   67 1    
    39   18  143 1    
    40   19   20 am   BACKBONE|DICT|INTERRES
    41   19  144 1    
    42   20   21 2    
    43   20   22 1    
    44   22   23 1    
    45   22   24 1    
    46   22  145 1    
    47   23  146 1    
    48   23  147 1    
    49   23  148 1    
    50   24   25 am   BACKBONE|DICT|INTERRES
    51   24  149 1    
    52   25   26 2    
    53   25   27 1    
    54   27   28 1    
    55   27   29 1    
    56   27  150 1    
    57   28  151 1    
    58   28  152 1    
    59   28  153 1    
    60   29   30 am   BACKBONE|DICT|INTERRES
    61   29  154 1    
    62   30   31 2    
    63   30   32 1    
    64   32   33 1    
    65   32   34 1    
    66   32  155 1    
    67   33  156 1    
    68   33  157 1    
    69   33  158 1    
    70   34   35 am   BACKBONE|DICT|INTERRES
    71   34  159 1    
    72   35   36 2    
    73   35   37 1    
    74   37   38 1    
    75   37   39 1    
    76   37  160 1    
    77   38  161 1    
    78   38  162 1    
    79   38  163 1    
    80   39   40 am   BACKBONE|DICT|INTERRES
    81   39  164 1    
    82   40   41 2    
    83   40   42 1    
    84   42   43 1    
    85   42   44 1    
    86   42  165 1    
    87   43  166 1    
    88   43  167 1    
    89   43  168 1    
    90   44   45 am   BACKBONE|DICT|INTERRES
    91   44  169 1    
    92   45   46 2    
    93   45   47 1    
    94   47   48 1    
    95   47   49 1    
    96   47  170 1    
    97   48  171 1    
    98   48  172 1    
    99   48  173 1    
   100   49   50 am   BACKBONE|DICT|INTERRES
   101   49  174 1    
   102   50   51 2    
   103   50   52 1    
   104   52   53 1    
   105   52   54 1    
   106   52  175 1    
   107   53  176 1    
   108   53  177 1    
   109   53  178 1    
   110   54   55 am   BACKBONE|DICT|INTERRES
   111   54  179 1    
   112   55   56 2    
   113   55   57 1    
   114   57   58 1    
   115   57   59 1    
   116   57  180 1    
   117   58  181 1    
   118   58  182 1    
   119   58  183 1    
   120   59   60 am   BACKBONE|DICT|INTERRES
   121   59  184 1    
   122   60   61 2    
   123   60   62 1    
   124   62   63 1    
   125   62   64 1    
   126   62  185 1    
   127   63  186 1    
   128   63  187 1    
   129   63  188 1    
   130   64   65 am   BACKBONE|DICT|INTERRES
   131   64  189 1    
   132   65   66 2    
   133   67   68 2    
   134   67   69 am   BACKBONE|DICT|INTERRES
   135   69   70 1    
   136   69  190 1    
   137   70   71 1    
   138   70   72 1    
   139   70  191 1    
   140   71  192 1    
   141   71  193 1    
   142   71  194 1    
   143   72   73 2    
   144   72   74 am   BACKBONE|DICT|INTERRES
   145   74   75 1    
   146   74  195 1    
   147   75   76 1    
   148   75   77 1    
   149   75  196 1    
   150   76  197 1    
   151   76  198 1    
   152   76  199 1    
   153   77   78 2    
   154   77   79 am   BACKBONE|DICT|INTERRES
   155   79   80 1    
   156   79  200 1    
   157   80   81 1    
   158   80   82 1    
   159   80  201 1    
   160   81  202 1    
   161   81  203 1    
   162   81  204 1    
   163   82   83 2    
   164   82   84 am   BACKBONE|DICT|INTERRES
   165   84   85 1    
   166   84  205 1    
   167   85   86 1    
   168   85   87 1    
   169   85  206 1    
   170   86  207 1    
   171   86  208 1    
   172   86  209 1    
   173   87   88 2    
   174   87   89 am   BACKBONE|DICT|INTERRES
   175   89   90 1    
   176   89  210 1    
   177   90   91 1    
   178   90   92 1    
   179   90  211 1    
   180   91  212 1    
   181   91  213 1    
   182   91  214 1    
   183   92   93 2    
   184   92   94 am   BACKBONE|DICT|INTERRES
   185   94   95 1    
   186   94  215 1    
   187   95   96 1    
   188   95   97 1    
   189   95  216 1    
   190   96  217 1    
   191   96  218 1    
   192   96  219 1    
   193   97   98 2    
   194   97   99 am   BACKBONE|DICT|INTERRES
   195   99  100 1    
   196   99  220 1    
   197  100  101 1    
   198  100  102 1    
   199  100  221 1    
   200  101  222 1    
   201  101  223 1    
   202  101  224 1    
   203  102  103 2    
   204  102  104 am   BACKBONE|DICT|INTERRES
   205  104  105 1    
   206  104  225 1    
   207  105  106 1    
   208  105  107 1    
   209  105  226 1    
   210  106  227 1    
   211  106  228 1    
   212  106  229 1    
   213  107  108 2    
   214  107  109 am   BACKBONE|DICT|INTERRES
   215  109  110 1    
   216  109  230 1    
   217  110  111 1    
   218  110  112 1    
   219  110  231 1    
   220  111  232 1    
   221  111  233 1    
   222  111  234 1    
   223  112  113 2    
   224  112  114 am   BACKBONE|DICT|INTERRES
   225  114  115 1    
   226  114  235 1    
   227  115  116 1    
   228  115  117 1    
   229  115  236 1    
   230  116  237 1    
   231  116  238 1    
   232  116  239 1    
   233  117  118 2    
   234  117  119 am   BACKBONE|DICT|INTERRES
   235  119  120 1    
   236  119  240 1    
   237  120  121 1    
   238  120  124 1    
   239  120  241 1    
   240  121  122 am   BACKBONE|DICT|INTERRES
   241  121  123 2    
   242  122  242 1    
   243  122  243 1    
   244  124  125 1    
   245  124  244 1    
   246  124  245 1    
   247  125  126 1    
   248  126  246 1    
   249  126  247 1    
@<TRIPOS>SUBSTRUCTURE
     1 UNK         1 GROUP             0       ****    0 ROOT    
