@<TRIPOS>MOLECULE
3R540
247   249    1
SMALL
USER_CHARGES


@<TRIPOS>ATOM
      1 CA         -5.3874  -16.9633  -46.6662 C.3       0 UNK        -0.1800 
      2 C          -4.8435  -15.7640  -47.4296 C.2       0 UNK         0.5000 
      3 O          -5.6136  -15.0207  -48.0368 O.2       0 UNK        -0.5000 
      4 N          -3.5201  -15.5710  -47.3968 N.am      1 UNK        -0.5000 
      5 CA         -2.8077  -14.4922  -48.0955 C.3       1 UNK         0.1400 
      6 C6         -1.3133  -14.8408  -48.2992 C.3       23 UNK        -0.0398 
      7 S7         -1.0673  -16.2971  -49.3622 S.3       23 UNK        -0.2404 
      8 C8          0.6443  -16.0046  -49.8919 C.3       23 UNK        -0.0205 
      9 C9          1.1228  -17.0901  -50.8387 C.ar      23 UNK        -0.0193 
     10 C10         0.9615  -16.9371  -52.2177 C.ar      23 UNK        -0.1150 
     11 C11         1.4338  -17.9125  -53.0997 C.ar      23 UNK        -0.0193 
     12 C12         2.0534  -19.0575  -52.5916 C.ar      23 UNK        -0.1150 
     13 C13         2.2223  -19.2198  -51.2124 C.ar      23 UNK        -0.0193 
     14 C14         1.7549  -18.2324  -50.3406 C.ar      23 UNK        -0.1150 
     15 C15         2.9438  -20.4438  -50.6708 C.3       23 UNK        -0.0205 
     16 S16         1.7794  -21.7412  -50.1566 S.3       23 UNK        -0.2404 
     17 C17         1.3879  -21.2547  -48.4418 C.3       23 UNK        -0.0398 
     18 CA          0.9624  -22.4818  -47.5952 C.3       11 UNK         0.1400 
     19 N           1.4304  -22.3820  -46.2118 N.am      11 UNK        -0.5000 
     20 C           1.7358  -23.4333  -45.4392 C.2       10 UNK         0.5000 
     21 O           1.6800  -24.6025  -45.8205 O.2       10 UNK        -0.5000 
     22 CA          2.1601  -23.1307  -43.9889 C.3       10 UNK         0.1400 
     23 CB          3.6791  -22.9189  -43.9053 C.3       10 UNK        -0.1800 
     24 N           1.4804  -21.9671  -43.4162 N.am      10 UNK        -0.5000 
     25 C           0.1649  -21.9103  -43.1711 C.2       9 UNK         0.5000 
     26 O          -0.6122  -22.8343  -43.4019 O.2       9 UNK        -0.5000 
     27 CA         -0.3865  -20.5874  -42.6155 C.3       9 UNK         0.1400 
     28 CB         -0.2373  -20.5540  -41.0879 C.3       9 UNK        -0.1800 
     29 N           0.2048  -19.3778  -43.1947 N.am      9 UNK        -0.5000 
     30 C           0.3056  -19.0895  -44.5008 C.2       8 UNK         0.5000 
     31 O           0.0324  -19.8789  -45.4081 O.2       8 UNK        -0.5000 
     32 CA          0.7736  -17.6588  -44.8209 C.3       8 UNK         0.1400 
     33 CB          0.9090  -17.3799  -46.3314 C.3       8 UNK        -0.1800 
     34 N          -0.0866  -16.6756  -44.1530 N.am      8 UNK        -0.5000 
     35 C          -1.3862  -16.4319  -44.3830 C.2       7 UNK         0.5000 
     36 O          -2.0206  -16.8996  -45.3290 O.2       7 UNK        -0.5000 
     37 CA         -2.0876  -15.4639  -43.4064 C.3       7 UNK         0.1400 
     38 CB         -3.6107  -15.6960  -43.3091 C.3       7 UNK        -0.1800 
     39 N          -1.4573  -15.4053  -42.0830 N.am      7 UNK        -0.5000 
     40 C          -1.4388  -16.3706  -41.1516 C.2       6 UNK         0.5000 
     41 O          -2.0103  -17.4540  -41.2746 O.2       6 UNK        -0.5000 
     42 CA         -0.5969  -16.0712  -39.8919 C.3       6 UNK         0.1400 
     43 CB         -0.5038  -17.2630  -38.9177 C.3       6 UNK        -0.1800 
     44 N           0.7483  -15.5763  -40.2052 N.am      6 UNK        -0.5000 
     45 C           1.6703  -16.1443  -40.9959 C.2       5 UNK         0.5000 
     46 O           1.4811  -17.1935  -41.6156 O.2       5 UNK        -0.5000 
     47 CA          3.0084  -15.3844  -41.1499 C.3       5 UNK         0.1400 
     48 CB          3.9191  -16.0108  -42.2218 C.3       5 UNK        -0.1800 
     49 N           2.8113  -13.9698  -41.4782 N.am      5 UNK        -0.5000 
     50 C           2.4425  -13.0040  -40.6252 C.2       4 UNK         0.5000 
     51 O           2.2689  -13.1946  -39.4209 O.2       4 UNK        -0.5000 
     52 CA          2.1703  -11.6068  -41.2183 C.3       4 UNK         0.1400 
     53 CB          3.4035  -10.7058  -41.0531 C.3       4 UNK        -0.1800 
     54 N           1.7704  -11.6167  -42.6304 N.am      4 UNK        -0.5000 
     55 C           0.6718  -12.2067  -43.1200 C.2       3 UNK         0.5000 
     56 O          -0.1158  -12.8682  -42.4370 O.2       3 UNK        -0.5000 
     57 CA          0.4621  -12.0833  -44.6412 C.3       3 UNK         0.1400 
     58 CB          1.3331  -13.1129  -45.3805 C.3       3 UNK        -0.1800 
     59 N          -0.9290  -12.3057  -45.0264 N.am      3 UNK        -0.5000 
     60 C          -1.9661  -11.5006  -44.7563 C.2       2 UNK         0.5000 
     61 O          -1.8494  -10.4029  -44.2094 O.2       2 UNK        -0.5000 
     62 CA         -3.3693  -12.0285  -45.1423 C.3       2 UNK         0.1400 
     63 CB         -4.3153  -10.9089  -45.6236 C.3       2 UNK        -0.1800 
     64 N          -3.3392  -13.1519  -46.0935 N.am      2 UNK        -0.5000 
     65 C          -2.9179  -13.1338  -47.3686 C.2       1 UNK         0.5000 
     66 O          -2.5658  -12.1119  -47.9577 O.2       1 UNK        -0.5000 
     67 C          -0.5596  -22.7263  -47.6394 C.2       11 UNK         0.5000 
     68 O          -1.0304  -23.4975  -48.4743 O.2       11 UNK        -0.5000 
     69 N          -1.3027  -22.1128  -46.7062 N.am      12 UNK        -0.5000 
     70 CA         -2.7369  -22.3347  -46.5154 C.3       12 UNK         0.1400 
     71 CB         -3.2827  -21.3215  -45.4990 C.3       12 UNK        -0.1800 
     72 C          -3.0584  -23.7811  -46.0866 C.2       12 UNK         0.5000 
     73 O          -4.0177  -24.3659  -46.5894 O.2       12 UNK        -0.5000 
     74 N          -2.2237  -24.3520  -45.2060 N.am      13 UNK        -0.5000 
     75 CA         -2.3031  -25.7429  -44.7531 C.3       13 UNK         0.1400 
     76 CB         -1.3295  -25.9547  -43.5841 C.3       13 UNK        -0.1800 
     77 C          -2.0301  -26.7734  -45.8653 C.2       13 UNK         0.5000 
     78 O          -2.5332  -27.8952  -45.7838 O.2       13 UNK        -0.5000 
     79 N          -1.2724  -26.3819  -46.8991 N.am      14 UNK        -0.5000 
     80 CA         -0.9702  -27.1882  -48.0818 C.3       14 UNK         0.1400 
     81 CB          0.3466  -26.6927  -48.7072 C.3       14 UNK        -0.1800 
     82 C          -2.1498  -27.1827  -49.0769 C.2       14 UNK         0.5000 
     83 O          -2.0074  -26.7242  -50.2107 O.2       14 UNK        -0.5000 
     84 N          -3.3089  -27.6736  -48.6141 N.am      15 UNK        -0.5000 
     85 CA         -4.5716  -27.8385  -49.3461 C.3       15 UNK         0.1400 
     86 CB         -4.4319  -28.9638  -50.3925 C.3       15 UNK        -0.1800 
     87 C          -5.1262  -26.5301  -49.9541 C.2       15 UNK         0.5000 
     88 O          -5.7823  -26.5694  -50.9965 O.2       15 UNK        -0.5000 
     89 N          -4.8446  -25.3955  -49.2950 N.am      16 UNK        -0.5000 
     90 CA         -5.1921  -24.0276  -49.6932 C.3       16 UNK         0.1400 
     91 CB         -6.7180  -23.8087  -49.6254 C.3       16 UNK        -0.1800 
     92 C          -4.5801  -23.5858  -51.0407 C.2       16 UNK         0.5000 
     93 O          -5.1269  -22.6929  -51.6910 O.2       16 UNK        -0.5000 
     94 N          -3.4483  -24.1879  -51.4353 N.am      17 UNK        -0.5000 
     95 CA         -2.7067  -23.8583  -52.6529 C.3       17 UNK         0.1400 
     96 CB         -1.8828  -25.0824  -53.0892 C.3       17 UNK        -0.1800 
     97 C          -1.8397  -22.5991  -52.4497 C.2       17 UNK         0.5000 
     98 O          -0.6119  -22.6755  -52.4944 O.2       17 UNK        -0.5000 
     99 N          -2.5012  -21.4627  -52.2179 N.am      18 UNK        -0.5000 
    100 CA        -1.9183  -20.1581  -51.9250 C.3       18 UNK         0.1400 
    101 CB        -1.6493  -20.0698  -50.4111 C.3       18 UNK        -0.1800 
    102 C         -2.8958  -19.0631  -52.3842 C.2       18 UNK         0.5000 
    103 O         -3.9531  -19.3781  -52.9347 O.2       18 UNK        -0.5000 
    104 N         -2.5414  -17.7960  -52.1272 N.am      19 UNK        -0.5000 
    105 CA        -3.3908  -16.6034  -52.2632 C.3       19 UNK         0.1400 
    106 CB        -4.4693  -16.6047  -51.1603 C.3       19 UNK        -0.1800 
    107 C         -3.9848  -16.4221  -53.6770 C.2       19 UNK         0.5000 
    108 O         -5.1937  -16.2399  -53.8281 O.2       19 UNK        -0.5000 
    109 N         -3.1066  -16.5120  -54.6848 N.am      20 UNK        -0.5000 
    110 CA        -3.3678  -16.4469  -56.1303 C.3       20 UNK         0.1400 
    111 CB        -4.1503  -15.1783  -56.5293 C.3       20 UNK        -0.1800 
    112 C         -3.9832  -17.7301  -56.7298 C.2       20 UNK         0.5000 
    113 O         -4.1430  -17.7986  -57.9489 O.2       20 UNK        -0.5000 
    114 N         -4.2471  -18.7474  -55.8995 N.am      21 UNK        -0.5000 
    115 CA        -4.5896  -20.1134  -56.3033 C.3       21 UNK         0.1400 
    116 CB        -5.8881  -20.5399  -55.5955 C.3       21 UNK        -0.1800 
    117 C         -3.4051  -21.0486  -55.9840 C.2       21 UNK         0.5000 
    118 O         -3.6034  -22.1833  -55.5513 O.2       21 UNK        -0.5000 
    119 N         -2.1876  -20.5308  -56.1855 N.am      22 UNK        -0.5000 
    120 CA        -0.8709  -21.0509  -55.7728 C.3       22 UNK         0.1400 
    121 C         -0.4256  -22.4198  -56.3819 C.2       22 UNK         0.5000 
    122 N         -1.3319  -23.2717  -56.8373 N.am      22 UNK        -0.7600 
    123 O          0.7635  -22.7197  -56.4463 O.2       22 UNK        -0.5000 
    124 C124        0.2231  -19.9588  -55.9278 C.3       23 UNK        -0.0398 
    125 S125       -0.2655  -18.3356  -55.2390 S.3       23 UNK        -0.2404 
    126 C126        1.3098  -17.6987  -54.5989 C.3       23 UNK        -0.0205 
    127 H127       -4.5894  -17.5462  -46.2052 H         1 UNK         0.0600 
    128 H128       -5.9382  -17.6183  -47.3412 H         1 UNK         0.0600 
    129 H129       -6.0655  -16.6326  -45.8796 H         1 UNK         0.0600 
    130 H130       -2.9384  -16.2103  -46.8588 H         1 UNK         0.3000 
    131 H131       -3.2616  -14.3602  -49.0802 H         1 UNK         0.0600 
    132 H132       -0.8234  -15.0262  -47.3421 H         1 UNK         0.0800 
    133 H133       -0.7866  -14.0008  -48.7568 H         1 UNK         0.0800 
    134 H134        1.2941  -15.9588  -49.0170 H         1 UNK         0.0800 
    135 H135        0.7150  -15.0310  -50.3795 H         1 UNK         0.0800 
    136 H136        0.4854  -16.0477  -52.6065 H         1 UNK         0.1150 
    137 H137        2.4219  -19.8137  -53.2702 H         1 UNK         0.1150 
    138 H138        1.8894  -18.3489  -49.2748 H         1 UNK         0.1150 
    139 H139        3.5973  -20.1648  -49.8433 H         1 UNK         0.0800 
    140 H140        3.5982  -20.8560  -51.4404 H         1 UNK         0.0800 
    141 H141        0.6355  -20.4639  -48.4346 H         1 UNK         0.0800 
    142 H142        2.2865  -20.8075  -48.0150 H         1 UNK         0.0800 
    143 H143        1.4326  -23.3683  -48.0277 H         1 UNK         0.0600 
    144 H144        1.4113  -21.4591  -45.7963 H         1 UNK         0.3000 
    145 H145        1.9032  -24.0022  -43.3828 H         1 UNK         0.0600 
    146 H146        3.9957  -22.0428  -44.4726 H         1 UNK         0.0600 
    147 H147        4.2158  -23.7805  -44.3049 H         1 UNK         0.0600 
    148 H148        4.0029  -22.7864  -42.8728 H         1 UNK         0.0600 
    149 H149        2.0467  -21.1586  -43.2051 H         1 UNK         0.3000 
    150 H150       -1.4524  -20.5602  -42.8462 H         1 UNK         0.0600 
    151 H151        0.8001  -20.4063  -40.7854 H         1 UNK         0.0600 
    152 H152       -0.5852  -21.4838  -40.6354 H         1 UNK         0.0600 
    153 H153       -0.8335  -19.7516  -40.6580 H         1 UNK         0.0600 
    154 H154        0.4836  -18.6589  -42.5334 H         1 UNK         0.3000 
    155 H155        1.7662  -17.5510  -44.3817 H         1 UNK         0.0600 
    156 H156       -0.0232  -17.5617  -46.8656 H         1 UNK         0.0600 
    157 H157        1.6642  -18.0283  -46.7764 H         1 UNK         0.0600 
    158 H158        1.2127  -16.3504  -46.5177 H         1 UNK         0.0600 
    159 H159        0.3074  -16.2792  -43.3109 H         1 UNK         0.3000 
    160 H160       -1.9482  -14.4728  -43.8297 H         1 UNK         0.0600 
    161 H161       -3.8485  -16.7098  -42.9863 H         1 UNK         0.0600 
    162 H162       -4.0949  -15.5466  -44.2735 H         1 UNK         0.0600 
    163 H163       -4.0717  -15.0021  -42.6063 H         1 UNK         0.0600 
    164 H164       -0.9388  -14.5482  -41.9037 H         1 UNK         0.3000 
    165 H165       -1.1135  -15.2630  -39.3722 H         1 UNK         0.0600 
    166 H166       -1.4924  -17.6475  -38.6638 H         1 UNK         0.0600 
    167 H167        0.0749  -18.0845  -39.3384 H         1 UNK         0.0600 
    168 H168       -0.0241  -16.9666  -37.9850 H         1 UNK         0.0600 
    169 H169        1.0117  -14.7021  -39.7612 H         1 UNK         0.3000 
    170 H170        3.5259  -15.4533  -40.1909 H         1 UNK         0.0600 
    171 H171        4.8767  -15.4927  -42.2763 H         1 UNK         0.0600 
    172 H172        4.1320  -17.0564  -41.9953 H         1 UNK         0.0600 
    173 H173        3.4615  -15.9740  -43.2111 H         1 UNK         0.0600 
    174 H174        2.9080  -13.7206  -42.4510 H         1 UNK         0.3000 
    175 H175        1.3489  -11.1691  -40.6473 H         1 UNK         0.0600 
    176 H176        3.7126  -10.6531  -40.0082 H         1 UNK         0.0600 
    177 H177        4.2528  -11.0768  -41.6283 H         1 UNK         0.0600 
    178 H178        3.1951   -9.6867  -41.3794 H         1 UNK         0.0600 
    179 H179        2.3724  -11.1098  -43.2636 H         1 UNK         0.3000 
    180 H180        0.7497  -11.0778  -44.9555 H         1 UNK         0.0600 
    181 H181        1.0887  -14.1344  -45.0866 H         1 UNK         0.0600 
    182 H182        2.3921  -12.9571  -45.1713 H         1 UNK         0.0600 
    183 H183        1.2052  -13.0361  -46.4606 H         1 UNK         0.0600 
    184 H184       -1.1266  -13.1773  -45.4881 H         1 UNK         0.3000 
    185 H185       -3.7923  -12.4330  -44.2215 H         1 UNK         0.0600 
    186 H186       -4.4751  -10.1687  -44.8388 H         1 UNK         0.0600 
    187 H187       -3.9154  -10.3807  -46.4893 H         1 UNK         0.0600 
    188 H188       -5.2927  -11.3078  -45.8948 H         1 UNK         0.0600 
    189 H189       -3.6460  -14.0428  -45.7314 H         1 UNK         0.3000 
    190 H190       -0.8537  -21.4461  -46.0845 H         1 UNK         0.3000 
    191 H191       -3.2284  -22.1508  -47.4725 H         1 UNK         0.0600 
    192 H192       -3.0628  -20.2972  -45.8021 H         1 UNK         0.0600 
    193 H193       -4.3657  -21.4097  -45.4056 H         1 UNK         0.0600 
    194 H194       -2.8554  -21.4770  -44.5090 H         1 UNK         0.0600 
    195 H195       -1.5013  -23.7811  -44.7742 H         1 UNK         0.3000 
    196 H196       -3.3172  -25.9183  -44.3883 H         1 UNK         0.0600 
    197 H197       -0.3011  -25.7357  -43.8744 H         1 UNK         0.0600 
    198 H198       -1.3596  -26.9854  -43.2283 H         1 UNK         0.0600 
    199 H199       -1.5836  -25.3144  -42.7392 H         1 UNK         0.0600 
    200 H200       -0.9376  -25.4286  -46.9141 H         1 UNK         0.3000 
    201 H201       -0.8133  -28.2234  -47.7719 H         1 UNK         0.0600 
    202 H202        0.2618  -25.6741  -49.0849 H         1 UNK         0.0600 
    203 H203        1.1604  -26.7128  -47.9820 H         1 UNK         0.0600 
    204 H204        0.6409  -27.3261  -49.5447 H         1 UNK         0.0600 
    205 H205       -3.3176  -27.9784  -47.6456 H         1 UNK         0.3000 
    206 H206       -5.3089  -28.1622  -48.6102 H         1 UNK         0.0600 
    207 H207       -4.0584  -29.8813  -49.9378 H         1 UNK         0.0600 
    208 H208       -5.3941  -29.1995  -50.8487 H         1 UNK         0.0600 
    209 H209       -3.7482  -28.6846  -51.1950 H         1 UNK         0.0600 
    210 H210       -4.3184  -25.4610  -48.4312 H         1 UNK         0.3000 
    211 H211       -4.7414  -23.3737  -48.9473 H         1 UNK         0.0600 
    212 H212       -7.1155  -24.1082  -48.6556 H         1 UNK         0.0600 
    213 H213       -6.9701  -22.7570  -49.7655 H         1 UNK         0.0600 
    214 H214       -7.2435  -24.3751  -50.3945 H         1 UNK         0.0600 
    215 H215       -3.0416  -24.9072  -50.8476 H         1 UNK         0.3000 
    216 H216       -3.4217  -23.6481  -53.4491 H         1 UNK         0.0600 
    217 H217       -1.1216  -25.3398  -52.3518 H         1 UNK         0.0600 
    218 H218       -1.3735  -24.8897  -54.0343 H         1 UNK         0.0600 
    219 H219       -2.5188  -25.9561  -53.2328 H         1 UNK         0.0600 
    220 H220       -3.5170  -21.4770  -52.2512 H         1 UNK         0.3000 
    221 H221       -0.9831  -20.0394  -52.4761 H         1 UNK         0.0600 
    222 H222       -1.0982  -20.9406  -50.0608 H         1 UNK         0.0600 
    223 H223       -1.0534  -19.1923  -50.1642 H         1 UNK         0.0600 
    224 H224       -2.5756  -20.0160  -49.8377 H         1 UNK         0.0600 
    225 H225       -1.6484  -17.6351  -51.6808 H         1 UNK         0.3000 
    226 H226       -2.7439  -15.7424  -52.0884 H         1 UNK         0.0600 
    227 H227       -4.0225  -16.7300  -50.1749 H         1 UNK         0.0600 
    228 H228       -5.0217  -15.6645  -51.1486 H         1 UNK         0.0600 
    229 H229       -5.1915  -17.4097  -51.3011 H         1 UNK         0.0600 
    230 H230       -2.1455  -16.7130  -54.4418 H         1 UNK         0.3000 
    231 H231       -2.3814  -16.3620  -56.5883 H         1 UNK         0.0600 
    232 H232       -5.1924  -15.2227  -56.2128 H         1 UNK         0.0600 
    233 H233       -4.1505  -15.0482  -57.6120 H         1 UNK         0.0600 
    234 H234       -3.7025  -14.2838  -56.0965 H         1 UNK         0.0600 
    235 H235       -4.0898  -18.6233  -54.9049 H         1 UNK         0.3000 
    236 H236       -4.7587  -20.1696  -57.3801 H         1 UNK         0.0600 
    237 H237       -5.7637  -20.5803  -54.5128 H         1 UNK         0.0600 
    238 H238       -6.7006  -19.8468  -55.8134 H         1 UNK         0.0600 
    239 H239       -6.2074  -21.5289  -55.9258 H         1 UNK         0.0600 
    240 H240       -2.1554  -19.5985  -56.5692 H         1 UNK         0.3000 
    241 H241       -0.9530  -21.2410  -54.7063 H         1 UNK         0.0600 
    242 H242       -1.0463  -24.1527  -57.2338 H         1 UNK         0.3800 
    243 H243       -2.3133  -23.0721  -56.6770 H         1 UNK         0.3800 
    244 H244        0.4706  -19.8170  -56.9810 H         1 UNK         0.0800 
    245 H245        1.1418  -20.2865  -55.4384 H         1 UNK         0.0800 
    246 H246        1.3663  -16.6319  -54.8206 H         1 UNK         0.0800 
    247 H247        2.1507  -18.1542  -55.1239 H         1 UNK         0.0800 
@<TRIPOS>BOND
     1    1    2 1    
     2    1  127 1    
     3    1  128 1    
     4    1  129 1    
     5    2    3 2    
     6    2    4 am   BACKBONE|DICT|INTERRES
     7    4    5 1    
     8    4  130 1    
     9    5    6 1    
    10    5   65 1    
    11    5  131 1    
    12    6    7 1    
    13    6  132 1    
    14    6  133 1    
    15    7    8 1    
    16    8    9 1    
    17    8  134 1    
    18    8  135 1    
    19    9   10 ar   
    20    9   14 ar   
    21   10   11 ar   
    22   10  136 1    
    23   11   12 ar   
    24   11  126 1    
    25   12   13 ar   
    26   12  137 1    
    27   13   14 ar   
    28   13   15 1    
    29   14  138 1    
    30   15   16 1    
    31   15  139 1    
    32   15  140 1    
    33   16   17 1    
    34   17   18 1    
    35   17  141 1    
    36   17  142 1    
    37   18   19 1    
    38   18   67 1    
    39   18  143 1    
    40   19   20 am   BACKBONE|DICT|INTERRES
    41   19  144 1    
    42   20   21 2    
    43   20   22 1    
    44   22   23 1    
    45   22   24 1    
    46   22  145 1    
    47   23  146 1    
    48   23  147 1    
    49   23  148 1    
    50   24   25 am   BACKBONE|DICT|INTERRES
    51   24  149 1    
    52   25   26 2    
    53   25   27 1    
    54   27   28 1    
    55   27   29 1    
    56   27  150 1    
    57   28  151 1    
    58   28  152 1    
    59   28  153 1    
    60   29   30 am   BACKBONE|DICT|INTERRES
    61   29  154 1    
    62   30   31 2    
    63   30   32 1    
    64   32   33 1    
    65   32   34 1    
    66   32  155 1    
    67   33  156 1    
    68   33  157 1    
    69   33  158 1    
    70   34   35 am   BACKBONE|DICT|INTERRES
    71   34  159 1    
    72   35   36 2    
    73   35   37 1    
    74   37   38 1    
    75   37   39 1    
    76   37  160 1    
    77   38  161 1    
    78   38  162 1    
    79   38  163 1    
    80   39   40 am   BACKBONE|DICT|INTERRES
    81   39  164 1    
    82   40   41 2    
    83   40   42 1    
    84   42   43 1    
    85   42   44 1    
    86   42  165 1    
    87   43  166 1    
    88   43  167 1    
    89   43  168 1    
    90   44   45 am   BACKBONE|DICT|INTERRES
    91   44  169 1    
    92   45   46 2    
    93   45   47 1    
    94   47   48 1    
    95   47   49 1    
    96   47  170 1    
    97   48  171 1    
    98   48  172 1    
    99   48  173 1    
   100   49   50 am   BACKBONE|DICT|INTERRES
   101   49  174 1    
   102   50   51 2    
   103   50   52 1    
   104   52   53 1    
   105   52   54 1    
   106   52  175 1    
   107   53  176 1    
   108   53  177 1    
   109   53  178 1    
   110   54   55 am   BACKBONE|DICT|INTERRES
   111   54  179 1    
   112   55   56 2    
   113   55   57 1    
   114   57   58 1    
   115   57   59 1    
   116   57  180 1    
   117   58  181 1    
   118   58  182 1    
   119   58  183 1    
   120   59   60 am   BACKBONE|DICT|INTERRES
   121   59  184 1    
   122   60   61 2    
   123   60   62 1    
   124   62   63 1    
   125   62   64 1    
   126   62  185 1    
   127   63  186 1    
   128   63  187 1    
   129   63  188 1    
   130   64   65 am   BACKBONE|DICT|INTERRES
   131   64  189 1    
   132   65   66 2    
   133   67   68 2    
   134   67   69 am   BACKBONE|DICT|INTERRES
   135   69   70 1    
   136   69  190 1    
   137   70   71 1    
   138   70   72 1    
   139   70  191 1    
   140   71  192 1    
   141   71  193 1    
   142   71  194 1    
   143   72   73 2    
   144   72   74 am   BACKBONE|DICT|INTERRES
   145   74   75 1    
   146   74  195 1    
   147   75   76 1    
   148   75   77 1    
   149   75  196 1    
   150   76  197 1    
   151   76  198 1    
   152   76  199 1    
   153   77   78 2    
   154   77   79 am   BACKBONE|DICT|INTERRES
   155   79   80 1    
   156   79  200 1    
   157   80   81 1    
   158   80   82 1    
   159   80  201 1    
   160   81  202 1    
   161   81  203 1    
   162   81  204 1    
   163   82   83 2    
   164   82   84 am   BACKBONE|DICT|INTERRES
   165   84   85 1    
   166   84  205 1    
   167   85   86 1    
   168   85   87 1    
   169   85  206 1    
   170   86  207 1    
   171   86  208 1    
   172   86  209 1    
   173   87   88 2    
   174   87   89 am   BACKBONE|DICT|INTERRES
   175   89   90 1    
   176   89  210 1    
   177   90   91 1    
   178   90   92 1    
   179   90  211 1    
   180   91  212 1    
   181   91  213 1    
   182   91  214 1    
   183   92   93 2    
   184   92   94 am   BACKBONE|DICT|INTERRES
   185   94   95 1    
   186   94  215 1    
   187   95   96 1    
   188   95   97 1    
   189   95  216 1    
   190   96  217 1    
   191   96  218 1    
   192   96  219 1    
   193   97   98 2    
   194   97   99 am   BACKBONE|DICT|INTERRES
   195   99  100 1    
   196   99  220 1    
   197  100  101 1    
   198  100  102 1    
   199  100  221 1    
   200  101  222 1    
   201  101  223 1    
   202  101  224 1    
   203  102  103 2    
   204  102  104 am   BACKBONE|DICT|INTERRES
   205  104  105 1    
   206  104  225 1    
   207  105  106 1    
   208  105  107 1    
   209  105  226 1    
   210  106  227 1    
   211  106  228 1    
   212  106  229 1    
   213  107  108 2    
   214  107  109 am   BACKBONE|DICT|INTERRES
   215  109  110 1    
   216  109  230 1    
   217  110  111 1    
   218  110  112 1    
   219  110  231 1    
   220  111  232 1    
   221  111  233 1    
   222  111  234 1    
   223  112  113 2    
   224  112  114 am   BACKBONE|DICT|INTERRES
   225  114  115 1    
   226  114  235 1    
   227  115  116 1    
   228  115  117 1    
   229  115  236 1    
   230  116  237 1    
   231  116  238 1    
   232  116  239 1    
   233  117  118 2    
   234  117  119 am   BACKBONE|DICT|INTERRES
   235  119  120 1    
   236  119  240 1    
   237  120  121 1    
   238  120  124 1    
   239  120  241 1    
   240  121  122 am   BACKBONE|DICT|INTERRES
   241  121  123 2    
   242  122  242 1    
   243  122  243 1    
   244  124  125 1    
   245  124  244 1    
   246  124  245 1    
   247  125  126 1    
   248  126  246 1    
   249  126  247 1    
@<TRIPOS>SUBSTRUCTURE
     1 UNK         1 GROUP             0       ****    0 ROOT    
