@<TRIPOS>MOLECULE
3R540
247   249    1
SMALL
USER_CHARGES


@<TRIPOS>ATOM
      1 CA          1.1173   -9.4012  -51.1804 C.3       0 UNK        -0.1800 
      2 C           2.1521  -10.3599  -50.6079 C.2       0 UNK         0.5000 
      3 O           3.3338  -10.2550  -50.9384 O.2       0 UNK        -0.5000 
      4 N           1.7113  -11.2978  -49.7612 N.am      1 UNK        -0.5000 
      5 CA          2.5545  -12.2843  -49.0802 C.3       1 UNK         0.1400 
      6 C6          1.7096  -13.3576  -48.3528 C.3       23 UNK        -0.0398 
      7 S7          0.7064  -14.3666  -49.4833 S.3       23 UNK        -0.2404 
      8 C8         -0.0497  -15.4861  -48.2691 C.3       23 UNK        -0.0205 
      9 C9         -0.7402  -16.6495  -48.9540 C.ar      23 UNK        -0.0193 
     10 C10        -2.1241  -16.6396  -49.1457 C.ar      23 UNK        -0.1150 
     11 C11        -2.7610  -17.7258  -49.7525 C.ar      23 UNK        -0.0193 
     12 C12        -2.0013  -18.8214  -50.1696 C.ar      23 UNK        -0.1150 
     13 C13        -0.6158  -18.8364  -49.9939 C.ar      23 UNK        -0.0193 
     14 C14         0.0094  -17.7473  -49.3838 C.ar      23 UNK        -0.1150 
     15 C15         0.2040  -20.0318  -50.4543 C.3       23 UNK        -0.0205 
     16 S16         0.6982  -21.0901  -49.0596 S.3       23 UNK        -0.2404 
     17 C17        -0.9303  -21.5769  -48.4052 C.3       23 UNK        -0.0398 
     18 CA         -0.8381  -22.7476  -47.4035 C.3       11 UNK         0.1400 
     19 N          -0.0082  -22.4208  -46.2441 N.am      11 UNK        -0.5000 
     20 C           0.4066  -23.2814  -45.3081 C.2       10 UNK         0.5000 
     21 O           0.1210  -24.4788  -45.3244 O.2       10 UNK        -0.5000 
     22 CA          1.2105  -22.7050  -44.1245 C.3       10 UNK         0.1400 
     23 CB          2.4199  -23.5856  -43.7532 C.3       10 UNK        -0.1800 
     24 N           1.5906  -21.2959  -44.2904 N.am      10 UNK        -0.5000 
     25 C           2.4859  -20.7577  -45.1337 C.2       9 UNK         0.5000 
     26 O           3.1907  -21.4134  -45.9003 O.2       9 UNK        -0.5000 
     27 CA          2.5944  -19.2166  -45.1440 C.3       9 UNK         0.1400 
     28 CB          1.9637  -18.6476  -46.4245 C.3       9 UNK        -0.1800 
     29 N           1.9571  -18.5793  -43.9891 N.am      9 UNK        -0.5000 
     30 C           2.4323  -18.6098  -42.7357 C.2       8 UNK         0.5000 
     31 O           3.5161  -19.1036  -42.4248 O.2       8 UNK        -0.5000 
     32 CA          1.5143  -18.0362  -41.6414 C.3       8 UNK         0.1400 
     33 CB          1.6904  -16.5178  -41.5097 C.3       8 UNK        -0.1800 
     34 N           0.1046  -18.3394  -41.8933 N.am      8 UNK        -0.5000 
     35 C          -0.4441  -19.5562  -41.7710 C.2       7 UNK         0.5000 
     36 O           0.1751  -20.5538  -41.4037 O.2       7 UNK        -0.5000 
     37 CA         -1.9228  -19.6888  -42.1711 C.3       7 UNK         0.1400 
     38 CB         -2.8426  -19.3059  -41.0027 C.3       7 UNK        -0.1800 
     39 N          -2.2521  -18.8692  -43.3373 N.am      7 UNK        -0.5000 
     40 C          -1.8714  -19.1486  -44.5912 C.2       6 UNK         0.5000 
     41 O          -1.2717  -20.1746  -44.9089 O.2       6 UNK        -0.5000 
     42 CA         -2.2161  -18.1078  -45.6703 C.3       6 UNK         0.1400 
     43 CB         -3.5726  -18.4491  -46.3034 C.3       6 UNK        -0.1800 
     44 N          -2.2551  -16.7371  -45.1513 N.am      6 UNK        -0.5000 
     45 C          -1.1905  -16.0573  -44.7057 C.2       5 UNK         0.5000 
     46 O          -0.0409  -16.5049  -44.6914 O.2       5 UNK        -0.5000 
     47 CA         -1.4737  -14.6688  -44.1231 C.3       5 UNK         0.1400 
     48 CB         -1.8348  -14.7802  -42.6295 C.3       5 UNK        -0.1800 
     49 N          -0.3056  -13.8096  -44.2974 N.am      5 UNK        -0.5000 
     50 C          -0.3297  -12.4713  -44.2504 C.2       4 UNK         0.5000 
     51 O          -1.3645  -11.8298  -44.0602 O.2       4 UNK        -0.5000 
     52 CA          0.9855  -11.6952  -44.4866 C.3       4 UNK         0.1400 
     53 CB          1.2355  -10.6422  -43.3872 C.3       4 UNK        -0.1800 
     54 N           2.1834  -12.5153  -44.7056 N.am      4 UNK        -0.5000 
     55 C           2.8295  -13.3046  -43.8338 C.2       3 UNK         0.5000 
     56 O           2.4570  -13.5020  -42.6788 O.2       3 UNK        -0.5000 
     57 CA          4.1041  -14.0080  -44.3469 C.3       3 UNK         0.1400 
     58 CB          3.8021  -15.4794  -44.6696 C.3       3 UNK        -0.1800 
     59 N           4.6689  -13.3783  -45.5432 N.am      3 UNK        -0.5000 
     60 C           5.3355  -12.2142  -45.5654 C.2       2 UNK         0.5000 
     61 O           5.6214  -11.5681  -44.5574 O.2       2 UNK        -0.5000 
     62 CA          5.7101  -11.6674  -46.9588 C.3       2 UNK         0.1400 
     63 CB          7.1122  -12.1436  -47.3675 C.3       2 UNK        -0.1800 
     64 N           4.7451  -12.0573  -47.9938 N.am      2 UNK        -0.5000 
     65 C           3.4835  -11.6093  -48.0531 C.2       1 UNK         0.5000 
     66 O           3.0202  -10.7690  -47.2789 O.2       1 UNK        -0.5000 
     67 C          -2.2526  -23.1836  -46.9861 C.2       11 UNK         0.5000 
     68 O          -2.8344  -24.0446  -47.6451 O.2       11 UNK        -0.5000 
     69 N          -2.7787  -22.5979  -45.9012 N.am      12 UNK        -0.5000 
     70 CA         -4.0700  -22.9726  -45.3225 C.3       12 UNK         0.1400 
     71 CB         -4.5201  -21.8951  -44.3262 C.3       12 UNK        -0.1800 
     72 C          -4.0294  -24.3576  -44.6494 C.2       12 UNK         0.5000 
     73 O          -5.0086  -25.0986  -44.7289 O.2       12 UNK        -0.5000 
     74 N          -2.8898  -24.6904  -44.0260 N.am      13 UNK        -0.5000 
     75 CA         -2.6403  -25.9816  -43.3829 C.3       13 UNK         0.1400 
     76 CB         -1.4517  -25.8512  -42.4173 C.3       13 UNK        -0.1800 
     77 C          -2.3946  -27.0993  -44.4119 C.2       13 UNK         0.5000 
     78 O          -2.9072  -28.2063  -44.2455 O.2       13 UNK        -0.5000 
     79 N          -1.6394  -26.7781  -45.4714 N.am      14 UNK        -0.5000 
     80 CA         -1.3457  -27.6692  -46.5961 C.3       14 UNK         0.1400 
     81 CB         -0.1469  -27.0964  -47.3696 C.3       14 UNK        -0.1800 
     82 C          -2.5389  -27.8768  -47.5517 C.2       14 UNK         0.5000 
     83 O          -2.4948  -28.7932  -48.3727 O.2       14 UNK        -0.5000 
     84 N          -3.5531  -27.0034  -47.4548 N.am      15 UNK        -0.5000 
     85 CA         -4.7294  -26.8790  -48.3260 C.3       15 UNK         0.1400 
     86 CB         -5.5771  -28.1674  -48.3313 C.3       15 UNK        -0.1800 
     87 C          -4.3896  -26.3787  -49.7476 C.2       15 UNK         0.5000 
     88 O          -5.2205  -26.4752  -50.6517 O.2       15 UNK        -0.5000 
     89 N          -3.1931  -25.7975  -49.9091 N.am      16 UNK        -0.5000 
     90 CA         -2.7230  -25.1311  -51.1220 C.3       16 UNK         0.1400 
     91 CB         -1.2101  -24.8933  -51.0114 C.3       16 UNK        -0.1800 
     92 C          -3.4571  -23.8039  -51.3779 C.2       16 UNK         0.5000 
     93 O          -3.5712  -23.3901  -52.5303 O.2       16 UNK        -0.5000 
     94 N          -3.9873  -23.1842  -50.3124 N.am      17 UNK        -0.5000 
     95 CA         -4.7857  -21.9541  -50.3393 C.3       17 UNK         0.1400 
     96 CB         -5.1362  -21.5618  -48.8956 C.3       17 UNK        -0.1800 
     97 C          -6.0594  -22.0270  -51.2084 C.2       17 UNK         0.5000 
     98 O          -6.5576  -20.9857  -51.6334 O.2       17 UNK        -0.5000 
     99 N          -6.5532  -23.2443  -51.4737 N.am      18 UNK        -0.5000 
    100 CA        -7.6676  -23.5048  -52.3840 C.3       18 UNK         0.1400 
    101 CB        -8.2306  -24.9026  -52.0835 C.3       18 UNK        -0.1800 
    102 C         -7.2779  -23.3923  -53.8733 C.2       18 UNK         0.5000 
    103 O         -8.1587  -23.1606  -54.7027 O.2       18 UNK        -0.5000 
    104 N         -5.9887  -23.5766  -54.1911 N.am      19 UNK        -0.5000 
    105 CA        -5.4519  -23.5744  -55.5538 C.3       19 UNK         0.1400 
    106 CB        -4.5888  -24.8325  -55.7419 C.3       19 UNK        -0.1800 
    107 C         -4.6217  -22.3143  -55.8559 C.2       19 UNK         0.5000 
    108 O         -4.5839  -21.8813  -57.0088 O.2       19 UNK        -0.5000 
    109 N         -3.9554  -21.7643  -54.8324 N.am      20 UNK        -0.5000 
    110 CA        -3.0916  -20.5865  -54.9059 C.3       20 UNK         0.1400 
    111 CB        -2.4174  -20.3951  -53.5386 C.3       20 UNK        -0.1800 
    112 C         -3.8355  -19.2983  -55.3087 C.2       20 UNK         0.5000 
    113 O         -5.0306  -19.1562  -55.0400 O.2       20 UNK        -0.5000 
    114 N         -3.0897  -18.3641  -55.9132 N.am      21 UNK        -0.5000 
    115 CA        -3.5702  -17.0277  -56.2748 C.3       21 UNK         0.1400 
    116 CB        -2.6362  -16.4320  -57.3398 C.3       21 UNK        -0.1800 
    117 C         -3.6781  -16.0808  -55.0624 C.2       21 UNK         0.5000 
    118 O         -4.4706  -15.1392  -55.1047 O.2       21 UNK        -0.5000 
    119 N         -2.8836  -16.3490  -54.0151 N.am      22 UNK        -0.5000 
    120 CA        -2.8544  -15.6281  -52.7272 C.3       22 UNK         0.1400 
    121 C         -2.3171  -14.1650  -52.8075 C.2       22 UNK         0.5000 
    122 N         -1.5995  -13.7837  -53.8576 N.am      22 UNK        -0.7600 
    123 O         -2.5300  -13.3655  -51.9001 O.2       22 UNK        -0.5000 
    124 C124       -4.1950  -15.7285  -51.9429 C.3       23 UNK        -0.0398 
    125 S125       -4.7386  -17.4532  -51.6797 S.3       23 UNK        -0.2404 
    126 C126       -4.2697  -17.7264  -49.9443 C.3       23 UNK        -0.0205 
    127 H127        1.3600   -8.3762  -50.9001 H         1 UNK         0.0600 
    128 H128        1.1076   -9.4653  -52.2685 H         1 UNK         0.0600 
    129 H129        0.1134   -9.6244  -50.8182 H         1 UNK         0.0600 
    130 H130        0.7289  -11.3327  -49.5311 H         1 UNK         0.3000 
    131 H131        3.1699  -12.7776  -49.8359 H         1 UNK         0.0600 
    132 H132        1.0441  -12.8960  -47.6204 H         1 UNK         0.0800 
    133 H133        2.3559  -14.0404  -47.7977 H         1 UNK         0.0800 
    134 H134       -0.7573  -14.9278  -47.6544 H         1 UNK         0.0800 
    135 H135        0.7123  -15.8699  -47.5894 H         1 UNK         0.0800 
    136 H136       -2.7047  -15.7897  -48.8158 H         1 UNK         0.1150 
    137 H137       -2.4895  -19.6635  -50.6330 H         1 UNK         0.1150 
    138 H138        1.0804  -17.7571  -49.2381 H         1 UNK         0.1150 
    139 H139       -0.3518  -20.6268  -51.1805 H         1 UNK         0.0800 
    140 H140        1.0999  -19.6812  -50.9684 H         1 UNK         0.0800 
    141 H141       -1.3872  -20.7046  -47.9334 H         1 UNK         0.0800 
    142 H142       -1.5674  -21.8450  -49.2501 H         1 UNK         0.0800 
    143 H143       -0.3737  -23.5967  -47.9081 H         1 UNK         0.0600 
    144 H144        0.2043  -21.4421  -46.1089 H         1 UNK         0.3000 
    145 H145        0.5276  -22.7214  -43.2742 H         1 UNK         0.0600 
    146 H146        2.9705  -23.1647  -42.9119 H         1 UNK         0.0600 
    147 H147        2.0979  -24.5860  -43.4614 H         1 UNK         0.0600 
    148 H148        3.1125  -23.7002  -44.5871 H         1 UNK         0.0600 
    149 H149        1.0607  -20.6497  -43.7223 H         1 UNK         0.3000 
    150 H150        3.6555  -18.9588  -45.1389 H         1 UNK         0.0600 
    151 H151        2.0696  -17.5646  -46.4698 H         1 UNK         0.0600 
    152 H152        0.9010  -18.8830  -46.4891 H         1 UNK         0.0600 
    153 H153        2.4440  -19.0573  -47.3138 H         1 UNK         0.0600 
    154 H154        1.0971  -18.0719  -44.1712 H         1 UNK         0.3000 
    155 H155        1.8011  -18.4941  -40.6922 H         1 UNK         0.0600 
    156 H156        1.1033  -16.1221  -40.6810 H         1 UNK         0.0600 
    157 H157        1.3811  -15.9973  -42.4159 H         1 UNK         0.0600 
    158 H158        2.7327  -16.2580  -41.3211 H         1 UNK         0.0600 
    159 H159       -0.4665  -17.5825  -42.2353 H         1 UNK         0.3000 
    160 H160       -2.1011  -20.7370  -42.4163 H         1 UNK         0.0600 
    161 H161       -2.7230  -18.2595  -40.7190 H         1 UNK         0.0600 
    162 H162       -2.6273  -19.9121  -40.1218 H         1 UNK         0.0600 
    163 H163       -3.8901  -19.4671  -41.2585 H         1 UNK         0.0600 
    164 H164       -2.7730  -18.0218  -43.1693 H         1 UNK         0.3000 
    165 H165       -1.4489  -18.1587  -46.4453 H         1 UNK         0.0600 
    166 H166       -4.3687  -18.4877  -45.5590 H         1 UNK         0.0600 
    167 H167       -3.8578  -17.7098  -47.0497 H         1 UNK         0.0600 
    168 H168       -3.5379  -19.4191  -46.8010 H         1 UNK         0.0600 
    169 H169       -3.1641  -16.2978  -45.1220 H         1 UNK         0.3000 
    170 H170       -2.3154  -14.2373  -44.6692 H         1 UNK         0.0600 
    171 H171       -2.6811  -15.4505  -42.4748 H         1 UNK         0.0600 
    172 H172       -0.9993  -15.1608  -42.0416 H         1 UNK         0.0600 
    173 H173       -2.1154  -13.8117  -42.2158 H         1 UNK         0.0600 
    174 H174        0.5648  -14.2963  -44.4639 H         1 UNK         0.3000 
    175 H175        0.8360  -11.1519  -45.4207 H         1 UNK         0.0600 
    176 H176        2.1468  -10.0770  -43.5836 H         1 UNK         0.0600 
    177 H177        0.4158   -9.9246  -43.3373 H         1 UNK         0.0600 
    178 H178        1.3277  -11.0978  -42.4011 H         1 UNK         0.0600 
    179 H179        2.6136  -12.3889  -45.6099 H         1 UNK         0.3000 
    180 H180        4.8493  -13.9734  -43.5495 H         1 UNK         0.0600 
    181 H181        4.6890  -15.9985  -45.0334 H         1 UNK         0.0600 
    182 H182        3.4657  -16.0081  -43.7793 H         1 UNK         0.0600 
    183 H183        3.0203  -15.5763  -45.4237 H         1 UNK         0.0600 
    184 H184        4.5215  -13.8585  -46.4178 H         1 UNK         0.3000 
    185 H185        5.7236  -10.5771  -46.8954 H         1 UNK         0.0600 
    186 H186        7.4140  -11.7090  -48.3207 H         1 UNK         0.0600 
    187 H187        7.8561  -11.8471  -46.6267 H         1 UNK         0.0600 
    188 H188        7.1587  -13.2292  -47.4628 H         1 UNK         0.0600 
    189 H189        5.0619  -12.7382  -48.6696 H         1 UNK         0.3000 
    190 H190       -2.2447  -21.8731  -45.4323 H         1 UNK         0.3000 
    191 H191       -4.8067  -23.0167  -46.1271 H         1 UNK         0.0600 
    192 H192       -5.5076  -22.1256  -43.9244 H         1 UNK         0.0600 
    193 H193       -3.8357  -21.8159  -43.4827 H         1 UNK         0.0600 
    194 H194       -4.5850  -20.9176  -44.8027 H         1 UNK         0.0600 
    195 H195       -2.1221  -24.0370  -44.0437 H         1 UNK         0.3000 
    196 H196       -3.5220  -26.2525  -42.7980 H         1 UNK         0.0600 
    197 H197       -1.2684  -26.7927  -41.8980 H         1 UNK         0.0600 
    198 H198       -1.6426  -25.0935  -41.6572 H         1 UNK         0.0600 
    199 H199       -0.5320  -25.5807  -42.9366 H         1 UNK         0.0600 
    200 H200       -1.1852  -25.8687  -45.4876 H         1 UNK         0.3000 
    201 H201       -1.0653  -28.6474  -46.2003 H         1 UNK         0.0600 
    202 H202        0.7260  -26.9939  -46.7244 H         1 UNK         0.0600 
    203 H203       -0.3707  -26.1139  -47.7865 H         1 UNK         0.0600 
    204 H204        0.1361  -27.7482  -48.1971 H         1 UNK         0.0600 
    205 H205       -3.4588  -26.2726  -46.7625 H         1 UNK         0.3000 
    206 H206       -5.3389  -26.0930  -47.8777 H         1 UNK         0.0600 
    207 H207       -5.7932  -28.5012  -47.3164 H         1 UNK         0.0600 
    208 H208       -6.5337  -28.0019  -48.8281 H         1 UNK         0.0600 
    209 H209       -5.0779  -28.9825  -48.8555 H         1 UNK         0.0600 
    210 H210       -2.6253  -25.6806  -49.0806 H         1 UNK         0.3000 
    211 H211       -2.9115  -25.7879  -51.9736 H         1 UNK         0.0600 
    212 H212       -0.9641  -24.2369  -50.1770 H         1 UNK         0.0600 
    213 H213       -0.8211  -24.4291  -51.9187 H         1 UNK         0.0600 
    214 H214       -0.6727  -25.8313  -50.8700 H         1 UNK         0.0600 
    215 H215       -3.8269  -23.5992  -49.4013 H         1 UNK         0.3000 
    216 H216       -4.1638  -21.1682  -50.7668 H         1 UNK         0.0600 
    217 H217       -5.7789  -20.6812  -48.8681 H         1 UNK         0.0600 
    218 H218       -4.2403  -21.3240  -48.3233 H         1 UNK         0.0600 
    219 H219       -5.6639  -22.3651  -48.3807 H         1 UNK         0.0600 
    220 H220       -6.0888  -24.0528  -51.0842 H         1 UNK         0.3000 
    221 H221       -8.4547  -22.7726  -52.1914 H         1 UNK         0.0600 
    222 H222       -7.4855  -25.6810  -52.2533 H         1 UNK         0.0600 
    223 H223       -8.5659  -24.9796  -51.0491 H         1 UNK         0.0600 
    224 H224       -9.0882  -25.1242  -52.7201 H         1 UNK         0.0600 
    225 H225       -5.3144  -23.7118  -53.4467 H         1 UNK         0.3000 
    226 H226       -6.2629  -23.6136  -56.2839 H         1 UNK         0.0600 
    227 H227       -4.1747  -24.8762  -56.7500 H         1 UNK         0.0600 
    228 H228       -3.7530  -24.8566  -55.0412 H         1 UNK         0.0600 
    229 H229       -5.1767  -25.7383  -55.5926 H         1 UNK         0.0600 
    230 H230       -3.9929  -22.2286  -53.9306 H         1 UNK         0.3000 
    231 H231       -2.3206  -20.7897  -55.6519 H         1 UNK         0.0600 
    232 H232       -1.7278  -19.5504  -53.5470 H         1 UNK         0.0600 
    233 H233       -1.8462  -21.2775  -53.2495 H         1 UNK         0.0600 
    234 H234       -3.1602  -20.2053  -52.7639 H         1 UNK         0.0600 
    235 H235       -2.1192  -18.5613  -56.1114 H         1 UNK         0.3000 
    236 H236       -4.5671  -17.1209  -56.7111 H         1 UNK         0.0600 
    237 H237       -1.6160  -16.3257  -56.9691 H         1 UNK         0.0600 
    238 H238       -2.6064  -17.0575  -58.2322 H         1 UNK         0.0600 
    239 H239       -2.9777  -15.4432  -57.6494 H         1 UNK         0.0600 
    240 H240       -2.2655  -17.1428  -54.0828 H         1 UNK         0.3000 
    241 H241       -2.1029  -16.1477  -52.1322 H         1 UNK         0.0600 
    242 H242       -1.2494  -12.8398  -53.9015 H         1 UNK         0.3800 
    243 H243       -1.4096  -14.4256  -54.6099 H         1 UNK         0.3800 
    244 H244       -4.9870  -15.1989  -52.4734 H         1 UNK         0.0800 
    245 H245       -4.1112  -15.2373  -50.9725 H         1 UNK         0.0800 
    246 H246       -4.7447  -16.9711  -49.3165 H         1 UNK         0.0800 
    247 H247       -4.6714  -18.6861  -49.6203 H         1 UNK         0.0800 
@<TRIPOS>BOND
     1    1    2 1    
     2    1  127 1    
     3    1  128 1    
     4    1  129 1    
     5    2    3 2    
     6    2    4 am   BACKBONE|DICT|INTERRES
     7    4    5 1    
     8    4  130 1    
     9    5    6 1    
    10    5   65 1    
    11    5  131 1    
    12    6    7 1    
    13    6  132 1    
    14    6  133 1    
    15    7    8 1    
    16    8    9 1    
    17    8  134 1    
    18    8  135 1    
    19    9   10 ar   
    20    9   14 ar   
    21   10   11 ar   
    22   10  136 1    
    23   11   12 ar   
    24   11  126 1    
    25   12   13 ar   
    26   12  137 1    
    27   13   14 ar   
    28   13   15 1    
    29   14  138 1    
    30   15   16 1    
    31   15  139 1    
    32   15  140 1    
    33   16   17 1    
    34   17   18 1    
    35   17  141 1    
    36   17  142 1    
    37   18   19 1    
    38   18   67 1    
    39   18  143 1    
    40   19   20 am   BACKBONE|DICT|INTERRES
    41   19  144 1    
    42   20   21 2    
    43   20   22 1    
    44   22   23 1    
    45   22   24 1    
    46   22  145 1    
    47   23  146 1    
    48   23  147 1    
    49   23  148 1    
    50   24   25 am   BACKBONE|DICT|INTERRES
    51   24  149 1    
    52   25   26 2    
    53   25   27 1    
    54   27   28 1    
    55   27   29 1    
    56   27  150 1    
    57   28  151 1    
    58   28  152 1    
    59   28  153 1    
    60   29   30 am   BACKBONE|DICT|INTERRES
    61   29  154 1    
    62   30   31 2    
    63   30   32 1    
    64   32   33 1    
    65   32   34 1    
    66   32  155 1    
    67   33  156 1    
    68   33  157 1    
    69   33  158 1    
    70   34   35 am   BACKBONE|DICT|INTERRES
    71   34  159 1    
    72   35   36 2    
    73   35   37 1    
    74   37   38 1    
    75   37   39 1    
    76   37  160 1    
    77   38  161 1    
    78   38  162 1    
    79   38  163 1    
    80   39   40 am   BACKBONE|DICT|INTERRES
    81   39  164 1    
    82   40   41 2    
    83   40   42 1    
    84   42   43 1    
    85   42   44 1    
    86   42  165 1    
    87   43  166 1    
    88   43  167 1    
    89   43  168 1    
    90   44   45 am   BACKBONE|DICT|INTERRES
    91   44  169 1    
    92   45   46 2    
    93   45   47 1    
    94   47   48 1    
    95   47   49 1    
    96   47  170 1    
    97   48  171 1    
    98   48  172 1    
    99   48  173 1    
   100   49   50 am   BACKBONE|DICT|INTERRES
   101   49  174 1    
   102   50   51 2    
   103   50   52 1    
   104   52   53 1    
   105   52   54 1    
   106   52  175 1    
   107   53  176 1    
   108   53  177 1    
   109   53  178 1    
   110   54   55 am   BACKBONE|DICT|INTERRES
   111   54  179 1    
   112   55   56 2    
   113   55   57 1    
   114   57   58 1    
   115   57   59 1    
   116   57  180 1    
   117   58  181 1    
   118   58  182 1    
   119   58  183 1    
   120   59   60 am   BACKBONE|DICT|INTERRES
   121   59  184 1    
   122   60   61 2    
   123   60   62 1    
   124   62   63 1    
   125   62   64 1    
   126   62  185 1    
   127   63  186 1    
   128   63  187 1    
   129   63  188 1    
   130   64   65 am   BACKBONE|DICT|INTERRES
   131   64  189 1    
   132   65   66 2    
   133   67   68 2    
   134   67   69 am   BACKBONE|DICT|INTERRES
   135   69   70 1    
   136   69  190 1    
   137   70   71 1    
   138   70   72 1    
   139   70  191 1    
   140   71  192 1    
   141   71  193 1    
   142   71  194 1    
   143   72   73 2    
   144   72   74 am   BACKBONE|DICT|INTERRES
   145   74   75 1    
   146   74  195 1    
   147   75   76 1    
   148   75   77 1    
   149   75  196 1    
   150   76  197 1    
   151   76  198 1    
   152   76  199 1    
   153   77   78 2    
   154   77   79 am   BACKBONE|DICT|INTERRES
   155   79   80 1    
   156   79  200 1    
   157   80   81 1    
   158   80   82 1    
   159   80  201 1    
   160   81  202 1    
   161   81  203 1    
   162   81  204 1    
   163   82   83 2    
   164   82   84 am   BACKBONE|DICT|INTERRES
   165   84   85 1    
   166   84  205 1    
   167   85   86 1    
   168   85   87 1    
   169   85  206 1    
   170   86  207 1    
   171   86  208 1    
   172   86  209 1    
   173   87   88 2    
   174   87   89 am   BACKBONE|DICT|INTERRES
   175   89   90 1    
   176   89  210 1    
   177   90   91 1    
   178   90   92 1    
   179   90  211 1    
   180   91  212 1    
   181   91  213 1    
   182   91  214 1    
   183   92   93 2    
   184   92   94 am   BACKBONE|DICT|INTERRES
   185   94   95 1    
   186   94  215 1    
   187   95   96 1    
   188   95   97 1    
   189   95  216 1    
   190   96  217 1    
   191   96  218 1    
   192   96  219 1    
   193   97   98 2    
   194   97   99 am   BACKBONE|DICT|INTERRES
   195   99  100 1    
   196   99  220 1    
   197  100  101 1    
   198  100  102 1    
   199  100  221 1    
   200  101  222 1    
   201  101  223 1    
   202  101  224 1    
   203  102  103 2    
   204  102  104 am   BACKBONE|DICT|INTERRES
   205  104  105 1    
   206  104  225 1    
   207  105  106 1    
   208  105  107 1    
   209  105  226 1    
   210  106  227 1    
   211  106  228 1    
   212  106  229 1    
   213  107  108 2    
   214  107  109 am   BACKBONE|DICT|INTERRES
   215  109  110 1    
   216  109  230 1    
   217  110  111 1    
   218  110  112 1    
   219  110  231 1    
   220  111  232 1    
   221  111  233 1    
   222  111  234 1    
   223  112  113 2    
   224  112  114 am   BACKBONE|DICT|INTERRES
   225  114  115 1    
   226  114  235 1    
   227  115  116 1    
   228  115  117 1    
   229  115  236 1    
   230  116  237 1    
   231  116  238 1    
   232  116  239 1    
   233  117  118 2    
   234  117  119 am   BACKBONE|DICT|INTERRES
   235  119  120 1    
   236  119  240 1    
   237  120  121 1    
   238  120  124 1    
   239  120  241 1    
   240  121  122 am   BACKBONE|DICT|INTERRES
   241  121  123 2    
   242  122  242 1    
   243  122  243 1    
   244  124  125 1    
   245  124  244 1    
   246  124  245 1    
   247  125  126 1    
   248  126  246 1    
   249  126  247 1    
@<TRIPOS>SUBSTRUCTURE
     1 UNK         1 GROUP             0       ****    0 ROOT    
