@<TRIPOS>MOLECULE
3R540
247   249    1
SMALL
USER_CHARGES


@<TRIPOS>ATOM
      1 CA         -5.2686  -15.9472  -50.7673 C.3       0 UNK        -0.1800 
      2 C          -4.4258  -15.8452  -49.5064 C.2       0 UNK         0.5000 
      3 O          -4.9531  -16.0271  -48.4095 O.2       0 UNK        -0.5000 
      4 N          -3.1373  -15.5172  -49.6630 N.am      1 UNK        -0.5000 
      5 CA         -2.1107  -15.2534  -48.6387 C.3       1 UNK         0.1400 
      6 C6         -1.7477  -16.4812  -47.7625 C.3       23 UNK        -0.0398 
      7 S7         -0.8277  -17.7532  -48.6896 S.3       23 UNK        -0.2404 
      8 C8          0.8941  -17.1824  -48.4550 C.3       23 UNK        -0.0205 
      9 C9          1.9264  -18.1574  -49.0133 C.ar      23 UNK        -0.0193 
     10 C10         1.8409  -18.5944  -50.3382 C.ar      23 UNK        -0.1150 
     11 C11         2.7616  -19.5088  -50.8547 C.ar      23 UNK        -0.0193 
     12 C12         3.8137  -19.9498  -50.0472 C.ar      23 UNK        -0.1150 
     13 C13         3.9413  -19.4914  -48.7310 C.ar      23 UNK        -0.0193 
     14 C14         2.9878  -18.6039  -48.2169 C.ar      23 UNK        -0.1150 
     15 C15         5.1346  -19.9266  -47.8857 C.3       23 UNK        -0.0205 
     16 S16         4.6656  -20.8646  -46.3960 S.3       23 UNK        -0.2404 
     17 C17         3.7771  -22.2852  -47.1134 C.3       23 UNK        -0.0398 
     18 CA          4.0069  -23.6256  -46.3689 C.3       11 UNK         0.1400 
     19 N           3.7617  -23.5107  -44.9256 N.am      11 UNK        -0.5000 
     20 C           4.1285  -24.4129  -44.0047 C.2       10 UNK         0.5000 
     21 O           4.7575  -25.4387  -44.2654 O.2       10 UNK        -0.5000 
     22 CA          3.6980  -24.1343  -42.5532 C.3       10 UNK         0.1400 
     23 CB          4.7852  -23.3468  -41.8060 C.3       10 UNK        -0.1800 
     24 N           2.4330  -23.3987  -42.4941 N.am      10 UNK        -0.5000 
     25 C           1.2242  -23.9682  -42.6127 C.2       9 UNK         0.5000 
     26 O           1.0513  -25.1818  -42.7250 O.2       9 UNK        -0.5000 
     27 CA          0.0017  -23.0285  -42.6486 C.3       9 UNK         0.1400 
     28 CB         -0.5106  -22.7518  -41.2276 C.3       9 UNK        -0.1800 
     29 N           0.2734  -21.7540  -43.3101 N.am      9 UNK        -0.5000 
     30 C           0.6212  -21.6109  -44.5951 C.2       8 UNK         0.5000 
     31 O           0.6686  -22.5424  -45.3990 O.2       8 UNK        -0.5000 
     32 CA          1.0060  -20.1966  -45.0603 C.3       8 UNK         0.1400 
     33 CB         -0.2250  -19.5206  -45.6590 C.3       8 UNK        -0.1800 
     34 N           1.5482  -19.3280  -44.0138 N.am      8 UNK        -0.5000 
     35 C           2.5892  -19.5904  -43.2111 C.2       7 UNK         0.5000 
     36 O           3.2076  -20.6545  -43.2125 O.2       7 UNK        -0.5000 
     37 CA          2.9681  -18.4895  -42.2081 C.3       7 UNK         0.1400 
     38 CB          3.9150  -17.4703  -42.8601 C.3       7 UNK        -0.1800 
     39 N           1.7802  -17.7988  -41.7028 N.am      7 UNK        -0.5000 
     40 C           1.0086  -18.2511  -40.7041 C.2       6 UNK         0.5000 
     41 O           1.2559  -19.2696  -40.0580 O.2       6 UNK        -0.5000 
     42 CA         -0.2624  -17.4394  -40.3815 C.3       6 UNK         0.1400 
     43 CB          0.0566  -16.3067  -39.3941 C.3       6 UNK        -0.1800 
     44 N          -0.8959  -16.8724  -41.5732 N.am      6 UNK        -0.5000 
     45 C          -1.5036  -17.5937  -42.5261 C.2       5 UNK         0.5000 
     46 O          -1.6596  -18.8128  -42.4571 O.2       5 UNK        -0.5000 
     47 CA         -1.9879  -16.8335  -43.7806 C.3       5 UNK         0.1400 
     48 CB         -3.4856  -16.5169  -43.6740 C.3       5 UNK        -0.1800 
     49 N          -1.2377  -15.6063  -44.0850 N.am      5 UNK        -0.5000 
     50 C           0.0863  -15.5497  -44.3117 C.2       4 UNK         0.5000 
     51 O           0.8185  -16.5361  -44.2369 O.2       4 UNK        -0.5000 
     52 CA          0.7189  -14.1929  -44.6788 C.3       4 UNK         0.1400 
     53 CB          1.4465  -14.2762  -46.0307 C.3       4 UNK        -0.1800 
     54 N          -0.2447  -13.0927  -44.7171 N.am      4 UNK        -0.5000 
     55 C          -0.6435  -12.3953  -43.6434 C.2       3 UNK         0.5000 
     56 O          -0.2226  -12.6037  -42.5051 O.2       3 UNK        -0.5000 
     57 CA         -1.7052  -11.2975  -43.8655 C.3       3 UNK         0.1400 
     58 CB         -1.0361   -9.9195  -43.9796 C.3       3 UNK        -0.1800 
     59 N          -2.5485  -11.5148  -45.0439 N.am      3 UNK        -0.5000 
     60 C          -3.3823  -12.5497  -45.2116 C.2       2 UNK         0.5000 
     61 O          -3.5411  -13.4307  -44.3674 O.2       2 UNK        -0.5000 
     62 CA         -4.1315  -12.6540  -46.5558 C.3       2 UNK         0.1400 
     63 CB         -4.1178  -11.3527  -47.3885 C.3       2 UNK        -0.1800 
     64 N          -3.6392  -13.7757  -47.3608 N.am      2 UNK        -0.5000 
     65 C          -2.3816  -14.0066  -47.7626 C.2       1 UNK         0.5000 
     66 O          -1.4369  -13.2694  -47.4764 O.2       1 UNK        -0.5000 
     67 C           3.1265  -24.7095  -47.0316 C.2       11 UNK         0.5000 
     68 O           3.4695  -25.1788  -48.1168 O.2       11 UNK        -0.5000 
     69 N           1.9868  -25.0293  -46.3959 N.am      12 UNK        -0.5000 
     70 CA          0.8366  -25.7665  -46.9350 C.3       12 UNK         0.1400 
     71 CB          1.2120  -27.2108  -47.3263 C.3       12 UNK        -0.1800 
     72 C           0.1356  -24.9816  -48.0678 C.2       12 UNK         0.5000 
     73 O          -0.4004  -25.5760  -49.0041 O.2       12 UNK        -0.5000 
     74 N           0.1636  -23.6483  -47.9494 N.am      13 UNK        -0.5000 
     75 CA         -0.3915  -22.6872  -48.8996 C.3       13 UNK         0.1400 
     76 CB          0.5760  -21.5055  -48.9986 C.3       13 UNK        -0.1800 
     77 C          -1.7956  -22.2029  -48.4963 C.2       13 UNK         0.5000 
     78 O          -2.4977  -21.6453  -49.3422 O.2       13 UNK        -0.5000 
     79 N          -2.1779  -22.4514  -47.2327 N.am      14 UNK        -0.5000 
     80 CA         -3.4933  -22.2179  -46.6321 C.3       14 UNK         0.1400 
     81 CB         -4.4924  -23.2758  -47.1542 C.3       14 UNK        -0.1800 
     82 C          -3.9764  -20.7588  -46.7876 C.2       14 UNK         0.5000 
     83 O          -3.2873  -19.8421  -46.3428 O.2       14 UNK        -0.5000 
     84 N          -5.1482  -20.5668  -47.3957 N.am      15 UNK        -0.5000 
     85 CA         -5.7339  -19.2799  -47.7361 C.3       15 UNK         0.1400 
     86 CB         -6.3745  -18.6347  -46.4925 C.3       15 UNK        -0.1800 
     87 C          -6.7658  -19.5119  -48.8476 C.2       15 UNK         0.5000 
     88 O          -7.1794  -20.6547  -49.0693 O.2       15 UNK        -0.5000 
     89 N          -7.1681  -18.4208  -49.5100 N.am      16 UNK        -0.5000 
     90 CA         -8.0932  -18.3799  -50.6479 C.3       16 UNK         0.1400 
     91 CB         -9.5241  -18.7557  -50.1993 C.3       16 UNK        -0.1800 
     92 C          -7.5709  -19.1910  -51.8569 C.2       16 UNK         0.5000 
     93 O          -6.3689  -19.1558  -52.1295 O.2       16 UNK        -0.5000 
     94 N          -8.4775  -19.8667  -52.5794 N.am      17 UNK        -0.5000 
     95 CA         -8.2853  -20.6698  -53.7977 C.3       17 UNK         0.1400 
     96 CB         -7.2797  -21.8171  -53.5741 C.3       17 UNK        -0.1800 
     97 C          -7.9223  -19.8379  -55.0444 C.2       17 UNK         0.5000 
     98 O          -8.5637  -19.9891  -56.0849 O.2       17 UNK        -0.5000 
     99 N          -6.9274  -18.9612  -54.9062 N.am      18 UNK        -0.5000 
    100 CA        -6.4492  -18.0022  -55.8929 C.3       18 UNK         0.1400 
    101 CB        -5.6256  -18.7197  -56.9865 C.3       18 UNK        -0.1800 
    102 C         -5.6761  -16.9294  -55.1084 C.2       18 UNK         0.5000 
    103 O         -6.2260  -16.3687  -54.1584 O.2       18 UNK        -0.5000 
    104 N         -4.4049  -16.6993  -55.4634 N.am      19 UNK        -0.5000 
    105 CA        -3.4497  -15.9316  -54.6569 C.3       19 UNK         0.1400 
    106 CB        -2.2404  -15.5645  -55.5303 C.3       19 UNK        -0.1800 
    107 C         -2.9925  -16.6976  -53.3962 C.2       19 UNK         0.5000 
    108 O         -2.5155  -16.0713  -52.4492 O.2       19 UNK        -0.5000 
    109 N         -3.1640  -18.0248  -53.4180 N.am      20 UNK        -0.5000 
    110 CA        -2.8870  -19.0227  -52.3915 C.3       20 UNK         0.1400 
    111 CB        -1.3910  -19.0228  -52.0308 C.3       20 UNK        -0.1800 
    112 C         -3.2856  -20.3861  -52.9828 C.2       20 UNK         0.5000 
    113 O         -3.5882  -20.4661  -54.1792 O.2       20 UNK        -0.5000 
    114 N         -3.2011  -21.4556  -52.1785 N.am      21 UNK        -0.5000 
    115 CA        -3.3401  -22.8400  -52.6523 C.3       21 UNK         0.1400 
    116 CB        -3.5717  -23.7781  -51.4574 C.3       21 UNK        -0.1800 
    117 C         -2.1422  -23.3189  -53.5061 C.2       21 UNK         0.5000 
    118 O         -2.2185  -24.3952  -54.0997 O.2       21 UNK        -0.5000 
    119 N         -1.0716  -22.5131  -53.5671 N.am      22 UNK        -0.5000 
    120 CA         0.1139  -22.6971  -54.4216 C.3       22 UNK         0.1400 
    121 C         -0.1780  -22.6812  -55.9527 C.2       22 UNK         0.5000 
    122 N         -1.2964  -22.1300  -56.4119 N.am      22 UNK        -0.7600 
    123 O          0.6285  -23.1748  -56.7360 O.2       22 UNK        -0.5000 
    124 C124        1.2253  -21.6598  -54.1017 C.3       23 UNK        -0.0398 
    125 S125        1.6649  -21.5731  -52.3339 S.3       23 UNK        -0.2404 
    126 C126        2.6093  -20.0158  -52.2818 C.3       23 UNK        -0.0205 
    127 H127       -6.3119  -15.7197  -50.5511 H         1 UNK         0.0600 
    128 H128       -5.2088  -16.9518  -51.1831 H         1 UNK         0.0600 
    129 H129       -4.9319  -15.2399  -51.5250 H         1 UNK         0.0600 
    130 H130       -2.7944  -15.4582  -50.6189 H         1 UNK         0.3000 
    131 H131       -1.2196  -14.9950  -49.2132 H         1 UNK         0.0600 
    132 H132       -1.1366  -16.1903  -46.9087 H         1 UNK         0.0800 
    133 H133       -2.6437  -16.9386  -47.3401 H         1 UNK         0.0800 
    134 H134        1.0222  -16.2173  -48.9462 H         1 UNK         0.0800 
    135 H135        1.0744  -17.0171  -47.3922 H         1 UNK         0.0800 
    136 H136        1.0380  -18.2377  -50.9633 H         1 UNK         0.1150 
    137 H137        4.5362  -20.6458  -50.4496 H         1 UNK         0.1150 
    138 H138        3.0811  -18.2558  -47.1976 H         1 UNK         0.1150 
    139 H139        5.8298  -20.5269  -48.4747 H         1 UNK         0.0800 
    140 H140        5.6874  -19.0383  -47.5777 H         1 UNK         0.0800 
    141 H141        2.7186  -22.0298  -47.1259 H         1 UNK         0.0800 
    142 H142        4.0719  -22.3905  -48.1593 H         1 UNK         0.0800 
    143 H143        5.0496  -23.9182  -46.5091 H         1 UNK         0.0600 
    144 H144        3.2999  -22.6671  -44.6143 H         1 UNK         0.3000 
    145 H145        3.5745  -25.0955  -42.0494 H         1 UNK         0.0600 
    146 H146        4.4923  -23.1505  -40.7746 H         1 UNK         0.0600 
    147 H147        4.9945  -22.3894  -42.2839 H         1 UNK         0.0600 
    148 H148        5.7201  -23.9078  -41.7778 H         1 UNK         0.0600 
    149 H149        2.5047  -22.3866  -42.4709 H         1 UNK         0.3000 
    150 H150       -0.7887  -23.5333  -43.2079 H         1 UNK         0.0600 
    151 H151       -0.7457  -23.6817  -40.7080 H         1 UNK         0.0600 
    152 H152       -1.4203  -22.1510  -41.2470 H         1 UNK         0.0600 
    153 H153        0.2299  -22.2180  -40.6301 H         1 UNK         0.0600 
    154 H154        0.2349  -20.9243  -42.7348 H         1 UNK         0.3000 
    155 H155        1.7667  -20.2831  -45.8356 H         1 UNK         0.0600 
    156 H156       -0.5663  -20.0289  -46.5585 H         1 UNK         0.0600 
    157 H157       -0.0259  -18.4849  -45.9243 H         1 UNK         0.0600 
    158 H158       -1.0558  -19.5393  -44.9562 H         1 UNK         0.0600 
    159 H159        1.1469  -18.3961  -43.9646 H         1 UNK         0.3000 
    160 H160        3.4959  -18.9584  -41.3748 H         1 UNK         0.0600 
    161 H161        3.4506  -16.9691  -43.7101 H         1 UNK         0.0600 
    162 H162        4.8200  -17.9588  -43.2238 H         1 UNK         0.0600 
    163 H163        4.2220  -16.7055  -42.1466 H         1 UNK         0.0600 
    164 H164        1.4699  -16.9956  -42.2338 H         1 UNK         0.3000 
    165 H165       -0.9760  -18.1155  -39.9056 H         1 UNK         0.0600 
    166 H166       -0.8480  -15.7753  -39.0979 H         1 UNK         0.0600 
    167 H167        0.5144  -16.6988  -38.4850 H         1 UNK         0.0600 
    168 H168        0.7479  -15.5801  -39.8231 H         1 UNK         0.0600 
    169 H169       -0.8180  -15.8743  -41.7035 H         1 UNK         0.3000 
    170 H170       -1.8654  -17.4970  -44.6349 H         1 UNK         0.0600 
    171 H171       -4.0617  -17.4171  -43.4555 H         1 UNK         0.0600 
    172 H172       -3.6890  -15.7941  -42.8831 H         1 UNK         0.0600 
    173 H173       -3.8689  -16.1126  -44.6112 H         1 UNK         0.0600 
    174 H174       -1.7830  -14.7550  -44.1508 H         1 UNK         0.3000 
    175 H175        1.4704  -13.9791  -43.9160 H         1 UNK         0.0600 
    176 H176        0.7688  -14.5372  -46.8421 H         1 UNK         0.0600 
    177 H177        1.9194  -13.3269  -46.2826 H         1 UNK         0.0600 
    178 H178        2.2330  -15.0317  -46.0072 H         1 UNK         0.0600 
    179 H179       -0.6598  -12.8892  -45.6213 H         1 UNK         0.3000 
    180 H180       -2.3547  -11.2911  -42.9877 H         1 UNK         0.0600 
    181 H181       -1.7785   -9.1244  -44.0510 H         1 UNK         0.0600 
    182 H182       -0.3906   -9.8577  -44.8566 H         1 UNK         0.0600 
    183 H183       -0.4208   -9.7096  -43.1035 H         1 UNK         0.0600 
    184 H184       -2.4483  -10.8533  -45.8001 H         1 UNK         0.3000 
    185 H185       -5.1702  -12.8791  -46.3100 H         1 UNK         0.0600 
    186 H186       -4.7415  -11.4566  -48.2764 H         1 UNK         0.0600 
    187 H187       -4.5158  -10.5141  -46.8156 H         1 UNK         0.0600 
    188 H188       -3.1157  -11.0836  -47.7241 H         1 UNK         0.0600 
    189 H189       -4.3290  -14.4806  -47.6108 H         1 UNK         0.3000 
    190 H190        1.8100  -24.5498  -45.5228 H         1 UNK         0.3000 
    191 H191        0.1137  -25.8275  -46.1202 H         1 UNK         0.0600 
    192 H192        0.3199  -27.7943  -47.5561 H         1 UNK         0.0600 
    193 H193        1.7304  -27.7176  -46.5124 H         1 UNK         0.0600 
    194 H194        1.8542  -27.2428  -48.2066 H         1 UNK         0.0600 
    195 H195        0.5686  -23.2569  -47.1031 H         1 UNK         0.3000 
    196 H196       -0.4698  -23.1436  -49.8885 H         1 UNK         0.0600 
    197 H197        0.1940  -20.7471  -49.6797 H         1 UNK         0.0600 
    198 H198        1.5456  -21.8274  -49.3765 H         1 UNK         0.0600 
    199 H199        0.7440  -21.0248  -48.0380 H         1 UNK         0.0600 
    200 H200       -1.4918  -22.8693  -46.6210 H         1 UNK         0.3000 
    201 H201       -3.3726  -22.3794  -45.5600 H         1 UNK         0.0600 
    202 H202       -4.6612  -23.1845  -48.2280 H         1 UNK         0.0600 
    203 H203       -5.4578  -23.1926  -46.6532 H         1 UNK         0.0600 
    204 H204       -4.1236  -24.2842  -46.9659 H         1 UNK         0.0600 
    205 H205       -5.6541  -21.3558  -47.7797 H         1 UNK         0.3000 
    206 H206       -4.9462  -18.6343  -48.1280 H         1 UNK         0.0600 
    207 H207       -5.6341  -18.4528  -45.7133 H         1 UNK         0.0600 
    208 H208       -6.8221  -17.6710  -46.7377 H         1 UNK         0.0600 
    209 H209       -7.1578  -19.2662  -46.0718 H         1 UNK         0.0600 
    210 H210       -6.7554  -17.5350  -49.2507 H         1 UNK         0.3000 
    211 H211       -8.1196  -17.3412  -50.9792 H         1 UNK         0.0600 
    212 H212       -9.6078  -19.8115  -49.9386 H         1 UNK         0.0600 
    213 H213      -10.2549  -18.5450  -50.9807 H         1 UNK         0.0600 
    214 H214       -9.8226  -18.1765  -49.3253 H         1 UNK         0.0600 
    215 H215       -9.4380  -19.8026  -52.2726 H         1 UNK         0.3000 
    216 H216       -9.2548  -21.1277  -54.0003 H         1 UNK         0.0600 
    217 H217       -7.5616  -22.4280  -52.7166 H         1 UNK         0.0600 
    218 H218       -6.2684  -21.4481  -53.4037 H         1 UNK         0.0600 
    219 H219       -7.2406  -22.4731  -54.4444 H         1 UNK         0.0600 
    220 H220       -6.5031  -18.8865  -53.9834 H         1 UNK         0.3000 
    221 H221       -7.3064  -17.5101  -56.3563 H         1 UNK         0.0600 
    222 H222       -5.2523  -18.0148  -57.7301 H         1 UNK         0.0600 
    223 H223       -4.7735  -19.2562  -56.5666 H         1 UNK         0.0600 
    224 H224       -6.2350  -19.4468  -57.5231 H         1 UNK         0.0600 
    225 H225       -4.0304  -17.1875  -56.2642 H         1 UNK         0.3000 
    226 H226       -3.9299  -15.0076  -54.3276 H         1 UNK         0.0600 
    227 H227       -2.5431  -14.9757  -56.3964 H         1 UNK         0.0600 
    228 H228       -1.5205  -14.9680  -54.9683 H         1 UNK         0.0600 
    229 H229       -1.7198  -16.4524  -55.8913 H         1 UNK         0.0600 
    230 H230       -3.5609  -18.4464  -54.2491 H         1 UNK         0.3000 
    231 H231       -3.4962  -18.8175  -51.5094 H         1 UNK         0.0600 
    232 H232       -1.1698  -19.7672  -51.2668 H         1 UNK         0.0600 
    233 H233       -1.0857  -18.0588  -51.6292 H         1 UNK         0.0600 
    234 H234       -0.7636  -19.2363  -52.8968 H         1 UNK         0.0600 
    235 H235       -2.9552  -21.3420  -51.1973 H         1 UNK         0.3000 
    236 H236       -4.2265  -22.8902  -53.2877 H         1 UNK         0.0600 
    237 H237       -2.6761  -23.8810  -50.8453 H         1 UNK         0.0600 
    238 H238       -4.3799  -23.4188  -50.8202 H         1 UNK         0.0600 
    239 H239       -3.8456  -24.7776  -51.7970 H         1 UNK         0.0600 
    240 H240       -1.0863  -21.6690  -53.0166 H         1 UNK         0.3000 
    241 H241        0.5096  -23.6886  -54.1948 H         1 UNK         0.0600 
    242 H242       -1.4757  -22.1273  -57.4036 H         1 UNK         0.3800 
    243 H243       -1.9682  -21.7202  -55.7799 H         1 UNK         0.3800 
    244 H244        0.9101  -20.6666  -54.4267 H         1 UNK         0.0800 
    245 H245        2.1340  -21.8911  -54.6605 H         1 UNK         0.0800 
    246 H246        3.5901  -20.1715  -52.7334 H         1 UNK         0.0800 
    247 H247        2.1071  -19.2594  -52.8868 H         1 UNK         0.0800 
@<TRIPOS>BOND
     1    1    2 1    
     2    1  127 1    
     3    1  128 1    
     4    1  129 1    
     5    2    3 2    
     6    2    4 am   BACKBONE|DICT|INTERRES
     7    4    5 1    
     8    4  130 1    
     9    5    6 1    
    10    5   65 1    
    11    5  131 1    
    12    6    7 1    
    13    6  132 1    
    14    6  133 1    
    15    7    8 1    
    16    8    9 1    
    17    8  134 1    
    18    8  135 1    
    19    9   10 ar   
    20    9   14 ar   
    21   10   11 ar   
    22   10  136 1    
    23   11   12 ar   
    24   11  126 1    
    25   12   13 ar   
    26   12  137 1    
    27   13   14 ar   
    28   13   15 1    
    29   14  138 1    
    30   15   16 1    
    31   15  139 1    
    32   15  140 1    
    33   16   17 1    
    34   17   18 1    
    35   17  141 1    
    36   17  142 1    
    37   18   19 1    
    38   18   67 1    
    39   18  143 1    
    40   19   20 am   BACKBONE|DICT|INTERRES
    41   19  144 1    
    42   20   21 2    
    43   20   22 1    
    44   22   23 1    
    45   22   24 1    
    46   22  145 1    
    47   23  146 1    
    48   23  147 1    
    49   23  148 1    
    50   24   25 am   BACKBONE|DICT|INTERRES
    51   24  149 1    
    52   25   26 2    
    53   25   27 1    
    54   27   28 1    
    55   27   29 1    
    56   27  150 1    
    57   28  151 1    
    58   28  152 1    
    59   28  153 1    
    60   29   30 am   BACKBONE|DICT|INTERRES
    61   29  154 1    
    62   30   31 2    
    63   30   32 1    
    64   32   33 1    
    65   32   34 1    
    66   32  155 1    
    67   33  156 1    
    68   33  157 1    
    69   33  158 1    
    70   34   35 am   BACKBONE|DICT|INTERRES
    71   34  159 1    
    72   35   36 2    
    73   35   37 1    
    74   37   38 1    
    75   37   39 1    
    76   37  160 1    
    77   38  161 1    
    78   38  162 1    
    79   38  163 1    
    80   39   40 am   BACKBONE|DICT|INTERRES
    81   39  164 1    
    82   40   41 2    
    83   40   42 1    
    84   42   43 1    
    85   42   44 1    
    86   42  165 1    
    87   43  166 1    
    88   43  167 1    
    89   43  168 1    
    90   44   45 am   BACKBONE|DICT|INTERRES
    91   44  169 1    
    92   45   46 2    
    93   45   47 1    
    94   47   48 1    
    95   47   49 1    
    96   47  170 1    
    97   48  171 1    
    98   48  172 1    
    99   48  173 1    
   100   49   50 am   BACKBONE|DICT|INTERRES
   101   49  174 1    
   102   50   51 2    
   103   50   52 1    
   104   52   53 1    
   105   52   54 1    
   106   52  175 1    
   107   53  176 1    
   108   53  177 1    
   109   53  178 1    
   110   54   55 am   BACKBONE|DICT|INTERRES
   111   54  179 1    
   112   55   56 2    
   113   55   57 1    
   114   57   58 1    
   115   57   59 1    
   116   57  180 1    
   117   58  181 1    
   118   58  182 1    
   119   58  183 1    
   120   59   60 am   BACKBONE|DICT|INTERRES
   121   59  184 1    
   122   60   61 2    
   123   60   62 1    
   124   62   63 1    
   125   62   64 1    
   126   62  185 1    
   127   63  186 1    
   128   63  187 1    
   129   63  188 1    
   130   64   65 am   BACKBONE|DICT|INTERRES
   131   64  189 1    
   132   65   66 2    
   133   67   68 2    
   134   67   69 am   BACKBONE|DICT|INTERRES
   135   69   70 1    
   136   69  190 1    
   137   70   71 1    
   138   70   72 1    
   139   70  191 1    
   140   71  192 1    
   141   71  193 1    
   142   71  194 1    
   143   72   73 2    
   144   72   74 am   BACKBONE|DICT|INTERRES
   145   74   75 1    
   146   74  195 1    
   147   75   76 1    
   148   75   77 1    
   149   75  196 1    
   150   76  197 1    
   151   76  198 1    
   152   76  199 1    
   153   77   78 2    
   154   77   79 am   BACKBONE|DICT|INTERRES
   155   79   80 1    
   156   79  200 1    
   157   80   81 1    
   158   80   82 1    
   159   80  201 1    
   160   81  202 1    
   161   81  203 1    
   162   81  204 1    
   163   82   83 2    
   164   82   84 am   BACKBONE|DICT|INTERRES
   165   84   85 1    
   166   84  205 1    
   167   85   86 1    
   168   85   87 1    
   169   85  206 1    
   170   86  207 1    
   171   86  208 1    
   172   86  209 1    
   173   87   88 2    
   174   87   89 am   BACKBONE|DICT|INTERRES
   175   89   90 1    
   176   89  210 1    
   177   90   91 1    
   178   90   92 1    
   179   90  211 1    
   180   91  212 1    
   181   91  213 1    
   182   91  214 1    
   183   92   93 2    
   184   92   94 am   BACKBONE|DICT|INTERRES
   185   94   95 1    
   186   94  215 1    
   187   95   96 1    
   188   95   97 1    
   189   95  216 1    
   190   96  217 1    
   191   96  218 1    
   192   96  219 1    
   193   97   98 2    
   194   97   99 am   BACKBONE|DICT|INTERRES
   195   99  100 1    
   196   99  220 1    
   197  100  101 1    
   198  100  102 1    
   199  100  221 1    
   200  101  222 1    
   201  101  223 1    
   202  101  224 1    
   203  102  103 2    
   204  102  104 am   BACKBONE|DICT|INTERRES
   205  104  105 1    
   206  104  225 1    
   207  105  106 1    
   208  105  107 1    
   209  105  226 1    
   210  106  227 1    
   211  106  228 1    
   212  106  229 1    
   213  107  108 2    
   214  107  109 am   BACKBONE|DICT|INTERRES
   215  109  110 1    
   216  109  230 1    
   217  110  111 1    
   218  110  112 1    
   219  110  231 1    
   220  111  232 1    
   221  111  233 1    
   222  111  234 1    
   223  112  113 2    
   224  112  114 am   BACKBONE|DICT|INTERRES
   225  114  115 1    
   226  114  235 1    
   227  115  116 1    
   228  115  117 1    
   229  115  236 1    
   230  116  237 1    
   231  116  238 1    
   232  116  239 1    
   233  117  118 2    
   234  117  119 am   BACKBONE|DICT|INTERRES
   235  119  120 1    
   236  119  240 1    
   237  120  121 1    
   238  120  124 1    
   239  120  241 1    
   240  121  122 am   BACKBONE|DICT|INTERRES
   241  121  123 2    
   242  122  242 1    
   243  122  243 1    
   244  124  125 1    
   245  124  244 1    
   246  124  245 1    
   247  125  126 1    
   248  126  246 1    
   249  126  247 1    
@<TRIPOS>SUBSTRUCTURE
     1 UNK         1 GROUP             0       ****    0 ROOT    
