@<TRIPOS>MOLECULE
3R540
247   249    1
SMALL
USER_CHARGES


@<TRIPOS>ATOM
      1 CA          2.7718  -11.2587  -50.1528 C.3       0 UNK        -0.1800 
      2 C           2.1126  -12.1301  -49.0933 C.2       0 UNK         0.5000 
      3 O           0.9209  -11.9731  -48.8389 O.2       0 UNK        -0.5000 
      4 N           2.8978  -13.0214  -48.4701 N.am      1 UNK        -0.5000 
      5 CA          2.5432  -14.0394  -47.4626 C.3       1 UNK         0.1400 
      6 C6          1.7817  -15.2656  -48.0474 C.3       23 UNK        -0.0398 
      7 S7         -0.0140  -15.0704  -48.3344 S.3       23 UNK        -0.2404 
      8 C8         -0.0916  -14.9148  -50.1508 C.3       23 UNK        -0.0205 
      9 C9         -0.2261  -16.2303  -50.9183 C.ar      23 UNK        -0.0193 
     10 C10        -0.9141  -16.2218  -52.1367 C.ar      23 UNK        -0.1150 
     11 C11        -1.0289  -17.3833  -52.9045 C.ar      23 UNK        -0.0193 
     12 C12        -0.4488  -18.5673  -52.4479 C.ar      23 UNK        -0.1150 
     13 C13         0.2489  -18.5939  -51.2383 C.ar      23 UNK        -0.0193 
     14 C14         0.3529  -17.4277  -50.4742 C.ar      23 UNK        -0.1150 
     15 C15         0.9115  -19.8835  -50.7859 C.3       23 UNK        -0.0205 
     16 S16        -0.3095  -21.0471  -50.1133 S.3       23 UNK        -0.2404 
     17 C17        -0.3560  -20.6020  -48.3466 C.3       23 UNK        -0.0398 
     18 CA         -0.5822  -21.8512  -47.4611 C.3       11 UNK         0.1400 
     19 N          -0.0086  -21.6835  -46.1232 N.am      11 UNK        -0.5000 
     20 C           0.1824  -22.6827  -45.2511 C.2       10 UNK         0.5000 
     21 O          -0.0984  -23.8564  -45.4896 O.2       10 UNK        -0.5000 
     22 CA          0.7345  -22.3045  -43.8649 C.3       10 UNK         0.1400 
     23 CB          2.2539  -22.0891  -43.9200 C.3       10 UNK        -0.1800 
     24 N           0.0832  -21.1197  -43.3048 N.am      10 UNK        -0.5000 
     25 C          -1.2196  -21.0523  -42.9956 C.2       9 UNK         0.5000 
     26 O          -1.9962  -21.9996  -43.1077 O.2       9 UNK        -0.5000 
     27 CA         -1.7617  -19.6895  -42.5327 C.3       9 UNK         0.1400 
     28 CB         -1.4630  -19.4605  -41.0439 C.3       9 UNK        -0.1800 
     29 N          -1.2404  -18.5740  -43.3227 N.am      9 UNK        -0.5000 
     30 C          -1.4409  -18.4116  -44.6391 C.2       8 UNK         0.5000 
     31 O          -2.1137  -19.1760  -45.3305 O.2       8 UNK        -0.5000 
     32 CA         -0.7214  -17.2266  -45.3056 C.3       8 UNK         0.1400 
     33 CB         -1.4172  -15.9007  -44.9572 C.3       8 UNK        -0.1800 
     34 N           0.6931  -17.1618  -44.9358 N.am      8 UNK        -0.5000 
     35 C           1.5952  -18.1190  -45.1987 C.2       7 UNK         0.5000 
     36 O           1.3455  -19.1332  -45.8481 O.2       7 UNK        -0.5000 
     37 CA          2.9949  -17.9478  -44.5819 C.3       7 UNK         0.1400 
     38 CB          3.9146  -17.0942  -45.4647 C.3       7 UNK        -0.1800 
     39 N           2.9348  -17.3786  -43.2373 N.am      7 UNK        -0.5000 
     40 C           2.4434  -18.0324  -42.1769 C.2       6 UNK         0.5000 
     41 O           2.0227  -19.1887  -42.2174 O.2       6 UNK        -0.5000 
     42 CA          2.3736  -17.2435  -40.8639 C.3       6 UNK         0.1400 
     43 CB          3.7521  -17.1688  -40.1906 C.3       6 UNK        -0.1800 
     44 N           1.8517  -15.8919  -41.0564 N.am      6 UNK        -0.5000 
     45 C           0.5679  -15.6040  -41.3174 C.2       5 UNK         0.5000 
     46 O          -0.2675  -16.4689  -41.5798 O.2       5 UNK        -0.5000 
     47 CA          0.1322  -14.1187  -41.2819 C.3       5 UNK         0.1400 
     48 CB         -1.2570  -13.9375  -40.6395 C.3       5 UNK        -0.1800 
     49 N           1.1093  -13.2167  -40.6604 N.am      5 UNK        -0.5000 
     50 C           1.6354  -13.2733  -39.4257 C.2       4 UNK         0.5000 
     51 O           1.2101  -14.0095  -38.5346 O.2       4 UNK        -0.5000 
     52 CA          2.8888  -12.4010  -39.1672 C.3       4 UNK         0.1400 
     53 CB          3.9048  -13.1082  -38.2465 C.3       4 UNK        -0.1800 
     54 N           3.5559  -11.9349  -40.3942 N.am      4 UNK        -0.5000 
     55 C           4.0540  -12.6798  -41.3947 C.2       3 UNK         0.5000 
     56 O           4.0742  -13.9127  -41.3955 O.2       3 UNK        -0.5000 
     57 CA          4.5086  -11.9050  -42.6483 C.3       3 UNK         0.1400 
     58 CB          5.7916  -12.5090  -43.2433 C.3       3 UNK        -0.1800 
     59 N           3.4799  -11.8667  -43.6951 N.am      3 UNK        -0.5000 
     60 C           2.2100  -11.4496  -43.5717 C.2       2 UNK         0.5000 
     61 O           1.7263  -11.0337  -42.5192 O.2       2 UNK        -0.5000 
     62 CA          1.3144  -11.4832  -44.8249 C.3       2 UNK         0.1400 
     63 CB          0.9493  -10.0560  -45.2631 C.3       2 UNK        -0.1800 
     64 N           1.9022  -12.1792  -45.9683 N.am      2 UNK        -0.5000 
     65 C           1.9683  -13.5067  -46.1232 C.2       1 UNK         0.5000 
     66 O           1.6455  -14.2993  -45.2362 O.2       1 UNK        -0.5000 
     67 C          -2.0691  -22.2729  -47.4182 C.2       11 UNK         0.5000 
     68 O          -2.5053  -23.0584  -48.2630 O.2       11 UNK        -0.5000 
     69 N          -2.8157  -21.7733  -46.4231 N.am      12 UNK        -0.5000 
     70 CA         -4.1915  -22.1764  -46.1356 C.3       12 UNK         0.1400 
     71 CB         -4.8388  -21.1720  -45.1717 C.3       12 UNK        -0.1800 
     72 C          -4.2756  -23.6106  -45.5851 C.2       12 UNK         0.5000 
     73 O          -5.1328  -24.3723  -46.0304 O.2       12 UNK        -0.5000 
     74 N          -3.3660  -23.9734  -44.6688 N.am      13 UNK        -0.5000 
     75 CA         -3.2419  -25.3201  -44.1010 C.3       13 UNK         0.1400 
     76 CB         -2.2443  -25.2995  -42.9334 C.3       13 UNK        -0.1800 
     77 C          -2.8373  -26.3769  -45.1467 C.2       13 UNK         0.5000 
     78 O          -3.3480  -27.4967  -45.1109 O.2       13 UNK        -0.5000 
     79 N          -1.9651  -25.9862  -46.0860 N.am      14 UNK        -0.5000 
     80 CA         -1.5768  -26.7735  -47.2591 C.3       14 UNK         0.1400 
     81 CB         -0.3037  -26.1593  -47.8631 C.3       14 UNK        -0.1800 
     82 C          -2.6825  -26.8643  -48.3328 C.2       14 UNK         0.5000 
     83 O          -2.5572  -27.6700  -49.2550 O.2       14 UNK        -0.5000 
     84 N          -3.7196  -26.0223  -48.2097 N.am      15 UNK        -0.5000 
     85 CA         -4.8761  -25.8502  -49.0947 C.3       15 UNK         0.1400 
     86 CB         -5.6837  -27.1564  -49.2313 C.3       15 UNK        -0.1800 
     87 C          -4.5434  -25.2245  -50.4633 C.2       15 UNK         0.5000 
     88 O          -5.4340  -25.1170  -51.3045 O.2       15 UNK        -0.5000 
     89 N          -3.3003  -24.7705  -50.6622 N.am      16 UNK        -0.5000 
     90 CA         -2.8436  -24.1115  -51.8848 C.3       16 UNK         0.1400 
     91 CB         -1.3095  -24.0861  -51.9061 C.3       16 UNK        -0.1800 
     92 C          -3.4438  -22.7043  -52.0513 C.2       16 UNK         0.5000 
     93 O          -3.7678  -22.3129  -53.1735 O.2       16 UNK        -0.5000 
     94 N          -3.6427  -21.9895  -50.9343 N.am      17 UNK        -0.5000 
     95 CA         -4.3450  -20.7042  -50.9188 C.3       17 UNK         0.1400 
     96 CB         -4.0660  -19.9649  -49.6033 C.3       17 UNK        -0.1800 
     97 C          -5.8600  -20.8703  -51.1401 C.2       17 UNK         0.5000 
     98 O          -6.4722  -20.0237  -51.7900 O.2       17 UNK        -0.5000 
     99 N          -6.4288  -21.9714  -50.6262 N.am      18 UNK        -0.5000 
    100 CA        -7.8390  -22.3347  -50.7872 C.3       18 UNK         0.1400 
    101 CB        -8.2060  -23.4329  -49.7767 C.3       18 UNK        -0.1800 
    102 C         -8.1650  -22.7744  -52.2267 C.2       18 UNK         0.5000 
    103 O         -9.2012  -22.3838  -52.7647 O.2       18 UNK        -0.5000 
    104 N         -7.2525  -23.5443  -52.8359 N.am      19 UNK        -0.5000 
    105 CA        -7.2970  -23.9609  -54.2394 C.3       19 UNK         0.1400 
    106 CB        -6.3065  -25.1185  -54.4415 C.3       19 UNK        -0.1800 
    107 C         -6.9863  -22.8193  -55.2290 C.2       19 UNK         0.5000 
    108 O         -7.2631  -22.9700  -56.4195 O.2       19 UNK        -0.5000 
    109 N         -6.4155  -21.7164  -54.7213 N.am      20 UNK        -0.5000 
    110 CA        -5.9656  -20.5231  -55.4386 C.3       20 UNK         0.1400 
    111 CB        -7.1539  -19.7753  -56.0781 C.3       20 UNK        -0.1800 
    112 C         -4.8390  -20.8523  -56.4357 C.2       20 UNK         0.5000 
    113 O         -4.9541  -20.5665  -57.6295 O.2       20 UNK        -0.5000 
    114 N         -3.7565  -21.4467  -55.9120 N.am      21 UNK        -0.5000 
    115 CA        -2.5664  -21.8940  -56.6477 C.3       21 UNK         0.1400 
    116 CB        -1.5881  -22.5419  -55.6551 C.3       21 UNK        -0.1800 
    117 C         -1.8503  -20.8025  -57.4735 C.2       21 UNK         0.5000 
    118 O         -1.1340  -21.1349  -58.4190 O.2       21 UNK        -0.5000 
    119 N         -2.0717  -19.5298  -57.1223 N.am      22 UNK        -0.5000 
    120 CA        -1.6472  -18.3523  -57.8963 C.3       22 UNK         0.1400 
    121 C         -2.4267  -18.1436  -59.2304 C.2       22 UNK         0.5000 
    122 N         -3.5564  -18.8022  -59.4642 N.am      22 UNK        -0.7600 
    123 O         -1.9913  -17.3674  -60.0766 O.2       22 UNK        -0.5000 
    124 C124       -1.6915  -17.0596  -57.0423 C.3       23 UNK        -0.0398 
    125 S125       -0.5738  -17.1223  -55.6025 S.3       23 UNK        -0.2404 
    126 C126       -1.7543  -17.3560  -54.2387 C.3       23 UNK        -0.0205 
    127 H127        3.8314  -11.4883  -50.2679 H         1 UNK         0.0600 
    128 H128        2.6789  -10.2063  -49.8845 H         1 UNK         0.0600 
    129 H129        2.2851  -11.4099  -51.1164 H         1 UNK         0.0600 
    130 H130        3.8729  -13.0389  -48.7361 H         1 UNK         0.3000 
    131 H131        3.5206  -14.4256  -47.1715 H         1 UNK         0.0600 
    132 H132        2.2645  -15.5816  -48.9726 H         1 UNK         0.0800 
    133 H133        1.8928  -16.1121  -47.3715 H         1 UNK         0.0800 
    134 H134        0.7876  -14.3836  -50.5155 H         1 UNK         0.0800 
    135 H135       -0.9452  -14.2743  -50.3779 H         1 UNK         0.0800 
    136 H136       -1.3501  -15.3014  -52.4997 H         1 UNK         0.1150 
    137 H137       -0.5263  -19.4672  -53.0424 H         1 UNK         0.1150 
    138 H138        0.8977  -17.4596  -49.5429 H         1 UNK         0.1150 
    139 H139        1.7031  -19.6889  -50.0612 H         1 UNK         0.0800 
    140 H140        1.3990  -20.3515  -51.6424 H         1 UNK         0.0800 
    141 H141       -1.1028  -19.8279  -48.1640 H         1 UNK         0.0800 
    142 H142        0.6040  -20.1500  -48.0999 H         1 UNK         0.0800 
    143 H143       -0.0365  -22.6828  -47.9125 H         1 UNK         0.0600 
    144 H144        0.2856  -20.7445  -45.8682 H         1 UNK         0.3000 
    145 H145        0.5375  -23.1403  -43.1906 H         1 UNK         0.0600 
    146 H146        2.7596  -22.9760  -44.3035 H         1 UNK         0.0600 
    147 H147        2.6593  -21.8864  -42.9285 H         1 UNK         0.0600 
    148 H148        2.5205  -21.2539  -44.5673 H         1 UNK         0.0600 
    149 H149        0.6722  -20.3105  -43.1326 H         1 UNK         0.3000 
    150 H150       -2.8458  -19.7053  -42.6607 H         1 UNK         0.0600 
    151 H151       -0.3920  -19.3830  -40.8545 H         1 UNK         0.0600 
    152 H152       -1.8467  -20.2813  -40.4368 H         1 UNK         0.0600 
    153 H153       -1.9324  -18.5443  -40.6853 H         1 UNK         0.0600 
    154 H154       -0.7063  -17.8742  -42.8144 H         1 UNK         0.3000 
    155 H155       -0.7765  -17.3686  -46.3869 H         1 UNK         0.0600 
    156 H156       -0.9526  -15.0606  -45.4719 H         1 UNK         0.0600 
    157 H157       -1.3874  -15.6919  -43.8883 H         1 UNK         0.0600 
    158 H158       -2.4653  -15.9227  -45.2575 H         1 UNK         0.0600 
    159 H159        0.9969  -16.3275  -44.4517 H         1 UNK         0.3000 
    160 H160        3.4392  -18.9427  -44.5101 H         1 UNK         0.0600 
    161 H161        3.6186  -16.0475  -45.4566 H         1 UNK         0.0600 
    162 H162        3.9038  -17.4404  -46.4990 H         1 UNK         0.0600 
    163 H163        4.9461  -17.1464  -45.1161 H         1 UNK         0.0600 
    164 H164        3.2399  -16.4227  -43.1211 H         1 UNK         0.3000 
    165 H165        1.6980  -17.7761  -40.1910 H         1 UNK         0.0600 
    166 H166        4.1534  -18.1670  -40.0110 H         1 UNK         0.0600 
    167 H167        4.4742  -16.6291  -40.8046 H         1 UNK         0.0600 
    168 H168        3.6911  -16.6637  -39.2264 H         1 UNK         0.0600 
    169 H169        2.5101  -15.1301  -40.9314 H         1 UNK         0.3000 
    170 H170        0.0580  -13.8072  -42.3248 H         1 UNK         0.0600 
    171 H171       -1.5582  -12.8900  -40.6412 H         1 UNK         0.0600 
    172 H172       -1.2745  -14.2909  -39.6082 H         1 UNK         0.0600 
    173 H173       -2.0187  -14.4931  -41.1878 H         1 UNK         0.0600 
    174 H174        1.5011  -12.5190  -41.2863 H         1 UNK         0.3000 
    175 H175        2.5347  -11.5078  -38.6510 H         1 UNK         0.0600 
    176 H176        4.2497  -14.0507  -38.6730 H         1 UNK         0.0600 
    177 H177        3.4655  -13.3316  -37.2736 H         1 UNK         0.0600 
    178 H178        4.7785  -12.4813  -38.0685 H         1 UNK         0.0600 
    179 H179        3.5241  -10.9341  -40.5352 H         1 UNK         0.3000 
    180 H180        4.7262  -10.8755  -42.3577 H         1 UNK         0.0600 
    181 H181        5.6255  -13.5192  -43.6201 H         1 UNK         0.0600 
    182 H182        6.5813  -12.5645  -42.4929 H         1 UNK         0.0600 
    183 H183        6.1691  -11.9021  -44.0664 H         1 UNK         0.0600 
    184 H184        3.7637  -12.2013  -44.6033 H         1 UNK         0.3000 
    185 H185        0.3928  -11.9989  -44.5466 H         1 UNK         0.0600 
    186 H186        0.4574   -9.5101  -44.4568 H         1 UNK         0.0600 
    187 H187        1.8326   -9.4865  -45.5547 H         1 UNK         0.0600 
    188 H188        0.2626  -10.0678  -46.1100 H         1 UNK         0.0600 
    189 H189        2.1768  -11.6047  -46.7518 H         1 UNK         0.3000 
    190 H190       -2.4119  -21.0667  -45.8156 H         1 UNK         0.3000 
    191 H191       -4.7557  -22.1537  -47.0696 H         1 UNK         0.0600 
    192 H192       -4.8382  -20.1668  -45.5938 H         1 UNK         0.0600 
    193 H193       -5.8763  -21.4395  -44.9679 H         1 UNK         0.0600 
    194 H194       -4.3159  -21.1325  -44.2164 H         1 UNK         0.0600 
    195 H195       -2.7292  -23.2691  -44.3044 H         1 UNK         0.3000 
    196 H196       -4.2192  -25.6048  -43.7058 H         1 UNK         0.0600 
    197 H197       -2.1523  -26.2872  -42.4801 H         1 UNK         0.0600 
    198 H198       -2.5672  -24.6118  -42.1517 H         1 UNK         0.0600 
    199 H199       -1.2499  -24.9930  -43.2582 H         1 UNK         0.0600 
    200 H200       -1.5209  -25.0775  -45.9845 H         1 UNK         0.3000 
    201 H201       -1.3487  -27.7904  -46.9337 H         1 UNK         0.0600 
    202 H202        0.0469  -26.7401  -48.7171 H         1 UNK         0.0600 
    203 H203        0.5064  -26.1340  -47.1340 H         1 UNK         0.0600 
    204 H204       -0.4755  -25.1392  -48.2080 H         1 UNK         0.0600 
    205 H205       -3.7132  -25.4013  -47.4107 H         1 UNK         0.3000 
    206 H206       -5.5200  -25.1258  -48.5952 H         1 UNK         0.0600 
    207 H207       -5.9238  -27.5748  -48.2539 H         1 UNK         0.0600 
    208 H208       -6.6278  -26.9792  -49.7478 H         1 UNK         0.0600 
    209 H209       -5.1420  -27.9132  -49.7988 H         1 UNK         0.0600 
    210 H210       -2.6491  -24.8134  -49.8909 H         1 UNK         0.3000 
    211 H211       -3.1779  -24.7035  -52.7393 H         1 UNK         0.0600 
    212 H212       -0.9069  -25.0894  -52.0451 H         1 UNK         0.0600 
    213 H213       -0.9314  -23.4672  -52.7208 H         1 UNK         0.0600 
    214 H214       -0.9017  -23.6969  -50.9743 H         1 UNK         0.0600 
    215 H215       -3.3203  -22.3641  -50.0484 H         1 UNK         0.3000 
    216 H216       -3.9565  -20.0893  -51.7339 H         1 UNK         0.0600 
    217 H217       -4.3746  -20.5471  -48.7364 H         1 UNK         0.0600 
    218 H218       -4.6012  -19.0153  -49.5678 H         1 UNK         0.0600 
    219 H219       -3.0067  -19.7371  -49.5019 H         1 UNK         0.0600 
    220 H220       -5.8429  -22.6277  -50.1344 H         1 UNK         0.3000 
    221 H221       -8.4440  -21.4536  -50.5623 H         1 UNK         0.0600 
    222 H222       -7.6530  -24.3546  -49.9571 H         1 UNK         0.0600 
    223 H223       -8.0029  -23.1137  -48.7543 H         1 UNK         0.0600 
    224 H224       -9.2679  -23.6743  -49.8364 H         1 UNK         0.0600 
    225 H225       -6.4722  -23.9021  -52.2906 H         1 UNK         0.3000 
    226 H226       -8.3025  -24.3249  -54.4598 H         1 UNK         0.0600 
    227 H227       -6.5439  -25.9596  -53.7897 H         1 UNK         0.0600 
    228 H228       -6.3342  -25.4856  -55.4682 H         1 UNK         0.0600 
    229 H229       -5.2821  -24.8092  -54.2301 H         1 UNK         0.0600 
    230 H230       -6.2070  -21.7274  -53.7329 H         1 UNK         0.3000 
    231 H231       -5.5307  -19.8617  -54.6877 H         1 UNK         0.0600 
    232 H232       -7.6258  -20.3564  -56.8708 H         1 UNK         0.0600 
    233 H233       -6.8275  -18.8318  -56.5170 H         1 UNK         0.0600 
    234 H234       -7.9161  -19.5415  -55.3346 H         1 UNK         0.0600 
    235 H235       -3.7717  -21.6791  -54.9205 H         1 UNK         0.3000 
    236 H236       -2.8943  -22.6604  -57.3526 H         1 UNK         0.0600 
    237 H237       -1.2760  -21.8372  -54.8831 H         1 UNK         0.0600 
    238 H238       -2.0410  -23.4018  -55.1612 H         1 UNK         0.0600 
    239 H239       -0.6892  -22.8968  -56.1609 H         1 UNK         0.0600 
    240 H240       -2.6748  -19.3555  -56.3347 H         1 UNK         0.3000 
    241 H241       -0.6074  -18.5160  -58.1861 H         1 UNK         0.0600 
    242 H242       -3.9500  -19.4443  -58.7808 H         1 UNK         0.3800 
    243 H243       -4.0402  -18.6541  -60.3355 H         1 UNK         0.3800 
    244 H244       -1.3858  -16.1990  -57.6401 H         1 UNK         0.0800 
    245 H245       -2.7113  -16.8495  -56.7154 H         1 UNK         0.0800 
    246 H246       -2.4925  -16.5525  -54.2500 H         1 UNK         0.0800 
    247 H247       -2.3035  -18.2879  -54.3799 H         1 UNK         0.0800 
@<TRIPOS>BOND
     1    1    2 1    
     2    1  127 1    
     3    1  128 1    
     4    1  129 1    
     5    2    3 2    
     6    2    4 am   BACKBONE|DICT|INTERRES
     7    4    5 1    
     8    4  130 1    
     9    5    6 1    
    10    5   65 1    
    11    5  131 1    
    12    6    7 1    
    13    6  132 1    
    14    6  133 1    
    15    7    8 1    
    16    8    9 1    
    17    8  134 1    
    18    8  135 1    
    19    9   10 ar   
    20    9   14 ar   
    21   10   11 ar   
    22   10  136 1    
    23   11   12 ar   
    24   11  126 1    
    25   12   13 ar   
    26   12  137 1    
    27   13   14 ar   
    28   13   15 1    
    29   14  138 1    
    30   15   16 1    
    31   15  139 1    
    32   15  140 1    
    33   16   17 1    
    34   17   18 1    
    35   17  141 1    
    36   17  142 1    
    37   18   19 1    
    38   18   67 1    
    39   18  143 1    
    40   19   20 am   BACKBONE|DICT|INTERRES
    41   19  144 1    
    42   20   21 2    
    43   20   22 1    
    44   22   23 1    
    45   22   24 1    
    46   22  145 1    
    47   23  146 1    
    48   23  147 1    
    49   23  148 1    
    50   24   25 am   BACKBONE|DICT|INTERRES
    51   24  149 1    
    52   25   26 2    
    53   25   27 1    
    54   27   28 1    
    55   27   29 1    
    56   27  150 1    
    57   28  151 1    
    58   28  152 1    
    59   28  153 1    
    60   29   30 am   BACKBONE|DICT|INTERRES
    61   29  154 1    
    62   30   31 2    
    63   30   32 1    
    64   32   33 1    
    65   32   34 1    
    66   32  155 1    
    67   33  156 1    
    68   33  157 1    
    69   33  158 1    
    70   34   35 am   BACKBONE|DICT|INTERRES
    71   34  159 1    
    72   35   36 2    
    73   35   37 1    
    74   37   38 1    
    75   37   39 1    
    76   37  160 1    
    77   38  161 1    
    78   38  162 1    
    79   38  163 1    
    80   39   40 am   BACKBONE|DICT|INTERRES
    81   39  164 1    
    82   40   41 2    
    83   40   42 1    
    84   42   43 1    
    85   42   44 1    
    86   42  165 1    
    87   43  166 1    
    88   43  167 1    
    89   43  168 1    
    90   44   45 am   BACKBONE|DICT|INTERRES
    91   44  169 1    
    92   45   46 2    
    93   45   47 1    
    94   47   48 1    
    95   47   49 1    
    96   47  170 1    
    97   48  171 1    
    98   48  172 1    
    99   48  173 1    
   100   49   50 am   BACKBONE|DICT|INTERRES
   101   49  174 1    
   102   50   51 2    
   103   50   52 1    
   104   52   53 1    
   105   52   54 1    
   106   52  175 1    
   107   53  176 1    
   108   53  177 1    
   109   53  178 1    
   110   54   55 am   BACKBONE|DICT|INTERRES
   111   54  179 1    
   112   55   56 2    
   113   55   57 1    
   114   57   58 1    
   115   57   59 1    
   116   57  180 1    
   117   58  181 1    
   118   58  182 1    
   119   58  183 1    
   120   59   60 am   BACKBONE|DICT|INTERRES
   121   59  184 1    
   122   60   61 2    
   123   60   62 1    
   124   62   63 1    
   125   62   64 1    
   126   62  185 1    
   127   63  186 1    
   128   63  187 1    
   129   63  188 1    
   130   64   65 am   BACKBONE|DICT|INTERRES
   131   64  189 1    
   132   65   66 2    
   133   67   68 2    
   134   67   69 am   BACKBONE|DICT|INTERRES
   135   69   70 1    
   136   69  190 1    
   137   70   71 1    
   138   70   72 1    
   139   70  191 1    
   140   71  192 1    
   141   71  193 1    
   142   71  194 1    
   143   72   73 2    
   144   72   74 am   BACKBONE|DICT|INTERRES
   145   74   75 1    
   146   74  195 1    
   147   75   76 1    
   148   75   77 1    
   149   75  196 1    
   150   76  197 1    
   151   76  198 1    
   152   76  199 1    
   153   77   78 2    
   154   77   79 am   BACKBONE|DICT|INTERRES
   155   79   80 1    
   156   79  200 1    
   157   80   81 1    
   158   80   82 1    
   159   80  201 1    
   160   81  202 1    
   161   81  203 1    
   162   81  204 1    
   163   82   83 2    
   164   82   84 am   BACKBONE|DICT|INTERRES
   165   84   85 1    
   166   84  205 1    
   167   85   86 1    
   168   85   87 1    
   169   85  206 1    
   170   86  207 1    
   171   86  208 1    
   172   86  209 1    
   173   87   88 2    
   174   87   89 am   BACKBONE|DICT|INTERRES
   175   89   90 1    
   176   89  210 1    
   177   90   91 1    
   178   90   92 1    
   179   90  211 1    
   180   91  212 1    
   181   91  213 1    
   182   91  214 1    
   183   92   93 2    
   184   92   94 am   BACKBONE|DICT|INTERRES
   185   94   95 1    
   186   94  215 1    
   187   95   96 1    
   188   95   97 1    
   189   95  216 1    
   190   96  217 1    
   191   96  218 1    
   192   96  219 1    
   193   97   98 2    
   194   97   99 am   BACKBONE|DICT|INTERRES
   195   99  100 1    
   196   99  220 1    
   197  100  101 1    
   198  100  102 1    
   199  100  221 1    
   200  101  222 1    
   201  101  223 1    
   202  101  224 1    
   203  102  103 2    
   204  102  104 am   BACKBONE|DICT|INTERRES
   205  104  105 1    
   206  104  225 1    
   207  105  106 1    
   208  105  107 1    
   209  105  226 1    
   210  106  227 1    
   211  106  228 1    
   212  106  229 1    
   213  107  108 2    
   214  107  109 am   BACKBONE|DICT|INTERRES
   215  109  110 1    
   216  109  230 1    
   217  110  111 1    
   218  110  112 1    
   219  110  231 1    
   220  111  232 1    
   221  111  233 1    
   222  111  234 1    
   223  112  113 2    
   224  112  114 am   BACKBONE|DICT|INTERRES
   225  114  115 1    
   226  114  235 1    
   227  115  116 1    
   228  115  117 1    
   229  115  236 1    
   230  116  237 1    
   231  116  238 1    
   232  116  239 1    
   233  117  118 2    
   234  117  119 am   BACKBONE|DICT|INTERRES
   235  119  120 1    
   236  119  240 1    
   237  120  121 1    
   238  120  124 1    
   239  120  241 1    
   240  121  122 am   BACKBONE|DICT|INTERRES
   241  121  123 2    
   242  122  242 1    
   243  122  243 1    
   244  124  125 1    
   245  124  244 1    
   246  124  245 1    
   247  125  126 1    
   248  126  246 1    
   249  126  247 1    
@<TRIPOS>SUBSTRUCTURE
     1 UNK         1 GROUP             0       ****    0 ROOT    
