@<TRIPOS>MOLECULE
3R540
247   249    1
SMALL
USER_CHARGES


@<TRIPOS>ATOM
      1 CA         -5.7938  -11.0473  -47.3200 C.3       0 UNK        -0.1800 
      2 C          -4.2874  -11.0035  -47.5333 C.2       0 UNK         0.5000 
      3 O          -3.7429   -9.9440  -47.8438 O.2       0 UNK        -0.5000 
      4 N          -3.6150  -12.1495  -47.3668 N.am      1 UNK        -0.5000 
      5 CA         -2.1620  -12.2995  -47.5293 C.3       1 UNK         0.1400 
      6 C6         -1.7517  -13.7791  -47.7242 C.3       23 UNK        -0.0398 
      7 S7         -2.4310  -14.5120  -49.2530 S.3       23 UNK        -0.2404 
      8 C8         -3.8898  -15.4012  -48.6301 C.3       23 UNK        -0.0205 
      9 C9         -4.2395  -16.5822  -49.5207 C.ar      23 UNK        -0.0193 
     10 C10        -5.0139  -16.4080  -50.6712 C.ar      23 UNK        -0.1150 
     11 C11        -5.3553  -17.5068  -51.4675 C.ar      23 UNK        -0.0193 
     12 C12        -4.9297  -18.7850  -51.0936 C.ar      23 UNK        -0.1150 
     13 C13        -4.1450  -18.9699  -49.9525 C.ar      23 UNK        -0.0193 
     14 C14        -3.8009  -17.8621  -49.1764 C.ar      23 UNK        -0.1150 
     15 C15        -3.6720  -20.3624  -49.5631 C.3       23 UNK        -0.0205 
     16 S16        -4.8695  -21.2050  -48.4856 S.3       23 UNK        -0.2404 
     17 C17        -4.3573  -20.6594  -46.8187 C.3       23 UNK        -0.0398 
     18 CA         -3.4797  -21.6759  -46.0394 C.3       11 UNK         0.1400 
     19 N          -2.9585  -21.0613  -44.8074 N.am      11 UNK        -0.5000 
     20 C          -2.2844  -21.6584  -43.8111 C.2       10 UNK         0.5000 
     21 O          -2.0480  -22.8653  -43.7671 O.2       10 UNK        -0.5000 
     22 CA         -1.8047  -20.7369  -42.6772 C.3       10 UNK         0.1400 
     23 CB         -0.8981  -21.4446  -41.6536 C.3       10 UNK        -0.1800 
     24 N          -1.0903  -19.6055  -43.2581 N.am      10 UNK        -0.5000 
     25 C          -1.3024  -18.3182  -42.9604 C.2       9 UNK         0.5000 
     26 O          -2.0971  -17.9378  -42.1000 O.2       9 UNK        -0.5000 
     27 CA         -0.5166  -17.2707  -43.7729 C.3       9 UNK         0.1400 
     28 CB          0.7165  -16.7886  -42.9967 C.3       9 UNK        -0.1800 
     29 N          -0.1016  -17.7388  -45.0978 N.am      9 UNK        -0.5000 
     30 C          -0.9440  -17.9933  -46.1081 C.2       8 UNK         0.5000 
     31 O          -2.1668  -17.9048  -46.0069 O.2       8 UNK        -0.5000 
     32 CA         -0.3258  -18.4311  -47.4442 C.3       8 UNK         0.1400 
     33 CB          0.2524  -17.2203  -48.1897 C.3       8 UNK        -0.1800 
     34 N           0.7356  -19.4093  -47.2422 N.am      8 UNK        -0.5000 
     35 C           0.6681  -20.7076  -47.5643 C.2       7 UNK         0.5000 
     36 O          -0.3054  -21.2421  -48.0988 O.2       7 UNK        -0.5000 
     37 CA          1.9178  -21.5556  -47.2530 C.3       7 UNK         0.1400 
     38 CB          2.8362  -21.6067  -48.4843 C.3       7 UNK        -0.1800 
     39 N           2.6947  -21.0812  -46.1050 N.am      7 UNK        -0.5000 
     40 C           2.2293  -20.9437  -44.8554 C.2       6 UNK         0.5000 
     41 O           1.0897  -21.2522  -44.5121 O.2       6 UNK        -0.5000 
     42 CA          3.1718  -20.2858  -43.8285 C.3       6 UNK         0.1400 
     43 CB          3.9571  -21.3597  -43.0617 C.3       6 UNK        -0.1800 
     44 N           4.1131  -19.3021  -44.3837 N.am      6 UNK        -0.5000 
     45 C           3.7852  -18.2357  -45.1266 C.2       5 UNK         0.5000 
     46 O           2.6439  -18.0167  -45.5424 O.2       5 UNK        -0.5000 
     47 CA          4.9288  -17.2734  -45.5023 C.3       5 UNK         0.1400 
     48 CB          5.6707  -17.7914  -46.7439 C.3       5 UNK        -0.1800 
     49 N           4.4193  -15.9301  -45.7849 N.am      5 UNK        -0.5000 
     50 C           3.8466  -15.1308  -44.8754 C.2       4 UNK         0.5000 
     51 O           3.8617  -15.3653  -43.6635 O.2       4 UNK        -0.5000 
     52 CA          3.1173  -13.8884  -45.4286 C.3       4 UNK         0.1400 
     53 CB          2.0692  -14.2752  -46.4874 C.3       4 UNK        -0.1800 
     54 N           2.4262  -13.1564  -44.3717 N.am      4 UNK        -0.5000 
     55 C           2.9736  -12.2686  -43.5381 C.2       3 UNK         0.5000 
     56 O           4.1403  -11.8799  -43.6275 O.2       3 UNK        -0.5000 
     57 CA          2.0428  -11.7197  -42.4325 C.3       3 UNK         0.1400 
     58 CB          2.7305  -10.6655  -41.5458 C.3       3 UNK        -0.1800 
     59 N           0.8042  -11.1441  -42.9665 N.am      3 UNK        -0.5000 
     60 C          -0.2543  -11.8251  -43.4264 C.2       2 UNK         0.5000 
     61 O          -0.3044  -13.0577  -43.4548 O.2       2 UNK        -0.5000 
     62 CA         -1.4649  -11.0093  -43.9335 C.3       2 UNK         0.1400 
     63 CB         -1.2024   -9.4913  -44.0651 C.3       2 UNK        -0.1800 
     64 N          -2.0070  -11.5487  -45.1850 N.am      2 UNK        -0.5000 
     65 C          -1.3690  -11.6711  -46.3606 C.2       1 UNK         0.5000 
     66 O          -0.2082  -11.3078  -46.5530 O.2       1 UNK        -0.5000 
     67 C          -4.2235  -23.0140  -45.8116 C.2       11 UNK         0.5000 
     68 O          -3.9855  -23.9751  -46.5453 O.2       11 UNK        -0.5000 
     69 N          -5.0830  -23.0618  -44.7835 N.am      12 UNK        -0.5000 
     70 CA         -5.8666  -24.2431  -44.4176 C.3       12 UNK         0.1400 
     71 CB         -6.9414  -23.8412  -43.3964 C.3       12 UNK        -0.1800 
     72 C          -5.0087  -25.4013  -43.8739 C.2       12 UNK         0.5000 
     73 O          -5.2731  -26.5570  -44.2056 O.2       12 UNK        -0.5000 
     74 N          -3.9881  -25.0743  -43.0693 N.am      13 UNK        -0.5000 
     75 CA         -3.0429  -26.0380  -42.4995 C.3       13 UNK         0.1400 
     76 CB         -2.3376  -25.4088  -41.2889 C.3       13 UNK        -0.1800 
     77 C          -2.0142  -26.5133  -43.5398 C.2       13 UNK         0.5000 
     78 O          -1.6298  -27.6829  -43.5319 O.2       13 UNK        -0.5000 
     79 N          -1.6165  -25.6012  -44.4362 N.am      14 UNK        -0.5000 
     80 CA         -0.7246  -25.8504  -45.5678 C.3       14 UNK         0.1400 
     81 CB         -0.2006  -24.5013  -46.0792 C.3       14 UNK        -0.1800 
     82 C          -1.3846  -26.6407  -46.7167 C.2       14 UNK         0.5000 
     83 O          -0.6788  -27.0568  -47.6351 O.2       14 UNK        -0.5000 
     84 N          -2.7121  -26.8208  -46.6533 N.am      15 UNK        -0.5000 
     85 CA         -3.5692  -27.5072  -47.6222 C.3       15 UNK         0.1400 
     86 CB         -3.2183  -29.0076  -47.7106 C.3       15 UNK        -0.1800 
     87 C          -3.5895  -26.7973  -48.9906 C.2       15 UNK         0.5000 
     88 O          -3.4406  -27.4421  -50.0303 O.2       15 UNK        -0.5000 
     89 N          -3.7867  -25.4715  -48.9486 N.am      16 UNK        -0.5000 
     90 CA         -3.9355  -24.5608  -50.0872 C.3       16 UNK         0.1400 
     91 CB         -5.1977  -24.9058  -50.9060 C.3       16 UNK        -0.1800 
     92 C          -2.6637  -24.4271  -50.9481 C.2       16 UNK         0.5000 
     93 O          -2.7578  -24.2649  -52.1648 O.2       16 UNK        -0.5000 
     94 N          -1.4916  -24.4767  -50.3001 N.am      17 UNK        -0.5000 
     95 CA         -0.1720  -24.4445  -50.9373 C.3       17 UNK         0.1400 
     96 CB          0.9116  -24.5874  -49.8594 C.3       17 UNK        -0.1800 
     97 C           0.0889  -23.1980  -51.8063 C.2       17 UNK         0.5000 
     98 O           0.6278  -23.3304  -52.9056 O.2       17 UNK        -0.5000 
     99 N          -0.3125  -22.0177  -51.3147 N.am      18 UNK        -0.5000 
    100 CA        -0.1361  -20.7419  -52.0147 C.3       18 UNK         0.1400 
    101 CB         0.0470  -19.6187  -50.9855 C.3       18 UNK        -0.1800 
    102 C         -1.2827  -20.3934  -52.9820 C.2       18 UNK         0.5000 
    103 O         -1.1950  -19.3613  -53.6477 O.2       18 UNK        -0.5000 
    104 N         -2.3335  -21.2245  -53.0685 N.am      19 UNK        -0.5000 
    105 CA        -3.5511  -20.9437  -53.8447 C.3       19 UNK         0.1400 
    106 CB        -4.6471  -21.9509  -53.4707 C.3       19 UNK        -0.1800 
    107 C         -3.3552  -20.8846  -55.3732 C.2       19 UNK         0.5000 
    108 O         -4.2493  -20.4209  -56.0812 O.2       19 UNK        -0.5000 
    109 N         -2.1857  -21.3211  -55.8569 N.am      20 UNK        -0.5000 
    110 CA        -1.7351  -21.1374  -57.2353 C.3       20 UNK         0.1400 
    111 CB        -0.5201  -22.0455  -57.4801 C.3       20 UNK        -0.1800 
    112 C         -1.3881  -19.6703  -57.5724 C.2       20 UNK         0.5000 
    113 O         -1.3685  -19.3235  -58.7544 O.2       20 UNK        -0.5000 
    114 N         -1.1098  -18.8465  -56.5508 N.am      21 UNK        -0.5000 
    115 CA        -0.7218  -17.4426  -56.6886 C.3       21 UNK         0.1400 
    116 CB         0.7391  -17.2814  -56.2371 C.3       21 UNK        -0.1800 
    117 C         -1.6378  -16.5009  -55.8888 C.2       21 UNK         0.5000 
    118 O         -1.9827  -15.4335  -56.3986 O.2       21 UNK        -0.5000 
    119 N         -2.0072  -16.8965  -54.6620 N.am      22 UNK        -0.5000 
    120 CA        -2.7360  -16.0831  -53.6711 C.3       22 UNK         0.1400 
    121 C         -1.9420  -14.8048  -53.2452 C.2       22 UNK         0.5000 
    122 N         -2.5949  -13.7235  -52.8369 N.am      22 UNK        -0.7600 
    123 O         -0.7125  -14.7960  -53.2366 O.2       22 UNK        -0.5000 
    124 C124       -4.2161  -15.8152  -54.0774 C.3       23 UNK        -0.0398 
    125 S125       -5.1876  -17.3519  -54.2402 S.3       23 UNK        -0.2404 
    126 C126       -6.1970  -17.3217  -52.7222 C.3       23 UNK        -0.0205 
    127 H127       -6.0785  -10.3710  -46.5139 H         1 UNK         0.0600 
    128 H128       -6.1386  -12.0489  -47.0618 H         1 UNK         0.0600 
    129 H129       -6.3101  -10.7342  -48.2276 H         1 UNK         0.0600 
    130 H130       -4.1202  -12.9874  -47.1198 H         1 UNK         0.3000 
    131 H131       -1.8697  -11.7550  -48.4301 H         1 UNK         0.0600 
    132 H132       -0.6663  -13.8583  -47.8036 H         1 UNK         0.0800 
    133 H133       -2.0288  -14.3817  -46.8576 H         1 UNK         0.0800 
    134 H134       -4.7355  -14.7147  -48.5742 H         1 UNK         0.0800 
    135 H135       -3.7104  -15.7548  -47.6135 H         1 UNK         0.0800 
    136 H136       -5.3514  -15.4176  -50.9415 H         1 UNK         0.1150 
    137 H137       -5.2143  -19.6377  -51.6915 H         1 UNK         0.1150 
    138 H138       -3.2039  -17.9930  -48.2901 H         1 UNK         0.1150 
    139 H139       -2.7002  -20.3210  -49.0717 H         1 UNK         0.0800 
    140 H140       -3.5294  -20.9637  -50.4610 H         1 UNK         0.0800 
    141 H141       -5.2600  -20.4268  -46.2515 H         1 UNK         0.0800 
    142 H142       -3.8265  -19.7145  -46.9156 H         1 UNK         0.0800 
    143 H143       -2.6061  -21.9017  -46.6537 H         1 UNK         0.0600 
    144 H144       -3.0722  -20.0590  -44.7447 H         1 UNK         0.3000 
    145 H145       -2.7019  -20.3961  -42.1569 H         1 UNK         0.0600 
    146 H146       -0.5477  -20.7492  -40.8909 H         1 UNK         0.0600 
    147 H147       -1.4381  -22.2402  -41.1407 H         1 UNK         0.0600 
    148 H148       -0.0229  -21.8900  -42.1276 H         1 UNK         0.0600 
    149 H149       -0.4108  -19.8480  -43.9710 H         1 UNK         0.3000 
    150 H150       -1.1769  -16.4123  -43.9149 H         1 UNK         0.0600 
    151 H151        1.4550  -17.5809  -42.8751 H         1 UNK         0.0600 
    152 H152        0.4422  -16.4361  -42.0016 H         1 UNK         0.0600 
    153 H153        1.1963  -15.9565  -43.5105 H         1 UNK         0.0600 
    154 H154        0.9009  -17.8251  -45.2543 H         1 UNK         0.3000 
    155 H155       -1.1213  -18.8586  -48.0533 H         1 UNK         0.0600 
    156 H156        1.0939  -16.7833  -47.6534 H         1 UNK         0.0600 
    157 H157       -0.5004  -16.4446  -48.3159 H         1 UNK         0.0600 
    158 H158        0.6037  -17.4955  -49.1830 H         1 UNK         0.0600 
    159 H159        1.5687  -19.0696  -46.7723 H         1 UNK         0.3000 
    160 H160        1.5820  -22.5672  -47.0304 H         1 UNK         0.0600 
    161 H161        3.2723  -20.6303  -48.6995 H         1 UNK         0.0600 
    162 H162        2.2901  -21.9192  -49.3751 H         1 UNK         0.0600 
    163 H163        3.6518  -22.3152  -48.3390 H         1 UNK         0.0600 
    164 H164        3.6421  -20.7880  -46.2911 H         1 UNK         0.3000 
    165 H165        2.5396  -19.7569  -43.1130 H         1 UNK         0.0600 
    166 H166        4.5375  -20.9211  -42.2498 H         1 UNK         0.0600 
    167 H167        4.6446  -21.8983  -43.7151 H         1 UNK         0.0600 
    168 H168        3.2836  -22.0937  -42.6167 H         1 UNK         0.0600 
    169 H169        5.0785  -19.4169  -44.1100 H         1 UNK         0.3000 
    170 H170        5.6284  -17.2119  -44.6662 H         1 UNK         0.0600 
    171 H171        6.0994  -18.7779  -46.5631 H         1 UNK         0.0600 
    172 H172        5.0056  -17.8756  -47.6047 H         1 UNK         0.0600 
    173 H173        6.4918  -17.1286  -47.0178 H         1 UNK         0.0600 
    174 H174        4.3488  -15.6808  -46.7600 H         1 UNK         0.3000 
    175 H175        3.8615  -13.2375  -45.8917 H         1 UNK         0.0600 
    176 H176        1.3132  -14.9452  -46.0752 H         1 UNK         0.0600 
    177 H177        1.5597  -13.3909  -46.8688 H         1 UNK         0.0600 
    178 H178        2.5231  -14.7713  -47.3454 H         1 UNK         0.0600 
    179 H179        1.4573  -13.4079  -44.2034 H         1 UNK         0.3000 
    180 H180        1.7813  -12.5657  -41.7932 H         1 UNK         0.0600 
    181 H181        3.0203   -9.7840  -42.1192 H         1 UNK         0.0600 
    182 H182        3.6323  -11.0696  -41.0839 H         1 UNK         0.0600 
    183 H183        2.0741  -10.3401  -40.7385 H         1 UNK         0.0600 
    184 H184        0.7745  -10.1362  -43.0175 H         1 UNK         0.3000 
    185 H185       -2.2464  -11.1412  -43.1840 H         1 UNK         0.0600 
    186 H186       -2.0879   -8.9753  -44.4367 H         1 UNK         0.0600 
    187 H187       -0.9585   -9.0450  -43.1003 H         1 UNK         0.0600 
    188 H188       -0.3836   -9.2736  -44.7520 H         1 UNK         0.0600 
    189 H189       -2.9536  -11.8959  -45.1328 H         1 UNK         0.3000 
    190 H190       -5.2109  -22.2362  -44.2174 H         1 UNK         0.3000 
    191 H191       -6.3722  -24.6022  -45.3168 H         1 UNK         0.0600 
    192 H192       -7.5561  -24.6986  -43.1189 H         1 UNK         0.0600 
    193 H193       -7.6097  -23.0830  -43.8050 H         1 UNK         0.0600 
    194 H194       -6.5006  -23.4435  -42.4814 H         1 UNK         0.0600 
    195 H195       -3.7833  -24.0968  -42.9154 H         1 UNK         0.3000 
    196 H196       -3.6002  -26.9107  -42.1520 H         1 UNK         0.0600 
    197 H197       -1.7258  -24.5551  -41.5797 H         1 UNK         0.0600 
    198 H198       -3.0565  -25.0709  -40.5424 H         1 UNK         0.0600 
    199 H199       -1.6797  -26.1313  -40.8044 H         1 UNK         0.0600 
    200 H200       -1.9311  -24.6409  -44.3151 H         1 UNK         0.3000 
    201 H201        0.1253  -26.4363  -45.2122 H         1 UNK         0.0600 
    202 H202       -1.0007  -23.8849  -46.4908 H         1 UNK         0.0600 
    203 H203        0.5404  -24.6528  -46.8631 H         1 UNK         0.0600 
    204 H204        0.2802  -23.9344  -45.2813 H         1 UNK         0.0600 
    205 H205       -3.1943  -26.3947  -45.8740 H         1 UNK         0.3000 
    206 H206       -4.5844  -27.4346  -47.2291 H         1 UNK         0.0600 
    207 H207       -3.2298  -29.4729  -46.7249 H         1 UNK         0.0600 
    208 H208       -3.9416  -29.5401  -48.3290 H         1 UNK         0.0600 
    209 H209       -2.2332  -29.1720  -48.1479 H         1 UNK         0.0600 
    210 H210       -3.8672  -25.0295  -48.0334 H         1 UNK         0.3000 
    211 H211       -4.0925  -23.5772  -49.6545 H         1 UNK         0.0600 
    212 H212       -5.4054  -24.1410  -51.6530 H         1 UNK         0.0600 
    213 H213       -6.0762  -24.9734  -50.2644 H         1 UNK         0.0600 
    214 H214       -5.0930  -25.8536  -51.4345 H         1 UNK         0.0600 
    215 H215       -1.5073  -24.6301  -49.3028 H         1 UNK         0.3000 
    216 H216       -0.1098  -25.3142  -51.5946 H         1 UNK         0.0600 
    217 H217        0.8251  -23.8064  -49.1050 H         1 UNK         0.0600 
    218 H218        1.9111  -24.5221  -50.2914 H         1 UNK         0.0600 
    219 H219        0.8403  -25.5507  -49.3549 H         1 UNK         0.0600 
    220 H220       -0.7183  -21.9821  -50.3886 H         1 UNK         0.3000 
    221 H221        0.7762  -20.7831  -52.6135 H         1 UNK         0.0600 
    222 H222        0.9152  -19.8039  -50.3542 H         1 UNK         0.0600 
    223 H223       -0.8274  -19.5149  -50.3447 H         1 UNK         0.0600 
    224 H224        0.2088  -18.6565  -51.4733 H         1 UNK         0.0600 
    225 H225       -2.3114  -22.1016  -52.5636 H         1 UNK         0.3000 
    226 H226       -3.8933  -19.9517  -53.5490 H         1 UNK         0.0600 
    227 H227       -4.3892  -22.9607  -53.7905 H         1 UNK         0.0600 
    228 H228       -4.8188  -21.9668  -52.3950 H         1 UNK         0.0600 
    229 H229       -5.5941  -21.6908  -53.9450 H         1 UNK         0.0600 
    230 H230       -1.5167  -21.7052  -55.2059 H         1 UNK         0.3000 
    231 H231       -2.5382  -21.4500  -57.9060 H         1 UNK         0.0600 
    232 H232        0.3141  -21.7860  -56.8269 H         1 UNK         0.0600 
    233 H233       -0.1696  -21.9610  -58.5097 H         1 UNK         0.0600 
    234 H234       -0.7688  -23.0929  -57.3080 H         1 UNK         0.0600 
    235 H235       -1.1738  -19.2023  -55.6029 H         1 UNK         0.3000 
    236 H236       -0.7844  -17.1303  -57.7330 H         1 UNK         0.0600 
    237 H237        1.4097  -17.8783  -56.8554 H         1 UNK         0.0600 
    238 H238        1.0608  -16.2422  -56.3161 H         1 UNK         0.0600 
    239 H239        0.8756  -17.5902  -55.1997 H         1 UNK         0.0600 
    240 H240       -1.6577  -17.7832  -54.3064 H         1 UNK         0.3000 
    241 H241       -2.7554  -16.6923  -52.7666 H         1 UNK         0.0600 
    242 H242       -2.0597  -12.9222  -52.5423 H         1 UNK         0.3800 
    243 H243       -3.5996  -13.6840  -52.7999 H         1 UNK         0.3800 
    244 H244       -4.2632  -15.2740  -55.0228 H         1 UNK         0.0800 
    245 H245       -4.7178  -15.1803  -53.3482 H         1 UNK         0.0800 
    246 H246       -6.9380  -18.1203  -52.7795 H         1 UNK         0.0800 
    247 H247       -6.7619  -16.3893  -52.6758 H         1 UNK         0.0800 
@<TRIPOS>BOND
     1    1    2 1    
     2    1  127 1    
     3    1  128 1    
     4    1  129 1    
     5    2    3 2    
     6    2    4 am   BACKBONE|DICT|INTERRES
     7    4    5 1    
     8    4  130 1    
     9    5    6 1    
    10    5   65 1    
    11    5  131 1    
    12    6    7 1    
    13    6  132 1    
    14    6  133 1    
    15    7    8 1    
    16    8    9 1    
    17    8  134 1    
    18    8  135 1    
    19    9   10 ar   
    20    9   14 ar   
    21   10   11 ar   
    22   10  136 1    
    23   11   12 ar   
    24   11  126 1    
    25   12   13 ar   
    26   12  137 1    
    27   13   14 ar   
    28   13   15 1    
    29   14  138 1    
    30   15   16 1    
    31   15  139 1    
    32   15  140 1    
    33   16   17 1    
    34   17   18 1    
    35   17  141 1    
    36   17  142 1    
    37   18   19 1    
    38   18   67 1    
    39   18  143 1    
    40   19   20 am   BACKBONE|DICT|INTERRES
    41   19  144 1    
    42   20   21 2    
    43   20   22 1    
    44   22   23 1    
    45   22   24 1    
    46   22  145 1    
    47   23  146 1    
    48   23  147 1    
    49   23  148 1    
    50   24   25 am   BACKBONE|DICT|INTERRES
    51   24  149 1    
    52   25   26 2    
    53   25   27 1    
    54   27   28 1    
    55   27   29 1    
    56   27  150 1    
    57   28  151 1    
    58   28  152 1    
    59   28  153 1    
    60   29   30 am   BACKBONE|DICT|INTERRES
    61   29  154 1    
    62   30   31 2    
    63   30   32 1    
    64   32   33 1    
    65   32   34 1    
    66   32  155 1    
    67   33  156 1    
    68   33  157 1    
    69   33  158 1    
    70   34   35 am   BACKBONE|DICT|INTERRES
    71   34  159 1    
    72   35   36 2    
    73   35   37 1    
    74   37   38 1    
    75   37   39 1    
    76   37  160 1    
    77   38  161 1    
    78   38  162 1    
    79   38  163 1    
    80   39   40 am   BACKBONE|DICT|INTERRES
    81   39  164 1    
    82   40   41 2    
    83   40   42 1    
    84   42   43 1    
    85   42   44 1    
    86   42  165 1    
    87   43  166 1    
    88   43  167 1    
    89   43  168 1    
    90   44   45 am   BACKBONE|DICT|INTERRES
    91   44  169 1    
    92   45   46 2    
    93   45   47 1    
    94   47   48 1    
    95   47   49 1    
    96   47  170 1    
    97   48  171 1    
    98   48  172 1    
    99   48  173 1    
   100   49   50 am   BACKBONE|DICT|INTERRES
   101   49  174 1    
   102   50   51 2    
   103   50   52 1    
   104   52   53 1    
   105   52   54 1    
   106   52  175 1    
   107   53  176 1    
   108   53  177 1    
   109   53  178 1    
   110   54   55 am   BACKBONE|DICT|INTERRES
   111   54  179 1    
   112   55   56 2    
   113   55   57 1    
   114   57   58 1    
   115   57   59 1    
   116   57  180 1    
   117   58  181 1    
   118   58  182 1    
   119   58  183 1    
   120   59   60 am   BACKBONE|DICT|INTERRES
   121   59  184 1    
   122   60   61 2    
   123   60   62 1    
   124   62   63 1    
   125   62   64 1    
   126   62  185 1    
   127   63  186 1    
   128   63  187 1    
   129   63  188 1    
   130   64   65 am   BACKBONE|DICT|INTERRES
   131   64  189 1    
   132   65   66 2    
   133   67   68 2    
   134   67   69 am   BACKBONE|DICT|INTERRES
   135   69   70 1    
   136   69  190 1    
   137   70   71 1    
   138   70   72 1    
   139   70  191 1    
   140   71  192 1    
   141   71  193 1    
   142   71  194 1    
   143   72   73 2    
   144   72   74 am   BACKBONE|DICT|INTERRES
   145   74   75 1    
   146   74  195 1    
   147   75   76 1    
   148   75   77 1    
   149   75  196 1    
   150   76  197 1    
   151   76  198 1    
   152   76  199 1    
   153   77   78 2    
   154   77   79 am   BACKBONE|DICT|INTERRES
   155   79   80 1    
   156   79  200 1    
   157   80   81 1    
   158   80   82 1    
   159   80  201 1    
   160   81  202 1    
   161   81  203 1    
   162   81  204 1    
   163   82   83 2    
   164   82   84 am   BACKBONE|DICT|INTERRES
   165   84   85 1    
   166   84  205 1    
   167   85   86 1    
   168   85   87 1    
   169   85  206 1    
   170   86  207 1    
   171   86  208 1    
   172   86  209 1    
   173   87   88 2    
   174   87   89 am   BACKBONE|DICT|INTERRES
   175   89   90 1    
   176   89  210 1    
   177   90   91 1    
   178   90   92 1    
   179   90  211 1    
   180   91  212 1    
   181   91  213 1    
   182   91  214 1    
   183   92   93 2    
   184   92   94 am   BACKBONE|DICT|INTERRES
   185   94   95 1    
   186   94  215 1    
   187   95   96 1    
   188   95   97 1    
   189   95  216 1    
   190   96  217 1    
   191   96  218 1    
   192   96  219 1    
   193   97   98 2    
   194   97   99 am   BACKBONE|DICT|INTERRES
   195   99  100 1    
   196   99  220 1    
   197  100  101 1    
   198  100  102 1    
   199  100  221 1    
   200  101  222 1    
   201  101  223 1    
   202  101  224 1    
   203  102  103 2    
   204  102  104 am   BACKBONE|DICT|INTERRES
   205  104  105 1    
   206  104  225 1    
   207  105  106 1    
   208  105  107 1    
   209  105  226 1    
   210  106  227 1    
   211  106  228 1    
   212  106  229 1    
   213  107  108 2    
   214  107  109 am   BACKBONE|DICT|INTERRES
   215  109  110 1    
   216  109  230 1    
   217  110  111 1    
   218  110  112 1    
   219  110  231 1    
   220  111  232 1    
   221  111  233 1    
   222  111  234 1    
   223  112  113 2    
   224  112  114 am   BACKBONE|DICT|INTERRES
   225  114  115 1    
   226  114  235 1    
   227  115  116 1    
   228  115  117 1    
   229  115  236 1    
   230  116  237 1    
   231  116  238 1    
   232  116  239 1    
   233  117  118 2    
   234  117  119 am   BACKBONE|DICT|INTERRES
   235  119  120 1    
   236  119  240 1    
   237  120  121 1    
   238  120  124 1    
   239  120  241 1    
   240  121  122 am   BACKBONE|DICT|INTERRES
   241  121  123 2    
   242  122  242 1    
   243  122  243 1    
   244  124  125 1    
   245  124  244 1    
   246  124  245 1    
   247  125  126 1    
   248  126  246 1    
   249  126  247 1    
@<TRIPOS>SUBSTRUCTURE
     1 UNK         1 GROUP             0       ****    0 ROOT    
