@<TRIPOS>MOLECULE
3R540
247   249    1
SMALL
USER_CHARGES


@<TRIPOS>ATOM
      1 CA         -1.4021  -17.9377  -49.1180 C.3       0 UNK        -0.1800 
      2 C          -1.6023  -16.4457  -49.3302 C.2       0 UNK         0.5000 
      3 O          -2.7277  -16.0035  -49.5531 O.2       0 UNK        -0.5000 
      4 N          -0.5113  -15.6748  -49.2651 N.am      1 UNK        -0.5000 
      5 CA         -0.4743  -14.2211  -49.4403 C.3       1 UNK         0.1400 
      6 C6          0.9782  -13.6747  -49.4970 C.3       23 UNK        -0.0398 
      7 S7          2.0726  -14.2819  -48.1610 S.3       23 UNK        -0.2404 
      8 C8          3.3163  -15.2529  -49.0764 C.3       23 UNK        -0.0205 
      9 C9          2.7515  -16.5346  -49.6774 C.ar      23 UNK        -0.0193 
     10 C10         2.2712  -16.5410  -50.9911 C.ar      23 UNK        -0.1150 
     11 C11         1.7616  -17.7105  -51.5593 C.ar      23 UNK        -0.0193 
     12 C12         1.7756  -18.8935  -50.8187 C.ar      23 UNK        -0.1150 
     13 C13         2.2795  -18.9124  -49.5153 C.ar      23 UNK        -0.0193 
     14 C14         2.7492  -17.7252  -48.9412 C.ar      23 UNK        -0.1150 
     15 C15         2.3507  -20.2312  -48.7605 C.3       23 UNK        -0.0205 
     16 S16         0.6945  -20.8868  -48.4036 S.3       23 UNK        -0.2404 
     17 C17         1.0797  -22.6177  -47.9857 C.3       23 UNK        -0.0398 
     18 CA          0.0967  -23.3098  -47.0077 C.3       11 UNK         0.1400 
     19 N           0.2690  -22.8998  -45.6108 N.am      11 UNK        -0.5000 
     20 C          -0.1972  -23.6177  -44.5768 C.2       10 UNK         0.5000 
     21 O          -0.8240  -24.6687  -44.7093 O.2       10 UNK        -0.5000 
     22 CA          0.0405  -23.0694  -43.1607 C.3       10 UNK         0.1400 
     23 CB          1.4962  -23.2915  -42.7249 C.3       10 UNK        -0.1800 
     24 N          -0.3160  -21.6586  -43.0279 N.am      10 UNK        -0.5000 
     25 C          -1.5535  -21.1688  -43.1939 C.2       9 UNK         0.5000 
     26 O          -2.5345  -21.8605  -43.4679 O.2       9 UNK        -0.5000 
     27 CA         -1.7135  -19.6425  -43.0795 C.3       9 UNK         0.1400 
     28 CB         -1.7201  -19.1943  -41.6104 C.3       9 UNK        -0.1800 
     29 N          -0.6674  -18.9242  -43.8025 N.am      9 UNK        -0.5000 
     30 C          -0.4769  -18.9898  -45.1267 C.2       8 UNK         0.5000 
     31 O          -1.2093  -19.6121  -45.8940 O.2       8 UNK        -0.5000 
     32 CA          0.7736  -18.2800  -45.6683 C.3       8 UNK         0.1400 
     33 CB          0.5380  -16.7686  -45.7993 C.3       8 UNK        -0.1800 
     34 N           1.9496  -18.5296  -44.8334 N.am      8 UNK        -0.5000 
     35 C           2.5453  -19.7228  -44.6896 C.2       7 UNK         0.5000 
     36 O           2.1810  -20.7482  -45.2632 O.2       7 UNK        -0.5000 
     37 CA          3.7342  -19.7871  -43.7140 C.3       7 UNK         0.1400 
     38 CB          5.0237  -19.3232  -44.4077 C.3       7 UNK        -0.1800 
     39 N           3.5167  -18.9883  -42.5074 N.am      7 UNK        -0.5000 
     40 C           2.5948  -19.2617  -41.5728 C.2       6 UNK         0.5000 
     41 O           1.8562  -20.2451  -41.6055 O.2       6 UNK        -0.5000 
     42 CA          2.4287  -18.2224  -40.4468 C.3       6 UNK         0.1400 
     43 CB          3.4553  -18.4624  -39.3300 C.3       6 UNK        -0.1800 
     44 N           2.5333  -16.8372  -40.9202 N.am      6 UNK        -0.5000 
     45 C           1.7315  -16.2976  -41.8477 C.2       5 UNK         0.5000 
     46 O           0.8254  -16.9236  -42.4024 O.2       5 UNK        -0.5000 
     47 CA          2.0346  -14.8459  -42.2675 C.3       5 UNK         0.1400 
     48 CB          3.2720  -14.8021  -43.1793 C.3       5 UNK        -0.1800 
     49 N           0.9159  -14.2408  -42.9890 N.am      5 UNK        -0.5000 
     50 C          -0.2839  -13.9614  -42.4636 C.2       4 UNK         0.5000 
     51 O          -0.5484  -14.0681  -41.2640 O.2       4 UNK        -0.5000 
     52 CA         -1.3571  -13.4865  -43.4651 C.3       4 UNK         0.1400 
     53 CB         -2.6017  -12.8826  -42.7817 C.3       4 UNK        -0.1800 
     54 N          -0.8335  -12.5713  -44.4854 N.am      4 UNK        -0.5000 
     55 C          -0.2634  -11.3707  -44.2811 C.2       3 UNK         0.5000 
     56 O          -0.0379  -10.8930  -43.1687 O.2       3 UNK        -0.5000 
     57 CA          0.1059  -10.5482  -45.5341 C.3       3 UNK         0.1400 
     58 CB          1.5928  -10.7344  -45.8745 C.3       3 UNK        -0.1800 
     59 N          -0.6930  -10.8940  -46.7106 N.am      3 UNK        -0.5000 
     60 C          -2.0215  -10.7499  -46.8211 C.2       2 UNK         0.5000 
     61 O          -2.7127  -10.1610  -45.9891 O.2       2 UNK        -0.5000 
     62 CA         -2.7024  -11.3927  -48.0483 C.3       2 UNK         0.1400 
     63 CB         -3.2486  -10.3090  -48.9915 C.3       2 UNK        -0.1800 
     64 N          -1.8521  -12.3032  -48.8249 N.am      2 UNK        -0.5000 
     65 C          -1.3181  -13.4566  -48.3956 C.2       1 UNK         0.5000 
     66 O          -1.4228  -13.8731  -47.2379 O.2       1 UNK        -0.5000 
     67 C          -1.3772  -23.2488  -47.4637 C.2       11 UNK         0.5000 
     68 O          -1.7933  -24.0984  -48.2526 O.2       11 UNK        -0.5000 
     69 N          -2.1529  -22.2879  -46.9399 N.am      12 UNK        -0.5000 
     70 CA         -3.5961  -22.1949  -47.1554 C.3       12 UNK         0.1400 
     71 CB         -4.1192  -20.8421  -46.6522 C.3       12 UNK        -0.1800 
     72 C          -4.3540  -23.3638  -46.5028 C.2       12 UNK         0.5000 
     73 O          -5.1965  -23.9750  -47.1597 O.2       12 UNK        -0.5000 
     74 N          -4.0110  -23.6862  -45.2466 N.am      13 UNK        -0.5000 
     75 CA         -4.5765  -24.8074  -44.4904 C.3       13 UNK         0.1400 
     76 CB         -4.0977  -24.7377  -43.0325 C.3       13 UNK        -0.1800 
     77 C          -4.2465  -26.1806  -45.1060 C.2       13 UNK         0.5000 
     78 O          -5.1075  -27.0608  -45.1278 O.2       13 UNK        -0.5000 
     79 N          -3.0190  -26.3277  -45.6217 N.am      14 UNK        -0.5000 
     80 CA         -2.5425  -27.5191  -46.3274 C.3       14 UNK         0.1400 
     81 CB         -1.0063  -27.4838  -46.3676 C.3       14 UNK        -0.1800 
     82 C          -3.1024  -27.6607  -47.7579 C.2       14 UNK         0.5000 
     83 O          -2.9478  -28.7277  -48.3532 O.2       14 UNK        -0.5000 
     84 N          -3.7029  -26.5858  -48.2930 N.am      15 UNK        -0.5000 
     85 CA         -4.1685  -26.4197  -49.6753 C.3       15 UNK         0.1400 
     86 CB         -5.3285  -27.3834  -49.9979 C.3       15 UNK        -0.1800 
     87 C          -3.0162  -26.4859  -50.7024 C.2       15 UNK         0.5000 
     88 O          -3.2107  -26.9359  -51.8320 O.2       15 UNK        -0.5000 
     89 N          -1.8365  -26.0108  -50.2865 N.am      16 UNK        -0.5000 
     90 CA         -0.6315  -25.8732  -51.1018 C.3       16 UNK         0.1400 
     91 CB          0.5912  -26.1629  -50.2174 C.3       16 UNK        -0.1800 
     92 C          -0.5276  -24.4721  -51.7351 C.2       16 UNK         0.5000 
     93 O           0.1896  -24.3135  -52.7227 O.2       16 UNK        -0.5000 
     94 N          -1.2467  -23.4928  -51.1639 N.am      17 UNK        -0.5000 
     95 CA         -1.3855  -22.1172  -51.6470 C.3       17 UNK         0.1400 
     96 CB         -2.3171  -21.3244  -50.7162 C.3       17 UNK        -0.1800 
     97 C          -1.8017  -21.9651  -53.1316 C.2       17 UNK         0.5000 
     98 O          -1.1323  -21.2182  -53.8437 O.2       17 UNK        -0.5000 
     99 N          -2.8424  -22.6368  -53.6562 N.am      18 UNK        -0.5000 
    100 CA        -3.8705  -23.4589  -53.0036 C.3       18 UNK         0.1400 
    101 CB        -4.2922  -24.5635  -53.9846 C.3       18 UNK        -0.1800 
    102 C         -5.1001  -22.6456  -52.5543 C.2       18 UNK         0.5000 
    103 O         -5.9764  -23.1972  -51.8888 O.2       18 UNK        -0.5000 
    104 N         -5.1379  -21.3575  -52.9061 N.am      19 UNK        -0.5000 
    105 CA        -6.1537  -20.3869  -52.5179 C.3       19 UNK         0.1400 
    106 CB        -7.1911  -20.2654  -53.6475 C.3       19 UNK        -0.1800 
    107 C         -5.4613  -19.0426  -52.2530 C.2       19 UNK         0.5000 
    108 O         -4.2886  -18.8806  -52.6000 O.2       19 UNK        -0.5000 
    109 N         -6.2060  -18.0871  -51.6816 N.am      20 UNK        -0.5000 
    110 CA        -5.7313  -16.7464  -51.3109 C.3       20 UNK         0.1400 
    111 CB        -6.8495  -16.0184  -50.5487 C.3       20 UNK        -0.1800 
    112 C         -5.2301  -15.8817  -52.4892 C.2       20 UNK         0.5000 
    113 O         -4.4926  -14.9205  -52.2713 O.2       20 UNK        -0.5000 
    114 N         -5.6303  -16.2388  -53.7165 N.am      21 UNK        -0.5000 
    115 CA        -5.1428  -15.6447  -54.9615 C.3       21 UNK         0.1400 
    116 CB        -6.1472  -15.9677  -56.0795 C.3       21 UNK        -0.1800 
    117 C         -3.7265  -16.1193  -55.3563 C.2       21 UNK         0.5000 
    118 O         -3.1144  -15.4858  -56.2169 O.2       21 UNK        -0.5000 
    119 N         -3.2486  -17.2098  -54.7361 N.am      22 UNK        -0.5000 
    120 CA        -2.0126  -17.9583  -55.0174 C.3       22 UNK         0.1400 
    121 C         -2.0590  -18.7332  -56.3645 C.2       22 UNK         0.5000 
    122 N         -1.6526  -19.9951  -56.3604 N.am      22 UNK        -0.7600 
    123 O         -2.4172  -18.2081  -57.4153 O.2       22 UNK        -0.5000 
    124 C124       -0.7162  -17.1128  -54.8893 C.3       23 UNK        -0.0398 
    125 S125       -0.3095  -16.7555  -53.1459 S.3       23 UNK        -0.2404 
    126 C126        1.2356  -17.7060  -52.9854 C.3       23 UNK        -0.0205 
    127 H127       -2.1970  -18.3498  -48.4966 H         1 UNK         0.0600 
    128 H128       -1.4076  -18.4541  -50.0774 H         1 UNK         0.0600 
    129 H129       -0.4520  -18.1426  -48.6268 H         1 UNK         0.0600 
    130 H130        0.3844  -16.0997  -49.0699 H         1 UNK         0.3000 
    131 H131       -0.9301  -14.0283  -50.4141 H         1 UNK         0.0600 
    132 H132        0.9879  -12.5836  -49.4724 H         1 UNK         0.0800 
    133 H133        1.4155  -13.9231  -50.4619 H         1 UNK         0.0800 
    134 H134        4.1308  -15.5010  -48.3943 H         1 UNK         0.0800 
    135 H135        3.7595  -14.6316  -49.8562 H         1 UNK         0.0800 
    136 H136        2.2904  -15.6367  -51.5815 H         1 UNK         0.1150 
    137 H137        1.4058  -19.8089  -51.2590 H         1 UNK         0.1150 
    138 H138        3.1384  -17.7320  -47.9326 H         1 UNK         0.1150 
    139 H139        2.9035  -20.9511  -49.3655 H         1 UNK         0.0800 
    140 H140        2.9036  -20.1187  -47.8273 H         1 UNK         0.0800 
    141 H141        1.1144  -23.1716  -48.9245 H         1 UNK         0.0800 
    142 H142        2.0896  -22.6685  -47.5761 H         1 UNK         0.0800 
    143 H143        0.3639  -24.3683  -47.0378 H         1 UNK         0.0600 
    144 H144        0.7963  -22.0457  -45.4435 H         1 UNK         0.3000 
    145 H145       -0.6006  -23.6335  -42.4801 H         1 UNK         0.0600 
    146 H146        1.6433  -23.0048  -41.6837 H         1 UNK         0.0600 
    147 H147        1.7748  -24.3422  -42.8142 H         1 UNK         0.0600 
    148 H148        2.1927  -22.7144  -43.3328 H         1 UNK         0.0600 
    149 H149        0.4328  -21.0258  -42.7642 H         1 UNK         0.3000 
    150 H150       -2.6735  -19.3725  -43.5243 H         1 UNK         0.0600 
    151 H151       -2.5106  -19.6975  -41.0523 H         1 UNK         0.0600 
    152 H152       -1.8933  -18.1211  -41.5275 H         1 UNK         0.0600 
    153 H153       -0.7742  -19.4172  -41.1161 H         1 UNK         0.0600 
    154 H154       -0.0395  -18.3449  -43.2499 H         1 UNK         0.3000 
    155 H155        0.9830  -18.6699  -46.6629 H         1 UNK         0.0600 
    156 H156        1.4369  -16.2614  -46.1452 H         1 UNK         0.0600 
    157 H157        0.2401  -16.3163  -44.8551 H         1 UNK         0.0600 
    158 H158       -0.2549  -16.5591  -46.5170 H         1 UNK         0.0600 
    159 H159        2.2728  -17.7593  -44.2691 H         1 UNK         0.3000 
    160 H160        3.8640  -20.8288  -43.4134 H         1 UNK         0.0600 
    161 H161        4.9672  -18.2764  -44.7093 H         1 UNK         0.0600 
    162 H162        5.2173  -19.9131  -45.3047 H         1 UNK         0.0600 
    163 H163        5.8871  -19.4380  -43.7521 H         1 UNK         0.0600 
    164 H164        4.0800  -18.1581  -42.3996 H         1 UNK         0.3000 
    165 H165        1.4298  -18.3532  -40.0254 H         1 UNK         0.0600 
    166 H166        4.4769  -18.3109  -39.6807 H         1 UNK         0.0600 
    167 H167        3.2859  -17.7914  -38.4877 H         1 UNK         0.0600 
    168 H168        3.3864  -19.4826  -38.9498 H         1 UNK         0.0600 
    169 H169        3.2633  -16.2729  -40.5096 H         1 UNK         0.3000 
    170 H170        2.2275  -14.2563  -41.3691 H         1 UNK         0.0600 
    171 H171        4.1509  -15.2060  -42.6755 H         1 UNK         0.0600 
    172 H172        3.1217  -15.3799  -44.0924 H         1 UNK         0.0600 
    173 H173        3.5108  -13.7784  -43.4687 H         1 UNK         0.0600 
    174 H174        1.0348  -14.1203  -43.9833 H         1 UNK         0.3000 
    175 H175       -1.6813  -14.3799  -44.0011 H         1 UNK         0.0600 
    176 H176       -3.3455  -12.5777  -43.5181 H         1 UNK         0.0600 
    177 H177       -3.0775  -13.6096  -42.1226 H         1 UNK         0.0600 
    178 H178       -2.3499  -12.0098  -42.1788 H         1 UNK         0.0600 
    179 H179       -0.9627  -12.8791  -45.4442 H         1 UNK         0.3000 
    180 H180       -0.0694   -9.4954  -45.3041 H         1 UNK         0.0600 
    181 H181        1.8875  -10.1077  -46.7164 H         1 UNK         0.0600 
    182 H182        2.2247  -10.4591  -45.0291 H         1 UNK         0.0600 
    183 H183        1.8206  -11.7701  -46.1303 H         1 UNK         0.0600 
    184 H184       -0.2128  -11.3843  -47.4493 H         1 UNK         0.3000 
    185 H185       -3.5461  -11.9747  -47.6719 H         1 UNK         0.0600 
    186 H186       -3.8135  -10.7486  -49.8139 H         1 UNK         0.0600 
    187 H187       -3.9226   -9.6322  -48.4645 H         1 UNK         0.0600 
    188 H188       -2.4459   -9.7061  -49.4179 H         1 UNK         0.0600 
    189 H189       -1.7008  -12.0332  -49.7864 H         1 UNK         0.3000 
    190 H190       -1.7308  -21.5758  -46.3526 H         1 UNK         0.3000 
    191 H191       -3.7810  -22.2443  -48.2297 H         1 UNK         0.0600 
    192 H192       -5.1964  -20.7587  -46.8008 H         1 UNK         0.0600 
    193 H193       -3.6520  -20.0176  -47.1908 H         1 UNK         0.0600 
    194 H194       -3.9203  -20.7016  -45.5895 H         1 UNK         0.0600 
    195 H195       -3.3275  -23.1125  -44.7600 H         1 UNK         0.3000 
    196 H196       -5.6627  -24.6967  -44.4956 H         1 UNK         0.0600 
    197 H197       -4.5136  -25.5562  -42.4437 H         1 UNK         0.0600 
    198 H198       -4.4097  -23.8061  -42.5601 H         1 UNK         0.0600 
    199 H199       -3.0112  -24.7999  -42.9623 H         1 UNK         0.0600 
    200 H200       -2.3425  -25.5810  -45.4859 H         1 UNK         0.3000 
    201 H201       -2.8506  -28.4025  -45.7643 H         1 UNK         0.0600 
    202 H202       -0.5856  -27.4342  -45.3631 H         1 UNK         0.0600 
    203 H203       -0.6409  -26.6224  -46.9275 H         1 UNK         0.0600 
    204 H204       -0.6039  -28.3788  -46.8436 H         1 UNK         0.0600 
    205 H205       -3.7805  -25.7604  -47.7128 H         1 UNK         0.3000 
    206 H206       -4.5633  -25.4043  -49.7360 H         1 UNK         0.0600 
    207 H207       -6.1198  -27.3100  -49.2518 H         1 UNK         0.0600 
    208 H208       -5.7729  -27.1467  -50.9654 H         1 UNK         0.0600 
    209 H209       -4.9975  -28.4214  -50.0369 H         1 UNK         0.0600 
    210 H210       -1.7961  -25.5983  -49.3581 H         1 UNK         0.3000 
    211 H211       -0.6482  -26.6041  -51.9129 H         1 UNK         0.0600 
    212 H212        0.6419  -25.4871  -49.3642 H         1 UNK         0.0600 
    213 H213        1.5187  -26.0553  -50.7811 H         1 UNK         0.0600 
    214 H214        0.5615  -27.1821  -49.8315 H         1 UNK         0.0600 
    215 H215       -1.7450  -23.7189  -50.3124 H         1 UNK         0.3000 
    216 H216       -0.3948  -21.6662  -51.5617 H         1 UNK         0.0600 
    217 H217       -2.5228  -20.3317  -51.1175 H         1 UNK         0.0600 
    218 H218       -1.8677  -21.1829  -49.7351 H         1 UNK         0.0600 
    219 H219       -3.2718  -21.8240  -50.5655 H         1 UNK         0.0600 
    220 H220       -2.9975  -22.5144  -54.6457 H         1 UNK         0.3000 
    221 H221       -3.4849  -23.9472  -52.1147 H         1 UNK         0.0600 
    222 H222       -4.7267  -24.1518  -54.8964 H         1 UNK         0.0600 
    223 H223       -3.4404  -25.1830  -54.2665 H         1 UNK         0.0600 
    224 H224       -5.0340  -25.2258  -53.5357 H         1 UNK         0.0600 
    225 H225       -4.3399  -20.9547  -53.3797 H         1 UNK         0.3000 
    226 H226       -6.6450  -20.7021  -51.5949 H         1 UNK         0.0600 
    227 H227       -7.9833  -19.5630  -53.3861 H         1 UNK         0.0600 
    228 H228       -6.7355  -19.9192  -54.5763 H         1 UNK         0.0600 
    229 H229       -7.6663  -21.2259  -53.8479 H         1 UNK         0.0600 
    230 H230       -7.1656  -18.2957  -51.4454 H         1 UNK         0.3000 
    231 H231       -4.8893  -16.8822  -50.6319 H         1 UNK         0.0600 
    232 H232       -6.5203  -15.0314  -50.2210 H         1 UNK         0.0600 
    233 H233       -7.1451  -16.5715  -49.6569 H         1 UNK         0.0600 
    234 H234       -7.7351  -15.8802  -51.1700 H         1 UNK         0.0600 
    235 H235       -6.2525  -17.0281  -53.8034 H         1 UNK         0.3000 
    236 H236       -5.1044  -14.5600  -54.8404 H         1 UNK         0.0600 
    237 H237       -6.2309  -17.0424  -56.2464 H         1 UNK         0.0600 
    238 H238       -7.1400  -15.5850  -55.8419 H         1 UNK         0.0600 
    239 H239       -5.8424  -15.5124  -57.0228 H         1 UNK         0.0600 
    240 H240       -3.8217  -17.6346  -54.0144 H         1 UNK         0.3000 
    241 H241       -1.9800  -18.7153  -54.2328 H         1 UNK         0.0600 
    242 H242       -1.6511  -20.5164  -57.2227 H         1 UNK         0.3800 
    243 H243       -1.3506  -20.4455  -55.4981 H         1 UNK         0.3800 
    244 H244       -0.7908  -16.1732  -55.4356 H         1 UNK         0.0800 
    245 H245        0.1275  -17.6382  -55.3403 H         1 UNK         0.0800 
    246 H246        1.0615  -18.7277  -53.3280 H         1 UNK         0.0800 
    247 H247        1.9929  -17.2808  -53.6457 H         1 UNK         0.0800 
@<TRIPOS>BOND
     1    1    2 1    
     2    1  127 1    
     3    1  128 1    
     4    1  129 1    
     5    2    3 2    
     6    2    4 am   BACKBONE|DICT|INTERRES
     7    4    5 1    
     8    4  130 1    
     9    5    6 1    
    10    5   65 1    
    11    5  131 1    
    12    6    7 1    
    13    6  132 1    
    14    6  133 1    
    15    7    8 1    
    16    8    9 1    
    17    8  134 1    
    18    8  135 1    
    19    9   10 ar   
    20    9   14 ar   
    21   10   11 ar   
    22   10  136 1    
    23   11   12 ar   
    24   11  126 1    
    25   12   13 ar   
    26   12  137 1    
    27   13   14 ar   
    28   13   15 1    
    29   14  138 1    
    30   15   16 1    
    31   15  139 1    
    32   15  140 1    
    33   16   17 1    
    34   17   18 1    
    35   17  141 1    
    36   17  142 1    
    37   18   19 1    
    38   18   67 1    
    39   18  143 1    
    40   19   20 am   BACKBONE|DICT|INTERRES
    41   19  144 1    
    42   20   21 2    
    43   20   22 1    
    44   22   23 1    
    45   22   24 1    
    46   22  145 1    
    47   23  146 1    
    48   23  147 1    
    49   23  148 1    
    50   24   25 am   BACKBONE|DICT|INTERRES
    51   24  149 1    
    52   25   26 2    
    53   25   27 1    
    54   27   28 1    
    55   27   29 1    
    56   27  150 1    
    57   28  151 1    
    58   28  152 1    
    59   28  153 1    
    60   29   30 am   BACKBONE|DICT|INTERRES
    61   29  154 1    
    62   30   31 2    
    63   30   32 1    
    64   32   33 1    
    65   32   34 1    
    66   32  155 1    
    67   33  156 1    
    68   33  157 1    
    69   33  158 1    
    70   34   35 am   BACKBONE|DICT|INTERRES
    71   34  159 1    
    72   35   36 2    
    73   35   37 1    
    74   37   38 1    
    75   37   39 1    
    76   37  160 1    
    77   38  161 1    
    78   38  162 1    
    79   38  163 1    
    80   39   40 am   BACKBONE|DICT|INTERRES
    81   39  164 1    
    82   40   41 2    
    83   40   42 1    
    84   42   43 1    
    85   42   44 1    
    86   42  165 1    
    87   43  166 1    
    88   43  167 1    
    89   43  168 1    
    90   44   45 am   BACKBONE|DICT|INTERRES
    91   44  169 1    
    92   45   46 2    
    93   45   47 1    
    94   47   48 1    
    95   47   49 1    
    96   47  170 1    
    97   48  171 1    
    98   48  172 1    
    99   48  173 1    
   100   49   50 am   BACKBONE|DICT|INTERRES
   101   49  174 1    
   102   50   51 2    
   103   50   52 1    
   104   52   53 1    
   105   52   54 1    
   106   52  175 1    
   107   53  176 1    
   108   53  177 1    
   109   53  178 1    
   110   54   55 am   BACKBONE|DICT|INTERRES
   111   54  179 1    
   112   55   56 2    
   113   55   57 1    
   114   57   58 1    
   115   57   59 1    
   116   57  180 1    
   117   58  181 1    
   118   58  182 1    
   119   58  183 1    
   120   59   60 am   BACKBONE|DICT|INTERRES
   121   59  184 1    
   122   60   61 2    
   123   60   62 1    
   124   62   63 1    
   125   62   64 1    
   126   62  185 1    
   127   63  186 1    
   128   63  187 1    
   129   63  188 1    
   130   64   65 am   BACKBONE|DICT|INTERRES
   131   64  189 1    
   132   65   66 2    
   133   67   68 2    
   134   67   69 am   BACKBONE|DICT|INTERRES
   135   69   70 1    
   136   69  190 1    
   137   70   71 1    
   138   70   72 1    
   139   70  191 1    
   140   71  192 1    
   141   71  193 1    
   142   71  194 1    
   143   72   73 2    
   144   72   74 am   BACKBONE|DICT|INTERRES
   145   74   75 1    
   146   74  195 1    
   147   75   76 1    
   148   75   77 1    
   149   75  196 1    
   150   76  197 1    
   151   76  198 1    
   152   76  199 1    
   153   77   78 2    
   154   77   79 am   BACKBONE|DICT|INTERRES
   155   79   80 1    
   156   79  200 1    
   157   80   81 1    
   158   80   82 1    
   159   80  201 1    
   160   81  202 1    
   161   81  203 1    
   162   81  204 1    
   163   82   83 2    
   164   82   84 am   BACKBONE|DICT|INTERRES
   165   84   85 1    
   166   84  205 1    
   167   85   86 1    
   168   85   87 1    
   169   85  206 1    
   170   86  207 1    
   171   86  208 1    
   172   86  209 1    
   173   87   88 2    
   174   87   89 am   BACKBONE|DICT|INTERRES
   175   89   90 1    
   176   89  210 1    
   177   90   91 1    
   178   90   92 1    
   179   90  211 1    
   180   91  212 1    
   181   91  213 1    
   182   91  214 1    
   183   92   93 2    
   184   92   94 am   BACKBONE|DICT|INTERRES
   185   94   95 1    
   186   94  215 1    
   187   95   96 1    
   188   95   97 1    
   189   95  216 1    
   190   96  217 1    
   191   96  218 1    
   192   96  219 1    
   193   97   98 2    
   194   97   99 am   BACKBONE|DICT|INTERRES
   195   99  100 1    
   196   99  220 1    
   197  100  101 1    
   198  100  102 1    
   199  100  221 1    
   200  101  222 1    
   201  101  223 1    
   202  101  224 1    
   203  102  103 2    
   204  102  104 am   BACKBONE|DICT|INTERRES
   205  104  105 1    
   206  104  225 1    
   207  105  106 1    
   208  105  107 1    
   209  105  226 1    
   210  106  227 1    
   211  106  228 1    
   212  106  229 1    
   213  107  108 2    
   214  107  109 am   BACKBONE|DICT|INTERRES
   215  109  110 1    
   216  109  230 1    
   217  110  111 1    
   218  110  112 1    
   219  110  231 1    
   220  111  232 1    
   221  111  233 1    
   222  111  234 1    
   223  112  113 2    
   224  112  114 am   BACKBONE|DICT|INTERRES
   225  114  115 1    
   226  114  235 1    
   227  115  116 1    
   228  115  117 1    
   229  115  236 1    
   230  116  237 1    
   231  116  238 1    
   232  116  239 1    
   233  117  118 2    
   234  117  119 am   BACKBONE|DICT|INTERRES
   235  119  120 1    
   236  119  240 1    
   237  120  121 1    
   238  120  124 1    
   239  120  241 1    
   240  121  122 am   BACKBONE|DICT|INTERRES
   241  121  123 2    
   242  122  242 1    
   243  122  243 1    
   244  124  125 1    
   245  124  244 1    
   246  124  245 1    
   247  125  126 1    
   248  126  246 1    
   249  126  247 1    
@<TRIPOS>SUBSTRUCTURE
     1 UNK         1 GROUP             0       ****    0 ROOT    
