@<TRIPOS>MOLECULE
3R540
247   249    1
SMALL
USER_CHARGES


@<TRIPOS>ATOM
      1 CA          1.8276  -11.5865  -50.6506 C.3       0 UNK        -0.1800 
      2 C           2.3226  -11.8372  -49.2341 C.2       0 UNK         0.5000 
      3 O           2.3050  -10.9259  -48.4070 O.2       0 UNK        -0.5000 
      4 N           2.7448  -13.0753  -48.9409 N.am      1 UNK        -0.5000 
      5 CA          3.2957  -13.5083  -47.6472 C.3       1 UNK         0.1400 
      6 C6          3.9379  -14.9189  -47.7389 C.3       23 UNK        -0.0398 
      7 S7          2.7781  -16.3317  -47.7337 S.3       23 UNK        -0.2404 
      8 C8          2.3338  -16.5016  -49.4886 C.3       23 UNK        -0.0205 
      9 C9          1.2968  -17.5988  -49.6634 C.ar      23 UNK        -0.0193 
     10 C10        -0.0617  -17.3206  -49.4820 C.ar      23 UNK        -0.1150 
     11 C11        -1.0205  -18.3334  -49.5906 C.ar      23 UNK        -0.0193 
     12 C12        -0.5982  -19.6393  -49.8682 C.ar      23 UNK        -0.1150 
     13 C13         0.7533  -19.9262  -50.0767 C.ar      23 UNK        -0.0193 
     14 C14         1.6959  -18.8988  -49.9809 C.ar      23 UNK        -0.1150 
     15 C15         1.1893  -21.3538  -50.3795 C.3       23 UNK        -0.0205 
     16 S16         2.4196  -21.9954  -49.1938 S.3       23 UNK        -0.2404 
     17 C17         1.6416  -21.6439  -47.5791 C.3       23 UNK        -0.0398 
     18 CA          0.8971  -22.8534  -46.9756 C.3       11 UNK         0.1400 
     19 N           0.6888  -22.6823  -45.5405 N.am      11 UNK        -0.5000 
     20 C           0.2321  -23.6265  -44.7088 C.2       10 UNK         0.5000 
     21 O          -0.0256  -24.7801  -45.0530 O.2       10 UNK        -0.5000 
     22 CA         -0.0207  -23.1836  -43.2577 C.3       10 UNK         0.1400 
     23 CB          1.2862  -23.1751  -42.4506 C.3       10 UNK        -0.1800 
     24 N          -0.6423  -21.8602  -43.1925 N.am      10 UNK        -0.5000 
     25 C          -1.8878  -21.5896  -43.6068 C.2       9 UNK         0.5000 
     26 O          -2.6602  -22.4364  -44.0562 O.2       9 UNK        -0.5000 
     27 CA         -2.3237  -20.1158  -43.5447 C.3       9 UNK         0.1400 
     28 CB         -2.7180  -19.7204  -42.1138 C.3       9 UNK        -0.1800 
     29 N          -1.2856  -19.2082  -44.0353 N.am      9 UNK        -0.5000 
     30 C          -0.9041  -19.1328  -45.3193 C.2       8 UNK         0.5000 
     31 O          -1.3747  -19.8319  -46.2119 O.2       8 UNK        -0.5000 
     32 CA          0.2118  -18.1340  -45.6678 C.3       8 UNK         0.1400 
     33 CB         -0.3958  -16.7396  -45.8777 C.3       8 UNK        -0.1800 
     34 N           1.2622  -18.0527  -44.6536 N.am      8 UNK        -0.5000 
     35 C           1.9732  -19.0840  -44.1758 C.2       7 UNK         0.5000 
     36 O           1.8631  -20.2413  -44.5804 O.2       7 UNK        -0.5000 
     37 CA          2.9331  -18.7847  -43.0093 C.3       7 UNK         0.1400 
     38 CB          4.3577  -18.5674  -43.5407 C.3       7 UNK        -0.1800 
     39 N           2.5538  -17.6350  -42.1786 N.am      7 UNK        -0.5000 
     40 C           1.3865  -17.4634  -41.5367 C.2       6 UNK         0.5000 
     41 O           0.4394  -18.2461  -41.6295 O.2       6 UNK        -0.5000 
     42 CA          1.2451  -16.2002  -40.6626 C.3       6 UNK         0.1400 
     43 CB          0.6690  -16.5459  -39.2793 C.3       6 UNK        -0.1800 
     44 N           2.5373  -15.5266  -40.4741 N.am      6 UNK        -0.5000 
     45 C           2.9612  -14.3475  -40.9527 C.2       5 UNK         0.5000 
     46 O           4.1282  -14.0002  -40.7722 O.2       5 UNK        -0.5000 
     47 CA          1.9889  -13.4302  -41.7372 C.3       5 UNK         0.1400 
     48 CB          0.9552  -12.7579  -40.8063 C.3       5 UNK        -0.1800 
     49 N           2.6704  -12.4234  -42.5611 N.am      5 UNK        -0.5000 
     50 C           3.3745  -11.3466  -42.1728 C.2       4 UNK         0.5000 
     51 O           3.5519  -11.0020  -41.0036 O.2       4 UNK        -0.5000 
     52 CA          3.9423  -10.4739  -43.3058 C.3       4 UNK         0.1400 
     53 CB          5.1845  -11.1206  -43.9398 C.3       4 UNK        -0.1800 
     54 N           2.9305  -10.2345  -44.3342 N.am      4 UNK        -0.5000 
     55 C           1.9555   -9.3192  -44.2341 C.2       3 UNK         0.5000 
     56 O           1.8770   -8.4991  -43.3187 O.2       3 UNK        -0.5000 
     57 CA          0.8754   -9.3299  -45.3324 C.3       3 UNK         0.1400 
     58 CB          1.2636   -8.3881  -46.4821 C.3       3 UNK        -0.1800 
     59 N           0.6321  -10.6745  -45.8594 N.am      3 UNK        -0.5000 
     60 C          -0.0192  -11.6359  -45.1851 C.2       2 UNK         0.5000 
     61 O          -0.5466  -11.4574  -44.0873 O.2       2 UNK        -0.5000 
     62 CA         -0.0833  -13.0386  -45.8227 C.3       2 UNK         0.1400 
     63 CB         -1.4258  -13.2375  -46.5430 C.3       2 UNK        -0.1800 
     64 N           1.0017  -13.3074  -46.7663 N.am      2 UNK        -0.5000 
     65 C           2.3069  -13.3627  -46.4638 C.2       1 UNK         0.5000 
     66 O           2.7397  -13.2501  -45.3161 O.2       1 UNK        -0.5000 
     67 C          -0.4269  -23.1532  -47.7071 C.2       11 UNK         0.5000 
     68 O          -0.4805  -24.1137  -48.4720 O.2       11 UNK        -0.5000 
     69 N          -1.4837  -22.3767  -47.4254 N.am      12 UNK        -0.5000 
     70 CA         -2.8279  -22.5732  -47.9717 C.3       12 UNK         0.1400 
     71 CB         -3.7381  -21.4151  -47.5435 C.3       12 UNK        -0.1800 
     72 C          -3.4558  -23.9165  -47.5661 C.2       12 UNK         0.5000 
     73 O          -4.1196  -24.5406  -48.3909 O.2       12 UNK        -0.5000 
     74 N          -3.2165  -24.3608  -46.3248 N.am      13 UNK        -0.5000 
     75 CA         -3.6520  -25.6686  -45.8321 C.3       13 UNK         0.1400 
     76 CB         -3.4215  -25.7523  -44.3157 C.3       13 UNK        -0.1800 
     77 C          -2.9648  -26.8416  -46.5594 C.2       13 UNK         0.5000 
     78 O          -3.6113  -27.8592  -46.8106 O.2       13 UNK        -0.5000 
     79 N          -1.6786  -26.6752  -46.8944 N.am      14 UNK        -0.5000 
     80 CA         -0.8800  -27.6591  -47.6219 C.3       14 UNK         0.1400 
     81 CB          0.6112  -27.3911  -47.3619 C.3       14 UNK        -0.1800 
     82 C          -1.1799  -27.6665  -49.1326 C.2       14 UNK         0.5000 
     83 O          -1.3859  -28.7364  -49.7068 O.2       14 UNK        -0.5000 
     84 N          -1.1753  -26.4796  -49.7525 N.am      15 UNK        -0.5000 
     85 CA         -1.2855  -26.2935  -51.2014 C.3       15 UNK         0.1400 
     86 CB         -0.6435  -24.9466  -51.5735 C.3       15 UNK        -0.1800 
     87 C          -2.7279  -26.3479  -51.7358 C.2       15 UNK         0.5000 
     88 O          -2.9001  -26.5577  -52.9363 O.2       15 UNK        -0.5000 
     89 N          -3.7107  -26.1436  -50.8466 N.am      16 UNK        -0.5000 
     90 CA         -5.1291  -25.8617  -51.0864 C.3       16 UNK         0.1400 
     91 CB         -5.7948  -26.8377  -52.0766 C.3       16 UNK        -0.1800 
     92 C          -5.3146  -24.3929  -51.5054 C.2       16 UNK         0.5000 
     93 O          -4.7634  -23.9614  -52.5196 O.2       16 UNK        -0.5000 
     94 N          -6.0953  -23.6475  -50.7120 N.am      17 UNK        -0.5000 
     95 CA         -6.3092  -22.2014  -50.8316 C.3       17 UNK         0.1400 
     96 CB         -7.2610  -21.7453  -49.7152 C.3       17 UNK        -0.1800 
     97 C          -6.8486  -21.7468  -52.1996 C.2       17 UNK         0.5000 
     98 O          -6.4733  -20.6742  -52.6714 O.2       17 UNK        -0.5000 
     99 N          -7.6990  -22.5781  -52.8165 N.am      18 UNK        -0.5000 
    100 CA        -8.2719  -22.3438  -54.1418 C.3       18 UNK         0.1400 
    101 CB        -9.4687  -23.2848  -54.3467 C.3       18 UNK        -0.1800 
    102 C         -7.2468  -22.5193  -55.2776 C.2       18 UNK         0.5000 
    103 O         -7.3159  -21.7931  -56.2690 O.2       18 UNK        -0.5000 
    104 N         -6.3102  -23.4637  -55.1113 N.am      19 UNK        -0.5000 
    105 CA        -5.2321  -23.7338  -56.0643 C.3       19 UNK         0.1400 
    106 CB        -4.7152  -25.1655  -55.8625 C.3       19 UNK        -0.1800 
    107 C         -4.0912  -22.7124  -55.9263 C.2       19 UNK         0.5000 
    108 O         -3.5411  -22.2706  -56.9356 O.2       19 UNK        -0.5000 
    109 N         -3.7862  -22.3279  -54.6794 N.am      20 UNK        -0.5000 
    110 CA        -2.8353  -21.2703  -54.3335 C.3       20 UNK         0.1400 
    111 CB        -2.4810  -21.4005  -52.8448 C.3       20 UNK        -0.1800 
    112 C         -3.3528  -19.8518  -54.6601 C.2       20 UNK         0.5000 
    113 O         -2.5462  -18.9258  -54.7510 O.2       20 UNK        -0.5000 
    114 N         -4.6756  -19.7183  -54.8440 N.am      21 UNK        -0.5000 
    115 CA        -5.4322  -18.4991  -55.1456 C.3       21 UNK         0.1400 
    116 CB        -5.0484  -17.9389  -56.5310 C.3       21 UNK        -0.1800 
    117 C         -5.3430  -17.4557  -54.0130 C.2       21 UNK         0.5000 
    118 O         -5.1476  -16.2657  -54.2702 O.2       21 UNK        -0.5000 
    119 N         -5.4742  -17.9360  -52.7725 N.am      22 UNK        -0.5000 
    120 CA        -5.4303  -17.1325  -51.5434 C.3       22 UNK         0.1400 
    121 C         -6.7080  -16.2699  -51.3537 C.2       22 UNK         0.5000 
    122 N         -6.5801  -15.0808  -50.7807 N.am      22 UNK        -0.7600 
    123 O         -7.8188  -16.6820  -51.6814 O.2       22 UNK        -0.5000 
    124 C124       -5.1784  -18.0166  -50.2967 C.3       23 UNK        -0.0398 
    125 S125       -3.6264  -18.9622  -50.4362 S.3       23 UNK        -0.2404 
    126 C126       -2.4956  -17.9965  -49.3768 C.3       23 UNK        -0.0205 
    127 H127        0.7912  -11.2495  -50.6309 H         1 UNK         0.0600 
    128 H128        2.4299  -10.8122  -51.1256 H         1 UNK         0.0600 
    129 H129        1.8820  -12.4856  -51.2648 H         1 UNK         0.0600 
    130 H130        2.7362  -13.7758  -49.6668 H         1 UNK         0.3000 
    131 H131        4.1094  -12.8132  -47.4289 H         1 UNK         0.0600 
    132 H132        4.5825  -14.9868  -48.6164 H         1 UNK         0.0800 
    133 H133        4.6039  -15.0579  -46.8857 H         1 UNK         0.0800 
    134 H134        3.2276  -16.7222  -50.0742 H         1 UNK         0.0800 
    135 H135        1.9322  -15.5620  -49.8669 H         1 UNK         0.0800 
    136 H136       -0.3694  -16.3134  -49.2383 H         1 UNK         0.1150 
    137 H137       -1.3238  -20.4378  -49.9241 H         1 UNK         0.1150 
    138 H138        2.7446  -19.1200  -50.1220 H         1 UNK         0.1150 
    139 H139        0.3307  -22.0268  -50.3941 H         1 UNK         0.0800 
    140 H140        1.6168  -21.3863  -51.3823 H         1 UNK         0.0800 
    141 H141        0.9960  -20.7670  -47.6210 H         1 UNK         0.0800 
    142 H142        2.4614  -21.3608  -46.9179 H         1 UNK         0.0800 
    143 H143        1.5365  -23.7315  -47.0911 H         1 UNK         0.0600 
    144 H144        0.9193  -21.7685  -45.1582 H         1 UNK         0.3000 
    145 H145       -0.7016  -23.9049  -42.8007 H         1 UNK         0.0600 
    146 H146        1.1025  -22.9228  -41.4061 H         1 UNK         0.0600 
    147 H147        1.7613  -24.1568  -42.4690 H         1 UNK         0.0600 
    148 H148        2.0033  -22.4559  -42.8482 H         1 UNK         0.0600 
    149 H149       -0.0636  -21.0967  -42.8739 H         1 UNK         0.3000 
    150 H150       -3.2032  -20.0020  -44.1823 H         1 UNK         0.0600 
    151 H151       -3.5118  -20.3658  -41.7358 H         1 UNK         0.0600 
    152 H152       -3.0865  -18.6952  -42.0759 H         1 UNK         0.0600 
    153 H153       -1.8755  -19.7983  -41.4255 H         1 UNK         0.0600 
    154 H154       -0.8024  -18.6489  -43.3418 H         1 UNK         0.3000 
    155 H155        0.6744  -18.4581  -46.6023 H         1 UNK         0.0600 
    156 H156        0.3590  -16.0220  -46.1917 H         1 UNK         0.0600 
    157 H157       -1.1620  -16.7620  -46.6534 H         1 UNK         0.0600 
    158 H158       -0.8605  -16.3587  -44.9676 H         1 UNK         0.0600 
    159 H159        1.4353  -17.1415  -44.2587 H         1 UNK         0.3000 
    160 H160        2.9375  -19.6651  -42.3636 H         1 UNK         0.0600 
    161 H161        4.4207  -17.6779  -44.1691 H         1 UNK         0.0600 
    162 H162        4.6849  -19.4172  -44.1416 H         1 UNK         0.0600 
    163 H163        5.0718  -18.4552  -42.7247 H         1 UNK         0.0600 
    164 H164        3.2662  -16.9318  -42.0476 H         1 UNK         0.3000 
    165 H165        0.5220  -15.5660  -41.1717 H         1 UNK         0.0600 
    166 H166        0.5492  -15.6509  -38.6685 H         1 UNK         0.0600 
    167 H167       -0.3141  -17.0107  -39.3649 H         1 UNK         0.0600 
    168 H168        1.3138  -17.2379  -38.7360 H         1 UNK         0.0600 
    169 H169        3.2060  -16.0657  -39.9426 H         1 UNK         0.3000 
    170 H170        1.4569  -14.0476  -42.4610 H         1 UNK         0.0600 
    171 H171        0.3235  -13.4880  -40.3026 H         1 UNK         0.0600 
    172 H172        1.4339  -12.1672  -40.0252 H         1 UNK         0.0600 
    173 H173        0.2947  -12.0964  -41.3673 H         1 UNK         0.0600 
    174 H174        2.6573  -12.6247  -43.5580 H         1 UNK         0.3000 
    175 H175        4.2476   -9.5168  -42.8769 H         1 UNK         0.0600 
    176 H176        4.9594  -12.0877  -44.3895 H         1 UNK         0.0600 
    177 H177        5.6082  -10.4817  -44.7148 H         1 UNK         0.0600 
    178 H178        5.9609  -11.2824  -43.1911 H         1 UNK         0.0600 
    179 H179        2.8979  -10.8912  -45.1007 H         1 UNK         0.3000 
    180 H180       -0.0529   -8.9593  -44.8923 H         1 UNK         0.0600 
    181 H181        2.2125   -8.6752  -46.9363 H         1 UNK         0.0600 
    182 H182        1.3700   -7.3630  -46.1251 H         1 UNK         0.0600 
    183 H183        0.5043   -8.3838  -47.2642 H         1 UNK         0.0600 
    184 H184        1.0525  -10.8909  -46.7572 H         1 UNK         0.3000 
    185 H185       -0.0122  -13.7683  -45.0137 H         1 UNK         0.0600 
    186 H186       -2.2615  -13.0997  -45.8557 H         1 UNK         0.0600 
    187 H187       -1.5518  -12.5260  -47.3600 H         1 UNK         0.0600 
    188 H188       -1.5110  -14.2413  -46.9584 H         1 UNK         0.0600 
    189 H189        0.7423  -13.3962  -47.7373 H         1 UNK         0.3000 
    190 H190       -1.3661  -21.5679  -46.8186 H         1 UNK         0.3000 
    191 H191       -2.7486  -22.5594  -49.0609 H         1 UNK         0.0600 
    192 H192       -4.7348  -21.5213  -47.9691 H         1 UNK         0.0600 
    193 H193       -3.3433  -20.4604  -47.8845 H         1 UNK         0.0600 
    194 H194       -3.8434  -21.3643  -46.4593 H         1 UNK         0.0600 
    195 H195       -2.7129  -23.7668  -45.6751 H         1 UNK         0.3000 
    196 H196       -4.7256  -25.7525  -46.0137 H         1 UNK         0.0600 
    197 H197       -3.7662  -26.7088  -43.9208 H         1 UNK         0.0600 
    198 H198       -3.9670  -24.9681  -43.7906 H         1 UNK         0.0600 
    199 H199       -2.3665  -25.6533  -44.0609 H         1 UNK         0.0600 
    200 H200       -1.2123  -25.8174  -46.6236 H         1 UNK         0.3000 
    201 H201       -1.1113  -28.6523  -47.2310 H         1 UNK         0.0600 
    202 H202        0.8432  -27.4625  -46.2990 H         1 UNK         0.0600 
    203 H203        0.9104  -26.3984  -47.7002 H         1 UNK         0.0600 
    204 H204        1.2359  -28.1184  -47.8817 H         1 UNK         0.0600 
    205 H205       -0.9748  -25.6405  -49.2084 H         1 UNK         0.3000 
    206 H206       -0.7207  -27.0851  -51.6985 H         1 UNK         0.0600 
    207 H207        0.3955  -24.8983  -51.2469 H         1 UNK         0.0600 
    208 H208       -0.6542  -24.7904  -52.6529 H         1 UNK         0.0600 
    209 H209       -1.1768  -24.1121  -51.1167 H         1 UNK         0.0600 
    210 H210       -3.4210  -25.9484  -49.8957 H         1 UNK         0.3000 
    211 H211       -5.6171  -26.0073  -50.1216 H         1 UNK         0.0600 
    212 H212       -5.4630  -26.6775  -53.1024 H         1 UNK         0.0600 
    213 H213       -6.8779  -26.7115  -52.0692 H         1 UNK         0.0600 
    214 H214       -5.5854  -27.8741  -51.8118 H         1 UNK         0.0600 
    215 H215       -6.4878  -24.0825  -49.8895 H         1 UNK         0.3000 
    216 H216       -5.3432  -21.7155  -50.6804 H         1 UNK         0.0600 
    217 H217       -7.3968  -20.6636  -49.7324 H         1 UNK         0.0600 
    218 H218       -6.8785  -22.0093  -48.7299 H         1 UNK         0.0600 
    219 H219       -8.2473  -22.1995  -49.8193 H         1 UNK         0.0600 
    220 H220       -7.9540  -23.4366  -52.3511 H         1 UNK         0.3000 
    221 H221       -8.6374  -21.3152  -54.1804 H         1 UNK         0.0600 
    222 H222       -9.1709  -24.3330  -54.2989 H         1 UNK         0.0600 
    223 H223      -10.2354  -23.1181  -53.5898 H         1 UNK         0.0600 
    224 H224       -9.9330  -23.1193  -55.3199 H         1 UNK         0.0600 
    225 H225       -6.2720  -23.9657  -54.2348 H         1 UNK         0.3000 
    226 H226       -5.6304  -23.6601  -57.0786 H         1 UNK         0.0600 
    227 H227       -5.5144  -25.8962  -55.9867 H         1 UNK         0.0600 
    228 H228       -3.9377  -25.4050  -56.5888 H         1 UNK         0.0600 
    229 H229       -4.2873  -25.3020  -54.8696 H         1 UNK         0.0600 
    230 H230       -4.2396  -22.8033  -53.9022 H         1 UNK         0.3000 
    231 H231       -1.9236  -21.4248  -54.9140 H         1 UNK         0.0600 
    232 H232       -2.0049  -22.3581  -52.6370 H         1 UNK         0.0600 
    233 H233       -3.3691  -21.3283  -52.2171 H         1 UNK         0.0600 
    234 H234       -1.7890  -20.6169  -52.5336 H         1 UNK         0.0600 
    235 H235       -5.2408  -20.5395  -54.6786 H         1 UNK         0.3000 
    236 H236       -6.4794  -18.8012  -55.1950 H         1 UNK         0.0600 
    237 H237       -5.7029  -17.1130  -56.8120 H         1 UNK         0.0600 
    238 H238       -4.0246  -17.5646  -56.5497 H         1 UNK         0.0600 
    239 H239       -5.1409  -18.7030  -57.3030 H         1 UNK         0.0600 
    240 H240       -5.6807  -18.9242  -52.6577 H         1 UNK         0.3000 
    241 H241       -4.5841  -16.4487  -51.6382 H         1 UNK         0.0600 
    242 H242       -5.6814  -14.7198  -50.4997 H         1 UNK         0.3800 
    243 H243       -7.4036  -14.5163  -50.6385 H         1 UNK         0.3800 
    244 H244       -5.9964  -18.7258  -50.1641 H         1 UNK         0.0800 
    245 H245       -5.1494  -17.4121  -49.3885 H         1 UNK         0.0800 
    246 H246       -2.7482  -18.1645  -48.3293 H         1 UNK         0.0800 
    247 H247       -2.6601  -16.9363  -49.5745 H         1 UNK         0.0800 
@<TRIPOS>BOND
     1    1    2 1    
     2    1  127 1    
     3    1  128 1    
     4    1  129 1    
     5    2    3 2    
     6    2    4 am   BACKBONE|DICT|INTERRES
     7    4    5 1    
     8    4  130 1    
     9    5    6 1    
    10    5   65 1    
    11    5  131 1    
    12    6    7 1    
    13    6  132 1    
    14    6  133 1    
    15    7    8 1    
    16    8    9 1    
    17    8  134 1    
    18    8  135 1    
    19    9   10 ar   
    20    9   14 ar   
    21   10   11 ar   
    22   10  136 1    
    23   11   12 ar   
    24   11  126 1    
    25   12   13 ar   
    26   12  137 1    
    27   13   14 ar   
    28   13   15 1    
    29   14  138 1    
    30   15   16 1    
    31   15  139 1    
    32   15  140 1    
    33   16   17 1    
    34   17   18 1    
    35   17  141 1    
    36   17  142 1    
    37   18   19 1    
    38   18   67 1    
    39   18  143 1    
    40   19   20 am   BACKBONE|DICT|INTERRES
    41   19  144 1    
    42   20   21 2    
    43   20   22 1    
    44   22   23 1    
    45   22   24 1    
    46   22  145 1    
    47   23  146 1    
    48   23  147 1    
    49   23  148 1    
    50   24   25 am   BACKBONE|DICT|INTERRES
    51   24  149 1    
    52   25   26 2    
    53   25   27 1    
    54   27   28 1    
    55   27   29 1    
    56   27  150 1    
    57   28  151 1    
    58   28  152 1    
    59   28  153 1    
    60   29   30 am   BACKBONE|DICT|INTERRES
    61   29  154 1    
    62   30   31 2    
    63   30   32 1    
    64   32   33 1    
    65   32   34 1    
    66   32  155 1    
    67   33  156 1    
    68   33  157 1    
    69   33  158 1    
    70   34   35 am   BACKBONE|DICT|INTERRES
    71   34  159 1    
    72   35   36 2    
    73   35   37 1    
    74   37   38 1    
    75   37   39 1    
    76   37  160 1    
    77   38  161 1    
    78   38  162 1    
    79   38  163 1    
    80   39   40 am   BACKBONE|DICT|INTERRES
    81   39  164 1    
    82   40   41 2    
    83   40   42 1    
    84   42   43 1    
    85   42   44 1    
    86   42  165 1    
    87   43  166 1    
    88   43  167 1    
    89   43  168 1    
    90   44   45 am   BACKBONE|DICT|INTERRES
    91   44  169 1    
    92   45   46 2    
    93   45   47 1    
    94   47   48 1    
    95   47   49 1    
    96   47  170 1    
    97   48  171 1    
    98   48  172 1    
    99   48  173 1    
   100   49   50 am   BACKBONE|DICT|INTERRES
   101   49  174 1    
   102   50   51 2    
   103   50   52 1    
   104   52   53 1    
   105   52   54 1    
   106   52  175 1    
   107   53  176 1    
   108   53  177 1    
   109   53  178 1    
   110   54   55 am   BACKBONE|DICT|INTERRES
   111   54  179 1    
   112   55   56 2    
   113   55   57 1    
   114   57   58 1    
   115   57   59 1    
   116   57  180 1    
   117   58  181 1    
   118   58  182 1    
   119   58  183 1    
   120   59   60 am   BACKBONE|DICT|INTERRES
   121   59  184 1    
   122   60   61 2    
   123   60   62 1    
   124   62   63 1    
   125   62   64 1    
   126   62  185 1    
   127   63  186 1    
   128   63  187 1    
   129   63  188 1    
   130   64   65 am   BACKBONE|DICT|INTERRES
   131   64  189 1    
   132   65   66 2    
   133   67   68 2    
   134   67   69 am   BACKBONE|DICT|INTERRES
   135   69   70 1    
   136   69  190 1    
   137   70   71 1    
   138   70   72 1    
   139   70  191 1    
   140   71  192 1    
   141   71  193 1    
   142   71  194 1    
   143   72   73 2    
   144   72   74 am   BACKBONE|DICT|INTERRES
   145   74   75 1    
   146   74  195 1    
   147   75   76 1    
   148   75   77 1    
   149   75  196 1    
   150   76  197 1    
   151   76  198 1    
   152   76  199 1    
   153   77   78 2    
   154   77   79 am   BACKBONE|DICT|INTERRES
   155   79   80 1    
   156   79  200 1    
   157   80   81 1    
   158   80   82 1    
   159   80  201 1    
   160   81  202 1    
   161   81  203 1    
   162   81  204 1    
   163   82   83 2    
   164   82   84 am   BACKBONE|DICT|INTERRES
   165   84   85 1    
   166   84  205 1    
   167   85   86 1    
   168   85   87 1    
   169   85  206 1    
   170   86  207 1    
   171   86  208 1    
   172   86  209 1    
   173   87   88 2    
   174   87   89 am   BACKBONE|DICT|INTERRES
   175   89   90 1    
   176   89  210 1    
   177   90   91 1    
   178   90   92 1    
   179   90  211 1    
   180   91  212 1    
   181   91  213 1    
   182   91  214 1    
   183   92   93 2    
   184   92   94 am   BACKBONE|DICT|INTERRES
   185   94   95 1    
   186   94  215 1    
   187   95   96 1    
   188   95   97 1    
   189   95  216 1    
   190   96  217 1    
   191   96  218 1    
   192   96  219 1    
   193   97   98 2    
   194   97   99 am   BACKBONE|DICT|INTERRES
   195   99  100 1    
   196   99  220 1    
   197  100  101 1    
   198  100  102 1    
   199  100  221 1    
   200  101  222 1    
   201  101  223 1    
   202  101  224 1    
   203  102  103 2    
   204  102  104 am   BACKBONE|DICT|INTERRES
   205  104  105 1    
   206  104  225 1    
   207  105  106 1    
   208  105  107 1    
   209  105  226 1    
   210  106  227 1    
   211  106  228 1    
   212  106  229 1    
   213  107  108 2    
   214  107  109 am   BACKBONE|DICT|INTERRES
   215  109  110 1    
   216  109  230 1    
   217  110  111 1    
   218  110  112 1    
   219  110  231 1    
   220  111  232 1    
   221  111  233 1    
   222  111  234 1    
   223  112  113 2    
   224  112  114 am   BACKBONE|DICT|INTERRES
   225  114  115 1    
   226  114  235 1    
   227  115  116 1    
   228  115  117 1    
   229  115  236 1    
   230  116  237 1    
   231  116  238 1    
   232  116  239 1    
   233  117  118 2    
   234  117  119 am   BACKBONE|DICT|INTERRES
   235  119  120 1    
   236  119  240 1    
   237  120  121 1    
   238  120  124 1    
   239  120  241 1    
   240  121  122 am   BACKBONE|DICT|INTERRES
   241  121  123 2    
   242  122  242 1    
   243  122  243 1    
   244  124  125 1    
   245  124  244 1    
   246  124  245 1    
   247  125  126 1    
   248  126  246 1    
   249  126  247 1    
@<TRIPOS>SUBSTRUCTURE
     1 UNK         1 GROUP             0       ****    0 ROOT    
