@<TRIPOS>MOLECULE
3R540
247   249    1
SMALL
USER_CHARGES


@<TRIPOS>ATOM
      1 CA          1.5423   -9.1096  -47.2677 C.3       0 UNK        -0.1800 
      2 C           0.8334  -10.3834  -46.8316 C.2       0 UNK         0.5000 
      3 O           1.4249  -11.4597  -46.8757 O.2       0 UNK        -0.5000 
      4 N          -0.4264  -10.2697  -46.3983 N.am      1 UNK        -0.5000 
      5 CA         -1.2766  -11.3721  -45.9304 C.3       1 UNK         0.1400 
      6 C6         -2.7815  -11.0354  -46.1096 C.3       23 UNK        -0.0398 
      7 S7         -3.2273  -10.6692  -47.8427 S.3       23 UNK        -0.2404 
      8 C8         -4.3538  -12.0412  -48.2456 C.3       23 UNK        -0.0205 
      9 C9         -3.6359  -13.3813  -48.2922 C.ar      23 UNK        -0.0193 
     10 C10        -2.7690  -13.6744  -49.3495 C.ar      23 UNK        -0.1150 
     11 C11        -2.1209  -14.9103  -49.4114 C.ar      23 UNK        -0.0193 
     12 C12        -2.3524  -15.8588  -48.4125 C.ar      23 UNK        -0.1150 
     13 C13        -3.2108  -15.5760  -47.3476 C.ar      23 UNK        -0.0193 
     14 C14        -3.8498  -14.3344  -47.2909 C.ar      23 UNK        -0.1150 
     15 C15        -3.4357  -16.6114  -46.2590 C.3       23 UNK        -0.0205 
     16 S16        -4.8656  -17.6654  -46.6296 S.3       23 UNK        -0.2404 
     17 C17        -4.6879  -18.9585  -45.3539 C.3       23 UNK        -0.0398 
     18 CA         -4.2786  -20.3159  -45.9715 C.3       11 UNK         0.1400 
     19 N          -2.9328  -20.3007  -46.5555 N.am      11 UNK        -0.5000 
     20 C          -2.4736  -21.2308  -47.4037 C.2       10 UNK         0.5000 
     21 O          -3.1451  -22.1819  -47.7996 O.2       10 UNK        -0.5000 
     22 CA         -1.0055  -21.1104  -47.8425 C.3       10 UNK         0.1400 
     23 CB         -0.8599  -20.1136  -49.0013 C.3       10 UNK        -0.1800 
     24 N          -0.1376  -20.7242  -46.7297 N.am      10 UNK        -0.5000 
     25 C           0.1622  -21.5426  -45.7087 C.2       9 UNK         0.5000 
     26 O          -0.2393  -22.7030  -45.6305 O.2       9 UNK        -0.5000 
     27 CA          1.0160  -20.9697  -44.5612 C.3       9 UNK         0.1400 
     28 CB          2.5094  -21.1970  -44.8373 C.3       9 UNK        -0.1800 
     29 N           0.7878  -19.5473  -44.3149 N.am      9 UNK        -0.5000 
     30 C          -0.3832  -18.9950  -43.9684 C.2       8 UNK         0.5000 
     31 O          -1.4173  -19.6366  -43.7813 O.2       8 UNK        -0.5000 
     32 CA         -0.4157  -17.4580  -43.8692 C.3       8 UNK         0.1400 
     33 CB         -0.1723  -17.0174  -42.4200 C.3       8 UNK        -0.1800 
     34 N           0.5349  -16.7746  -44.7565 N.am      8 UNK        -0.5000 
     35 C           0.6009  -16.9170  -46.0905 C.2       7 UNK         0.5000 
     36 O          -0.0943  -17.7036  -46.7328 O.2       7 UNK        -0.5000 
     37 CA          1.6530  -16.0710  -46.8204 C.3       7 UNK         0.1400 
     38 CB          1.1079  -14.6683  -47.1137 C.3       7 UNK        -0.1800 
     39 N           2.8901  -15.9590  -46.0499 N.am      7 UNK        -0.5000 
     40 C           3.8118  -16.9278  -45.9582 C.2       6 UNK         0.5000 
     41 O           3.6857  -18.0280  -46.4974 O.2       6 UNK        -0.5000 
     42 CA          5.0668  -16.6377  -45.1064 C.3       6 UNK         0.1400 
     43 CB          6.3364  -17.3076  -45.6712 C.3       6 UNK        -0.1800 
     44 N           5.2938  -15.2118  -44.8436 N.am      6 UNK        -0.5000 
     45 C           5.5830  -14.2383  -45.7230 C.2       5 UNK         0.5000 
     46 O           5.7585  -14.4334  -46.9259 O.2       5 UNK        -0.5000 
     47 CA          5.6609  -12.7960  -45.1773 C.3       5 UNK         0.1400 
     48 CB          4.5949  -11.9103  -45.8404 C.3       5 UNK        -0.1800 
     49 N           5.4595  -12.7369  -43.7294 N.am      5 UNK        -0.5000 
     50 C           6.4278  -12.8063  -42.8065 C.2       4 UNK         0.5000 
     51 O           7.6292  -12.8440  -43.0722 O.2       4 UNK        -0.5000 
     52 CA          5.9665  -12.8795  -41.3363 C.3       4 UNK         0.1400 
     53 CB          5.9294  -11.4753  -40.7145 C.3       4 UNK        -0.1800 
     54 N           4.6496  -13.5063  -41.1779 N.am      4 UNK        -0.5000 
     55 C           4.3715  -14.7892  -41.4539 C.2       3 UNK         0.5000 
     56 O           5.2133  -15.6018  -41.8327 O.2       3 UNK        -0.5000 
     57 CA          2.8980  -15.2224  -41.3574 C.3       3 UNK         0.1400 
     58 CB          2.5935  -15.8037  -39.9691 C.3       3 UNK        -0.1800 
     59 N           1.9676  -14.1268  -41.6394 N.am      3 UNK        -0.5000 
     60 C           1.7751  -13.5797  -42.8463 C.2       2 UNK         0.5000 
     61 O           2.3196  -13.9830  -43.8780 O.2       2 UNK        -0.5000 
     62 CA          0.8678  -12.3443  -42.8751 C.3       2 UNK         0.1400 
     63 CB          1.6623  -11.0939  -42.4604 C.3       2 UNK        -0.1800 
     64 N           0.3157  -12.1255  -44.2091 N.am      2 UNK        -0.5000 
     65 C          -0.9342  -11.7183  -44.4617 C.2       1 UNK         0.5000 
     66 O          -1.7823  -11.5630  -43.5804 O.2       1 UNK        -0.5000 
     67 C          -4.4362  -21.4657  -44.9569 C.2       11 UNK         0.5000 
     68 O          -5.4781  -22.1215  -44.9513 O.2       11 UNK        -0.5000 
     69 N          -3.3872  -21.7393  -44.1661 N.am      12 UNK        -0.5000 
     70 CA         -3.3146  -22.8778  -43.2439 C.3       12 UNK         0.1400 
     71 CB         -2.0406  -22.7664  -42.3940 C.3       12 UNK        -0.1800 
     72 C          -3.3733  -24.2420  -43.9626 C.2       12 UNK         0.5000 
     73 O          -3.9685  -25.1827  -43.4369 O.2       12 UNK        -0.5000 
     74 N          -2.7973  -24.3079  -45.1702 N.am      13 UNK        -0.5000 
     75 CA         -2.8521  -25.4549  -46.0787 C.3       13 UNK         0.1400 
     76 CB         -1.6179  -25.4103  -46.9959 C.3       13 UNK        -0.1800 
     77 C          -4.1479  -25.5157  -46.9173 C.2       13 UNK         0.5000 
     78 O          -4.2600  -26.3939  -47.7746 O.2       13 UNK        -0.5000 
     79 N          -5.0826  -24.5742  -46.7035 N.am      14 UNK        -0.5000 
     80 CA         -6.3519  -24.3992  -47.4227 C.3       14 UNK         0.1400 
     81 CB         -7.3282  -25.5433  -47.0807 C.3       14 UNK        -0.1800 
     82 C          -6.1557  -24.2142  -48.9425 C.2       14 UNK         0.5000 
     83 O          -6.9340  -24.7402  -49.7422 O.2       14 UNK        -0.5000 
     84 N          -5.0658  -23.5227  -49.3116 N.am      15 UNK        -0.5000 
     85 CA         -4.5627  -23.2877  -50.6677 C.3       15 UNK         0.1400 
     86 CB         -5.5313  -22.3644  -51.4351 C.3       15 UNK        -0.1800 
     87 C          -4.2410  -24.5799  -51.4490 C.2       15 UNK         0.5000 
     88 O          -4.1784  -24.5363  -52.6772 O.2       15 UNK        -0.5000 
     89 N          -4.0980  -25.7141  -50.7434 N.am      16 UNK        -0.5000 
     90 CA         -4.0248  -27.0789  -51.2760 C.3       16 UNK         0.1400 
     91 CB         -2.6828  -27.3096  -51.9998 C.3       16 UNK        -0.1800 
     92 C          -5.2506  -27.4331  -52.1490 C.2       16 UNK         0.5000 
     93 O          -5.0985  -28.0650  -53.1941 O.2       16 UNK        -0.5000 
     94 N          -6.4390  -26.9683  -51.7283 N.am      17 UNK        -0.5000 
     95 CA         -7.7104  -27.0157  -52.4622 C.3       17 UNK         0.1400 
     96 CB         -8.1934  -28.4678  -52.6619 C.3       17 UNK        -0.1800 
     97 C          -7.6490  -26.1997  -53.7727 C.2       17 UNK         0.5000 
     98 O          -8.1069  -26.6580  -54.8203 O.2       17 UNK        -0.5000 
     99 N          -7.0545  -25.0023  -53.6686 N.am      18 UNK        -0.5000 
    100 CA        -6.8042  -24.0023  -54.7145 C.3       18 UNK         0.1400 
    101 CB        -8.1125  -23.5631  -55.4038 C.3       18 UNK        -0.1800 
    102 C         -5.7028  -24.3819  -55.7278 C.2       18 UNK         0.5000 
    103 O         -5.4934  -23.6386  -56.6877 O.2       18 UNK        -0.5000 
    104 N         -4.9899  -25.4935  -55.4998 N.am      19 UNK        -0.5000 
    105 CA        -3.8769  -25.9450  -56.3377 C.3       19 UNK         0.1400 
    106 CB        -3.6594  -27.4499  -56.1221 C.3       19 UNK        -0.1800 
    107 C         -2.5664  -25.1743  -56.0805 C.2       19 UNK         0.5000 
    108 O         -1.6976  -25.1679  -56.9538 O.2       19 UNK        -0.5000 
    109 N         -2.4348  -24.5520  -54.9022 N.am      20 UNK        -0.5000 
    110 CA        -1.2449  -23.8306  -54.4545 C.3       20 UNK         0.1400 
    111 CB        -0.3747  -24.7601  -53.5882 C.3       20 UNK        -0.1800 
    112 C         -1.6431  -22.5365  -53.7247 C.2       20 UNK         0.5000 
    113 O         -1.0503  -22.1974  -52.6974 O.2       20 UNK        -0.5000 
    114 N         -2.6463  -21.8304  -54.2658 N.am      21 UNK        -0.5000 
    115 CA        -3.1313  -20.5370  -53.7806 C.3       21 UNK         0.1400 
    116 CB        -4.3379  -20.1009  -54.6275 C.3       21 UNK        -0.1800 
    117 C         -2.0153  -19.4755  -53.7890 C.2       21 UNK         0.5000 
    118 O         -1.5850  -19.0503  -54.8630 O.2       21 UNK        -0.5000 
    119 N         -1.5426  -19.1224  -52.5871 N.am      22 UNK        -0.5000 
    120 CA        -0.3761  -18.2590  -52.3297 C.3       22 UNK         0.1400 
    121 C          0.9833  -18.8668  -52.7966 C.2       22 UNK         0.5000 
    122 N          1.0981  -20.1818  -52.9471 N.am      22 UNK        -0.7600 
    123 O          1.9590  -18.1481  -52.9952 O.2       22 UNK        -0.5000 
    124 C124       -0.5873  -16.7873  -52.7871 C.3       23 UNK        -0.0398 
    125 S125       -2.0070  -16.0160  -51.9380 S.3       23 UNK        -0.2404 
    126 C126       -1.1554  -15.2221  -50.5415 C.3       23 UNK        -0.0205 
    127 H127        0.9044   -8.2323  -47.1580 H         1 UNK         0.0600 
    128 H128        1.8400   -9.1866  -48.3133 H         1 UNK         0.0600 
    129 H129        2.4390   -8.9570  -46.6671 H         1 UNK         0.0600 
    130 H130       -0.8560   -9.3562  -46.3744 H         1 UNK         0.3000 
    131 H131       -1.0651  -12.2618  -46.5282 H         1 UNK         0.0600 
    132 H132       -3.4007  -11.8557  -45.7436 H         1 UNK         0.0800 
    133 H133       -3.0528  -10.1655  -45.5087 H         1 UNK         0.0800 
    134 H134       -5.1743  -12.0612  -47.5266 H         1 UNK         0.0800 
    135 H135       -4.8082  -11.8477  -49.2184 H         1 UNK         0.0800 
    136 H136       -2.5980  -12.9381  -50.1223 H         1 UNK         0.1150 
    137 H137       -1.8577  -16.8179  -48.4617 H         1 UNK         0.1150 
    138 H138       -4.5202  -14.1161  -46.4715 H         1 UNK         0.1150 
    139 H139       -2.5535  -17.2414  -46.1660 H         1 UNK         0.0800 
    140 H140       -3.5781  -16.1225  -45.2940 H         1 UNK         0.0800 
    141 H141       -5.6531  -19.0440  -44.8509 H         1 UNK         0.0800 
    142 H142       -3.9747  -18.6463  -44.5890 H         1 UNK         0.0800 
    143 H143       -4.9803  -20.5276  -46.7820 H         1 UNK         0.0600 
    144 H144       -2.3074  -19.5699  -46.2503 H         1 UNK         0.3000 
    145 H145       -0.6833  -22.0898  -48.2029 H         1 UNK         0.0600 
    146 H146        0.1787  -20.0292  -49.3215 H         1 UNK         0.0600 
    147 H147       -1.4405  -20.4420  -49.8637 H         1 UNK         0.0600 
    148 H148       -1.2101  -19.1183  -48.7281 H         1 UNK         0.0600 
    149 H149        0.1746  -19.7594  -46.7061 H         1 UNK         0.3000 
    150 H150        0.7515  -21.5087  -43.6498 H         1 UNK         0.0600 
    151 H151        2.7203  -22.2552  -44.9975 H         1 UNK         0.0600 
    152 H152        3.1217  -20.8680  -43.9976 H         1 UNK         0.0600 
    153 H153        2.8404  -20.6578  -45.7260 H         1 UNK         0.0600 
    154 H154        1.5705  -18.9322  -44.4801 H         1 UNK         0.3000 
    155 H155       -1.4176  -17.1335  -44.1505 H         1 UNK         0.0600 
    156 H156       -0.9167  -17.4522  -41.7516 H         1 UNK         0.0600 
    157 H157       -0.2404  -15.9349  -42.3159 H         1 UNK         0.0600 
    158 H158        0.8072  -17.3364  -42.0646 H         1 UNK         0.0600 
    159 H159        1.1572  -16.1039  -44.3276 H         1 UNK         0.3000 
    160 H160        1.8732  -16.5554  -47.7742 H         1 UNK         0.0600 
    161 H161        0.8534  -14.1352  -46.1984 H         1 UNK         0.0600 
    162 H162        0.2072  -14.7149  -47.7243 H         1 UNK         0.0600 
    163 H163        1.8378  -14.0694  -47.6586 H         1 UNK         0.0600 
    164 H164        3.0247  -15.1021  -45.5254 H         1 UNK         0.3000 
    165 H165        4.8692  -17.0902  -44.1340 H         1 UNK         0.0600 
    166 H166        6.5572  -16.9715  -46.6845 H         1 UNK         0.0600 
    167 H167        7.2050  -17.0932  -45.0485 H         1 UNK         0.0600 
    168 H168        6.2245  -18.3919  -45.7059 H         1 UNK         0.0600 
    169 H169        5.2044  -14.9488  -43.8706 H         1 UNK         0.3000 
    170 H170        6.6454  -12.3988  -45.4326 H         1 UNK         0.0600 
    171 H171        4.7135  -11.8895  -46.9244 H         1 UNK         0.0600 
    172 H172        3.5902  -12.2758  -45.6286 H         1 UNK         0.0600 
    173 H173        4.6579  -10.8809  -45.4877 H         1 UNK         0.0600 
    174 H174        4.4993  -12.7269  -43.4181 H         1 UNK         0.3000 
    175 H175        6.6966  -13.4800  -40.7895 H         1 UNK         0.0600 
    176 H176        5.1983  -10.8345  -41.2093 H         1 UNK         0.0600 
    177 H177        5.6760  -11.5193  -39.6551 H         1 UNK         0.0600 
    178 H178        6.9016  -10.9870  -40.7946 H         1 UNK         0.0600 
    179 H179        3.9002  -12.9100  -40.8607 H         1 UNK         0.3000 
    180 H180        2.7434  -16.0059  -42.1015 H         1 UNK         0.0600 
    181 H181        2.7350  -15.0626  -39.1815 H         1 UNK         0.0600 
    182 H182        3.2482  -16.6477  -39.7474 H         1 UNK         0.0600 
    183 H183        1.5671  -16.1656  -39.9079 H         1 UNK         0.0600 
    184 H184        1.4810  -13.7397  -40.8432 H         1 UNK         0.3000 
    185 H185        0.0625  -12.5121  -42.1567 H         1 UNK         0.0600 
    186 H186        2.0851  -11.2031  -41.4611 H         1 UNK         0.0600 
    187 H187        2.4857  -10.8947  -43.1481 H         1 UNK         0.0600 
    188 H188        1.0231  -10.2109  -42.4438 H         1 UNK         0.0600 
    189 H189        0.9615  -12.2394  -44.9846 H         1 UNK         0.3000 
    190 H190       -2.5846  -21.1160  -44.1849 H         1 UNK         0.3000 
    191 H191       -4.1760  -22.8179  -42.5755 H         1 UNK         0.0600 
    192 H192       -1.1425  -22.8484  -43.0053 H         1 UNK         0.0600 
    193 H193       -2.0002  -21.8150  -41.8630 H         1 UNK         0.0600 
    194 H194       -2.0008  -23.5595  -41.6464 H         1 UNK         0.0600 
    195 H195       -2.2778  -23.5037  -45.5011 H         1 UNK         0.3000 
    196 H196       -2.8047  -26.3744  -45.4921 H         1 UNK         0.0600 
    197 H197       -0.6956  -25.4057  -46.4147 H         1 UNK         0.0600 
    198 H198       -1.6190  -24.5214  -47.6275 H         1 UNK         0.0600 
    199 H199       -1.5800  -26.2801  -47.6529 H         1 UNK         0.0600 
    200 H200       -4.8977  -23.8756  -45.9939 H         1 UNK         0.3000 
    201 H201       -6.7888  -23.4690  -47.0574 H         1 UNK         0.0600 
    202 H202       -8.3138  -25.3581  -47.5093 H         1 UNK         0.0600 
    203 H203       -7.4574  -25.6406  -46.0028 H         1 UNK         0.0600 
    204 H204       -6.9797  -26.5025  -47.4649 H         1 UNK         0.0600 
    205 H205       -4.4676  -23.1432  -48.5785 H         1 UNK         0.3000 
    206 H206       -3.6130  -22.7613  -50.5616 H         1 UNK         0.0600 
    207 H207       -5.6496  -21.4099  -50.9223 H         1 UNK         0.0600 
    208 H208       -6.5206  -22.8081  -51.5445 H         1 UNK         0.0600 
    209 H209       -5.1651  -22.1488  -52.4366 H         1 UNK         0.0600 
    210 H210       -4.1768  -25.6600  -49.7335 H         1 UNK         0.3000 
    211 H211       -4.0577  -27.7474  -50.4147 H         1 UNK         0.0600 
    212 H212       -1.8399  -27.0441  -51.3620 H         1 UNK         0.0600 
    213 H213       -2.5632  -28.3577  -52.2759 H         1 UNK         0.0600 
    214 H214       -2.6111  -26.7227  -52.9150 H         1 UNK         0.0600 
    215 H215       -6.4600  -26.4148  -50.8775 H         1 UNK         0.3000 
    216 H216       -8.4431  -26.5139  -51.8283 H         1 UNK         0.0600 
    217 H217       -9.2014  -28.4873  -53.0776 H         1 UNK         0.0600 
    218 H218       -7.5507  -29.0236  -53.3450 H         1 UNK         0.0600 
    219 H219       -8.2230  -29.0068  -51.7150 H         1 UNK         0.0600 
    220 H220       -6.6701  -24.7662  -52.7648 H         1 UNK         0.3000 
    221 H221       -6.4171  -23.1292  -54.1903 H         1 UNK         0.0600 
    222 H222       -8.5257  -24.3510  -56.0337 H         1 UNK         0.0600 
    223 H223       -8.8702  -23.2836  -54.6719 H         1 UNK         0.0600 
    224 H224       -7.9450  -22.6946  -56.0417 H         1 UNK         0.0600 
    225 H225       -5.1941  -26.0424  -54.6756 H         1 UNK         0.3000 
    226 H226       -4.1485  -25.7939  -57.3846 H         1 UNK         0.0600 
    227 H227       -4.5801  -28.0116  -56.2811 H         1 UNK         0.0600 
    228 H228       -2.9155  -27.8390  -56.8183 H         1 UNK         0.0600 
    229 H229       -3.3042  -27.6648  -55.1143 H         1 UNK         0.0600 
    230 H230       -3.1972  -24.5940  -54.2268 H         1 UNK         0.3000 
    231 H231       -0.6540  -23.5182  -55.3177 H         1 UNK         0.0600 
    232 H232        0.5685  -24.2797  -53.3254 H         1 UNK         0.0600 
    233 H233       -0.1330  -25.6834  -54.1147 H         1 UNK         0.0600 
    234 H234       -0.8780  -25.0238  -52.6578 H         1 UNK         0.0600 
    235 H235       -3.0634  -22.1765  -55.1175 H         1 UNK         0.3000 
    236 H236       -3.4690  -20.6685  -52.7517 H         1 UNK         0.0600 
    237 H237       -5.1489  -20.8267  -54.5670 H         1 UNK         0.0600 
    238 H238       -4.7307  -19.1442  -54.2811 H         1 UNK         0.0600 
    239 H239       -4.0721  -19.9856  -55.6791 H         1 UNK         0.0600 
    240 H240       -1.9468  -19.5529  -51.7695 H         1 UNK         0.3000 
    241 H241       -0.2785  -18.2329  -51.2442 H         1 UNK         0.0600 
    242 H242        1.9825  -20.5684  -53.2353 H         1 UNK         0.3800 
    243 H243        0.3118  -20.8010  -52.7742 H         1 UNK         0.3800 
    244 H244        0.3007  -16.1837  -52.5928 H         1 UNK         0.0800 
    245 H245       -0.7512  -16.7359  -53.8638 H         1 UNK         0.0800 
    246 H246       -0.6650  -14.3101  -50.8854 H         1 UNK         0.0800 
    247 H247       -0.3642  -15.8756  -50.1700 H         1 UNK         0.0800 
@<TRIPOS>BOND
     1    1    2 1    
     2    1  127 1    
     3    1  128 1    
     4    1  129 1    
     5    2    3 2    
     6    2    4 am   BACKBONE|DICT|INTERRES
     7    4    5 1    
     8    4  130 1    
     9    5    6 1    
    10    5   65 1    
    11    5  131 1    
    12    6    7 1    
    13    6  132 1    
    14    6  133 1    
    15    7    8 1    
    16    8    9 1    
    17    8  134 1    
    18    8  135 1    
    19    9   10 ar   
    20    9   14 ar   
    21   10   11 ar   
    22   10  136 1    
    23   11   12 ar   
    24   11  126 1    
    25   12   13 ar   
    26   12  137 1    
    27   13   14 ar   
    28   13   15 1    
    29   14  138 1    
    30   15   16 1    
    31   15  139 1    
    32   15  140 1    
    33   16   17 1    
    34   17   18 1    
    35   17  141 1    
    36   17  142 1    
    37   18   19 1    
    38   18   67 1    
    39   18  143 1    
    40   19   20 am   BACKBONE|DICT|INTERRES
    41   19  144 1    
    42   20   21 2    
    43   20   22 1    
    44   22   23 1    
    45   22   24 1    
    46   22  145 1    
    47   23  146 1    
    48   23  147 1    
    49   23  148 1    
    50   24   25 am   BACKBONE|DICT|INTERRES
    51   24  149 1    
    52   25   26 2    
    53   25   27 1    
    54   27   28 1    
    55   27   29 1    
    56   27  150 1    
    57   28  151 1    
    58   28  152 1    
    59   28  153 1    
    60   29   30 am   BACKBONE|DICT|INTERRES
    61   29  154 1    
    62   30   31 2    
    63   30   32 1    
    64   32   33 1    
    65   32   34 1    
    66   32  155 1    
    67   33  156 1    
    68   33  157 1    
    69   33  158 1    
    70   34   35 am   BACKBONE|DICT|INTERRES
    71   34  159 1    
    72   35   36 2    
    73   35   37 1    
    74   37   38 1    
    75   37   39 1    
    76   37  160 1    
    77   38  161 1    
    78   38  162 1    
    79   38  163 1    
    80   39   40 am   BACKBONE|DICT|INTERRES
    81   39  164 1    
    82   40   41 2    
    83   40   42 1    
    84   42   43 1    
    85   42   44 1    
    86   42  165 1    
    87   43  166 1    
    88   43  167 1    
    89   43  168 1    
    90   44   45 am   BACKBONE|DICT|INTERRES
    91   44  169 1    
    92   45   46 2    
    93   45   47 1    
    94   47   48 1    
    95   47   49 1    
    96   47  170 1    
    97   48  171 1    
    98   48  172 1    
    99   48  173 1    
   100   49   50 am   BACKBONE|DICT|INTERRES
   101   49  174 1    
   102   50   51 2    
   103   50   52 1    
   104   52   53 1    
   105   52   54 1    
   106   52  175 1    
   107   53  176 1    
   108   53  177 1    
   109   53  178 1    
   110   54   55 am   BACKBONE|DICT|INTERRES
   111   54  179 1    
   112   55   56 2    
   113   55   57 1    
   114   57   58 1    
   115   57   59 1    
   116   57  180 1    
   117   58  181 1    
   118   58  182 1    
   119   58  183 1    
   120   59   60 am   BACKBONE|DICT|INTERRES
   121   59  184 1    
   122   60   61 2    
   123   60   62 1    
   124   62   63 1    
   125   62   64 1    
   126   62  185 1    
   127   63  186 1    
   128   63  187 1    
   129   63  188 1    
   130   64   65 am   BACKBONE|DICT|INTERRES
   131   64  189 1    
   132   65   66 2    
   133   67   68 2    
   134   67   69 am   BACKBONE|DICT|INTERRES
   135   69   70 1    
   136   69  190 1    
   137   70   71 1    
   138   70   72 1    
   139   70  191 1    
   140   71  192 1    
   141   71  193 1    
   142   71  194 1    
   143   72   73 2    
   144   72   74 am   BACKBONE|DICT|INTERRES
   145   74   75 1    
   146   74  195 1    
   147   75   76 1    
   148   75   77 1    
   149   75  196 1    
   150   76  197 1    
   151   76  198 1    
   152   76  199 1    
   153   77   78 2    
   154   77   79 am   BACKBONE|DICT|INTERRES
   155   79   80 1    
   156   79  200 1    
   157   80   81 1    
   158   80   82 1    
   159   80  201 1    
   160   81  202 1    
   161   81  203 1    
   162   81  204 1    
   163   82   83 2    
   164   82   84 am   BACKBONE|DICT|INTERRES
   165   84   85 1    
   166   84  205 1    
   167   85   86 1    
   168   85   87 1    
   169   85  206 1    
   170   86  207 1    
   171   86  208 1    
   172   86  209 1    
   173   87   88 2    
   174   87   89 am   BACKBONE|DICT|INTERRES
   175   89   90 1    
   176   89  210 1    
   177   90   91 1    
   178   90   92 1    
   179   90  211 1    
   180   91  212 1    
   181   91  213 1    
   182   91  214 1    
   183   92   93 2    
   184   92   94 am   BACKBONE|DICT|INTERRES
   185   94   95 1    
   186   94  215 1    
   187   95   96 1    
   188   95   97 1    
   189   95  216 1    
   190   96  217 1    
   191   96  218 1    
   192   96  219 1    
   193   97   98 2    
   194   97   99 am   BACKBONE|DICT|INTERRES
   195   99  100 1    
   196   99  220 1    
   197  100  101 1    
   198  100  102 1    
   199  100  221 1    
   200  101  222 1    
   201  101  223 1    
   202  101  224 1    
   203  102  103 2    
   204  102  104 am   BACKBONE|DICT|INTERRES
   205  104  105 1    
   206  104  225 1    
   207  105  106 1    
   208  105  107 1    
   209  105  226 1    
   210  106  227 1    
   211  106  228 1    
   212  106  229 1    
   213  107  108 2    
   214  107  109 am   BACKBONE|DICT|INTERRES
   215  109  110 1    
   216  109  230 1    
   217  110  111 1    
   218  110  112 1    
   219  110  231 1    
   220  111  232 1    
   221  111  233 1    
   222  111  234 1    
   223  112  113 2    
   224  112  114 am   BACKBONE|DICT|INTERRES
   225  114  115 1    
   226  114  235 1    
   227  115  116 1    
   228  115  117 1    
   229  115  236 1    
   230  116  237 1    
   231  116  238 1    
   232  116  239 1    
   233  117  118 2    
   234  117  119 am   BACKBONE|DICT|INTERRES
   235  119  120 1    
   236  119  240 1    
   237  120  121 1    
   238  120  124 1    
   239  120  241 1    
   240  121  122 am   BACKBONE|DICT|INTERRES
   241  121  123 2    
   242  122  242 1    
   243  122  243 1    
   244  124  125 1    
   245  124  244 1    
   246  124  245 1    
   247  125  126 1    
   248  126  246 1    
   249  126  247 1    
@<TRIPOS>SUBSTRUCTURE
     1 UNK         1 GROUP             0       ****    0 ROOT    
