@<TRIPOS>MOLECULE
3R540
247   249    1
SMALL
USER_CHARGES


@<TRIPOS>ATOM
      1 CA         -2.6556  -13.3579  -50.7906 C.3       0 UNK        -0.1800 
      2 C          -1.1769  -13.5060  -50.4618 C.2       0 UNK         0.5000 
      3 O          -0.3921  -12.5974  -50.7318 O.2       0 UNK        -0.5000 
      4 N          -0.7972  -14.6528  -49.8857 N.am      1 UNK        -0.5000 
      5 CA          0.5901  -15.0358  -49.5856 C.3       1 UNK         0.1400 
      6 C6          0.7408  -16.5644  -49.4043 C.3       23 UNK        -0.0398 
      7 S7          0.1641  -17.5101  -50.8535 S.3       23 UNK        -0.2404 
      8 C8         -1.1696  -18.5166  -50.1460 C.3       23 UNK        -0.0205 
      9 C9         -2.5034  -17.7883  -50.0764 C.ar      23 UNK        -0.0193 
     10 C10        -3.4566  -17.9824  -51.0804 C.ar      23 UNK        -0.1150 
     11 C11        -4.7282  -17.4133  -50.9721 C.ar      23 UNK        -0.0193 
     12 C12        -5.0319  -16.6155  -49.8675 C.ar      23 UNK        -0.1150 
     13 C13        -4.0835  -16.3969  -48.8648 C.ar      23 UNK        -0.0193 
     14 C14        -2.8205  -16.9866  -48.9757 C.ar      23 UNK        -0.1150 
     15 C15        -4.4558  -15.5589  -47.6471 C.3       23 UNK        -0.0205 
     16 S16        -4.2917  -16.4296  -46.0464 S.3       23 UNK        -0.2404 
     17 C17        -4.8165  -18.1468  -46.3911 C.3       23 UNK        -0.0398 
     18 CA         -3.7061  -19.1447  -45.9755 C.3       11 UNK         0.1400 
     19 N          -3.7184  -19.3917  -44.5295 N.am      11 UNK        -0.5000 
     20 C          -2.7980  -20.0913  -43.8557 C.2       10 UNK         0.5000 
     21 O          -1.7819  -20.5687  -44.3682 O.2       10 UNK        -0.5000 
     22 CA         -3.1147  -20.3634  -42.3803 C.3       10 UNK         0.1400 
     23 CB         -3.8567  -21.7078  -42.2401 C.3       10 UNK        -0.1800 
     24 N          -1.8744  -20.3581  -41.6147 N.am      10 UNK        -0.5000 
     25 C          -1.7652  -20.3912  -40.2811 C.2       9 UNK         0.5000 
     26 O          -2.7336  -20.4813  -39.5241 O.2       9 UNK        -0.5000 
     27 CA         -0.3499  -20.2535  -39.6797 C.3       9 UNK         0.1400 
     28 CB         -0.1439  -21.1278  -38.4252 C.3       9 UNK        -0.1800 
     29 N           0.7330  -20.4422  -40.6488 N.am      9 UNK        -0.5000 
     30 C           1.1255  -21.5665  -41.2636 C.2       8 UNK         0.5000 
     31 O           0.6229  -22.6730  -41.0673 O.2       8 UNK        -0.5000 
     32 CA          2.2689  -21.4288  -42.2909 C.3       8 UNK         0.1400 
     33 CB          1.7164  -21.5637  -43.7173 C.3       8 UNK        -0.1800 
     34 N           3.0036  -20.1632  -42.1842 N.am      8 UNK        -0.5000 
     35 C           3.8724  -19.8647  -41.2072 C.2       7 UNK         0.5000 
     36 O           4.1901  -20.6504  -40.3136 O.2       7 UNK        -0.5000 
     37 CA          4.4639  -18.4415  -41.2097 C.3       7 UNK         0.1400 
     38 CB          5.6391  -18.3418  -42.1937 C.3       7 UNK        -0.1800 
     39 N           3.4726  -17.4088  -41.5212 N.am      7 UNK        -0.5000 
     40 C           2.4296  -17.0901  -40.7399 C.2       6 UNK         0.5000 
     41 O           2.2070  -17.6140  -39.6485 O.2       6 UNK        -0.5000 
     42 CA          1.4375  -16.0474  -41.2915 C.3       6 UNK         0.1400 
     43 CB          1.9517  -14.6172  -41.0706 C.3       6 UNK        -0.1800 
     44 N           1.1457  -16.2552  -42.7097 N.am      6 UNK        -0.5000 
     45 C           0.5345  -17.3420  -43.2004 C.2       5 UNK         0.5000 
     46 O           0.0808  -18.2459  -42.5019 O.2       5 UNK        -0.5000 
     47 CA          0.4695  -17.4714  -44.7278 C.3       5 UNK         0.1400 
     48 CB         -0.7484  -16.7346  -45.2939 C.3       5 UNK        -0.1800 
     49 N           1.6973  -17.0004  -45.3728 N.am      5 UNK        -0.5000 
     50 C           2.8741  -17.6395  -45.2915 C.2       4 UNK         0.5000 
     51 O           3.0188  -18.7251  -44.7320 O.2       4 UNK        -0.5000 
     52 CA          4.1076  -16.9272  -45.8754 C.3       4 UNK         0.1400 
     53 CB          4.3241  -17.2949  -47.3481 C.3       4 UNK        -0.1800 
     54 N           4.0303  -15.4732  -45.7315 N.am      4 UNK        -0.5000 
     55 C           4.1855  -14.8437  -44.5582 C.2       3 UNK         0.5000 
     56 O           4.4444  -15.4273  -43.5059 O.2       3 UNK        -0.5000 
     57 CA          3.9715  -13.3185  -44.5413 C.3       3 UNK         0.1400 
     58 CB          5.2909  -12.5871  -44.8277 C.3       3 UNK        -0.1800 
     59 N           2.9487  -12.8540  -45.4809 N.am      3 UNK        -0.5000 
     60 C           1.6609  -13.2245  -45.4684 C.2       2 UNK         0.5000 
     61 O           1.1976  -14.0256  -44.6567 O.2       2 UNK        -0.5000 
     62 CA          0.7347  -12.6176  -46.5436 C.3       2 UNK         0.1400 
     63 CB          1.2855  -11.3168  -47.1687 C.3       2 UNK        -0.1800 
     64 N           0.3774  -13.5645  -47.6071 N.am      2 UNK        -0.5000 
     65 C           1.2081  -14.2755  -48.3869 C.2       1 UNK         0.5000 
     66 O           2.4248  -14.3443  -48.2029 O.2       1 UNK        -0.5000 
     67 C          -3.8045  -20.4580  -46.7727 C.2       11 UNK         0.5000 
     68 O          -3.0336  -20.6549  -47.7105 O.2       11 UNK        -0.5000 
     69 N          -4.7049  -21.3571  -46.3492 N.am      12 UNK        -0.5000 
     70 CA         -4.9114  -22.6692  -46.9654 C.3       12 UNK         0.1400 
     71 CB         -6.1606  -23.3259  -46.3611 C.3       12 UNK        -0.1800 
     72 C          -3.6959  -23.6055  -46.8382 C.2       12 UNK         0.5000 
     73 O          -3.4643  -24.4105  -47.7412 O.2       12 UNK        -0.5000 
     74 N          -2.9353  -23.4696  -45.7424 N.am      13 UNK        -0.5000 
     75 CA         -1.7038  -24.2192  -45.4967 C.3       13 UNK         0.1400 
     76 CB         -1.3187  -24.1246  -44.0127 C.3       13 UNK        -0.1800 
     77 C          -0.5532  -23.7424  -46.3977 C.2       13 UNK         0.5000 
     78 O           0.1592  -24.5770  -46.9555 O.2       13 UNK        -0.5000 
     79 N          -0.4158  -22.4173  -46.5542 N.am      14 UNK        -0.5000 
     80 CA          0.5571  -21.7990  -47.4577 C.3       14 UNK         0.1400 
     81 CB          0.6687  -20.2985  -47.1571 C.3       14 UNK        -0.1800 
     82 C           0.2312  -22.0400  -48.9417 C.2       14 UNK         0.5000 
     83 O           1.1445  -22.2847  -49.7304 O.2       14 UNK        -0.5000 
     84 N          -1.0612  -21.9829  -49.2912 N.am      15 UNK        -0.5000 
     85 CA         -1.5600  -22.2407  -50.6418 C.3       15 UNK         0.1400 
     86 CB         -3.0092  -21.7410  -50.7458 C.3       15 UNK        -0.1800 
     87 C          -1.4841  -23.7238  -51.0463 C.2       15 UNK         0.5000 
     88 O          -1.3599  -24.0152  -52.2349 O.2       15 UNK        -0.5000 
     89 N          -1.5654  -24.6167  -50.0486 N.am      16 UNK        -0.5000 
     90 CA         -1.7190  -26.0680  -50.1581 C.3       16 UNK         0.1400 
     91 CB         -0.5262  -26.7219  -50.8877 C.3       16 UNK        -0.1800 
     92 C          -3.0932  -26.4195  -50.7611 C.2       16 UNK         0.5000 
     93 O          -3.1715  -27.0406  -51.8223 O.2       16 UNK        -0.5000 
     94 N          -4.1450  -25.9933  -50.0456 N.am      17 UNK        -0.5000 
     95 CA         -5.5694  -26.1410  -50.3586 C.3       17 UNK         0.1400 
     96 CB         -5.9753  -27.6259  -50.4780 C.3       17 UNK        -0.1800 
     97 C          -5.9889  -25.2881  -51.5729 C.2       17 UNK         0.5000 
     98 O          -6.3680  -25.8258  -52.6156 O.2       17 UNK        -0.5000 
     99 N          -5.9326  -23.9622  -51.3776 N.am      18 UNK        -0.5000 
    100 CA        -6.3155  -22.8932  -52.3105 C.3       18 UNK         0.1400 
    101 CB        -7.8069  -23.0074  -52.6987 C.3       18 UNK        -0.1800 
    102 C         -5.3833  -22.7671  -53.5361 C.2       18 UNK         0.5000 
    103 O         -4.3413  -23.4208  -53.5939 O.2       18 UNK        -0.5000 
    104 N         -5.7561  -21.8739  -54.4650 N.am      19 UNK        -0.5000 
    105 CA        -4.9624  -21.3966  -55.6030 C.3       19 UNK         0.1400 
    106 CB        -4.6307  -22.5365  -56.5934 C.3       19 UNK        -0.1800 
    107 C         -3.7458  -20.5797  -55.1186 C.2       19 UNK         0.5000 
    108 O         -3.9362  -19.6636  -54.3161 O.2       19 UNK        -0.5000 
    109 N         -2.5390  -20.8851  -55.6192 N.am      20 UNK        -0.5000 
    110 CA        -1.2763  -20.1876  -55.3464 C.3       20 UNK         0.1400 
    111 CB        -0.8235  -20.4325  -53.8902 C.3       20 UNK        -0.1800 
    112 C         -1.3756  -18.6990  -55.7390 C.2       20 UNK         0.5000 
    113 O         -1.5903  -18.4110  -56.9185 O.2       20 UNK        -0.5000 
    114 N         -1.2818  -17.7861  -54.7606 N.am      21 UNK        -0.5000 
    115 CA        -1.4649  -16.3408  -54.9343 C.3       21 UNK         0.1400 
    116 CB        -1.1894  -15.6303  -53.6004 C.3       21 UNK        -0.1800 
    117 C         -2.8547  -15.9416  -55.4717 C.2       21 UNK         0.5000 
    118 O         -2.9739  -14.8909  -56.1035 O.2       21 UNK        -0.5000 
    119 N         -3.8648  -16.7875  -55.2341 N.am      22 UNK        -0.5000 
    120 CA        -5.2304  -16.6316  -55.7560 C.3       22 UNK         0.1400 
    121 C         -5.4465  -17.3145  -57.1397 C.2       22 UNK         0.5000 
    122 N         -4.4466  -17.9437  -57.7488 N.am      22 UNK        -0.7600 
    123 O         -6.5468  -17.2654  -57.6824 O.2       22 UNK        -0.5000 
    124 C124       -6.3000  -17.0863  -54.7293 C.3       23 UNK        -0.0398 
    125 S125       -6.0967  -16.2802  -53.1002 S.3       23 UNK        -0.2404 
    126 C126       -5.7940  -17.7092  -52.0141 C.3       23 UNK        -0.0205 
    127 H127       -3.1782  -14.3132  -50.7381 H         1 UNK         0.0600 
    128 H128       -2.7791  -12.9667  -51.8005 H         1 UNK         0.0600 
    129 H129       -3.1298  -12.6668  -50.0941 H         1 UNK         0.0600 
    130 H130       -1.4890  -15.3735  -49.7324 H         1 UNK         0.3000 
    131 H131        1.1915  -14.7569  -50.4537 H         1 UNK         0.0600 
    132 H132        0.2351  -16.9044  -48.5009 H         1 UNK         0.0800 
    133 H133        1.7900  -16.8238  -49.2765 H         1 UNK         0.0800 
    134 H134       -1.2685  -19.3984  -50.7747 H         1 UNK         0.0800 
    135 H135       -0.8911  -18.8859  -49.1601 H         1 UNK         0.0800 
    136 H136       -3.2250  -18.6140  -51.9263 H         1 UNK         0.1150 
    137 H137       -6.0186  -16.1820  -49.7831 H         1 UNK         0.1150 
    138 H138       -2.1026  -16.8502  -48.1833 H         1 UNK         0.1150 
    139 H139       -3.8279  -14.6673  -47.6271 H         1 UNK         0.0800 
    140 H140       -5.4834  -15.2020  -47.7316 H         1 UNK         0.0800 
    141 H141       -5.0793  -18.2582  -47.4426 H         1 UNK         0.0800 
    142 H142       -5.7417  -18.3451  -45.8482 H         1 UNK         0.0800 
    143 H143       -2.7349  -18.7176  -46.2330 H         1 UNK         0.0600 
    144 H144       -4.5137  -19.0248  -44.0271 H         1 UNK         0.3000 
    145 H145       -3.7501  -19.5585  -42.0055 H         1 UNK         0.0600 
    146 H146       -4.2272  -21.8581  -41.2266 H         1 UNK         0.0600 
    147 H147       -4.7220  -21.7541  -42.9026 H         1 UNK         0.0600 
    148 H148       -3.2101  -22.5497  -42.4829 H         1 UNK         0.0600 
    149 H149       -1.0373  -20.2050  -42.1663 H         1 UNK         0.3000 
    150 H150       -0.2698  -19.2127  -39.3630 H         1 UNK         0.0600 
    151 H151        0.8631  -21.0109  -38.0244 H         1 UNK         0.0600 
    152 H152       -0.8405  -20.8467  -37.6347 H         1 UNK         0.0600 
    153 H153       -0.3029  -22.1855  -38.6356 H         1 UNK         0.0600 
    154 H154        1.1841  -19.5855  -40.9430 H         1 UNK         0.3000 
    155 H155        2.9687  -22.2488  -42.1174 H         1 UNK         0.0600 
    156 H156        0.9741  -20.7939  -43.9305 H         1 UNK         0.0600 
    157 H157        1.2372  -22.5317  -43.8622 H         1 UNK         0.0600 
    158 H158        2.5098  -21.4831  -44.4603 H         1 UNK         0.0600 
    159 H159        2.8531  -19.4903  -42.9304 H         1 UNK         0.3000 
    160 H160        4.8474  -18.2409  -40.2071 H         1 UNK         0.0600 
    161 H161        5.3228  -18.5283  -43.2198 H         1 UNK         0.0600 
    162 H162        6.4130  -19.0712  -41.9518 H         1 UNK         0.0600 
    163 H163        6.1002  -17.3546  -42.1595 H         1 UNK         0.0600 
    164 H164        3.6194  -16.8811  -42.3754 H         1 UNK         0.3000 
    165 H165        0.5003  -16.1570  -40.7416 H         1 UNK         0.0600 
    166 H166        1.2397  -13.8799  -41.4420 H         1 UNK         0.0600 
    167 H167        2.1028  -14.4192  -40.0089 H         1 UNK         0.0600 
    168 H168        2.9032  -14.4455  -41.5725 H         1 UNK         0.0600 
    169 H169        1.4284  -15.5252  -43.3556 H         1 UNK         0.3000 
    170 H170        0.3400  -18.5308  -44.9467 H         1 UNK         0.0600 
    171 H171       -1.6598  -17.0711  -44.7997 H         1 UNK         0.0600 
    172 H172       -0.6878  -15.6564  -45.1559 H         1 UNK         0.0600 
    173 H173       -0.8592  -16.9329  -46.3567 H         1 UNK         0.0600 
    174 H174        1.6759  -16.0714  -45.7678 H         1 UNK         0.3000 
    175 H175        4.9782  -17.2821  -45.3200 H         1 UNK         0.0600 
    176 H176        3.5532  -16.8673  -47.9833 H         1 UNK         0.0600 
    177 H177        5.2869  -16.9287  -47.7046 H         1 UNK         0.0600 
    178 H178        4.3130  -18.3764  -47.4914 H         1 UNK         0.0600 
    179 H179        3.7740  -14.9366  -46.5525 H         1 UNK         0.3000 
    180 H180        3.6422  -13.0460  -43.5367 H         1 UNK         0.0600 
    181 H181        5.6546  -12.7931  -45.8353 H         1 UNK         0.0600 
    182 H182        6.0687  -12.8962  -44.1280 H         1 UNK         0.0600 
    183 H183        5.1746  -11.5080  -44.7259 H         1 UNK         0.0600 
    184 H184        3.2541  -12.2169  -46.2020 H         1 UNK         0.3000 
    185 H185       -0.1942  -12.3654  -46.0300 H         1 UNK         0.0600 
    186 H186        1.5338  -10.5827  -46.4009 H         1 UNK         0.0600 
    187 H187        2.1797  -11.4920  -47.7679 H         1 UNK         0.0600 
    188 H188        0.5425  -10.8577  -47.8211 H         1 UNK         0.0600 
    189 H189       -0.6059  -13.6084  -47.8318 H         1 UNK         0.3000 
    190 H190       -5.2924  -21.1272  -45.5615 H         1 UNK         0.3000 
    191 H191       -5.0920  -22.5122  -48.0307 H         1 UNK         0.0600 
    192 H192       -7.0469  -22.7124  -46.5241 H         1 UNK         0.0600 
    193 H193       -6.3516  -24.2978  -46.8184 H         1 UNK         0.0600 
    194 H194       -6.0533  -23.4837  -45.2871 H         1 UNK         0.0600 
    195 H195       -3.1781  -22.7588  -45.0696 H         1 UNK         0.3000 
    196 H196       -1.8916  -25.2703  -45.7268 H         1 UNK         0.0600 
    197 H197       -0.4002  -24.6775  -43.8118 H         1 UNK         0.0600 
    198 H198       -2.0955  -24.5495  -43.3772 H         1 UNK         0.0600 
    199 H199       -1.1525  -23.0941  -43.6985 H         1 UNK         0.0600 
    200 H200       -1.0249  -21.7940  -46.0371 H         1 UNK         0.3000 
    201 H201        1.5336  -22.2491  -47.2658 H         1 UNK         0.0600 
    202 H202        1.2038  -20.1449  -46.2234 H         1 UNK         0.0600 
    203 H203       -0.3098  -19.8255  -47.0705 H         1 UNK         0.0600 
    204 H204        1.2291  -19.7732  -47.9320 H         1 UNK         0.0600 
    205 H205       -1.7483  -21.6930  -48.5992 H         1 UNK         0.3000 
    206 H206       -0.9430  -21.6727  -51.3381 H         1 UNK         0.0600 
    207 H207       -3.1229  -20.7293  -50.3628 H         1 UNK         0.0600 
    208 H208       -3.3312  -21.7244  -51.7856 H         1 UNK         0.0600 
    209 H209       -3.6946  -22.3794  -50.1886 H         1 UNK         0.0600 
    210 H210       -1.6892  -24.2492  -49.1141 H         1 UNK         0.3000 
    211 H211       -1.7189  -26.4501  -49.1359 H         1 UNK         0.0600 
    212 H212       -0.4832  -26.4467  -51.9415 H         1 UNK         0.0600 
    213 H213       -0.5966  -27.8091  -50.8414 H         1 UNK         0.0600 
    214 H214        0.4197  -26.4368  -50.4272 H         1 UNK         0.0600 
    215 H215       -3.9399  -25.4704  -49.1963 H         1 UNK         0.3000 
    216 H216       -6.1071  -25.7386  -49.4984 H         1 UNK         0.0600 
    217 H217       -7.0557  -27.7221  -50.5908 H         1 UNK         0.0600 
    218 H218       -5.6910  -28.1850  -49.5866 H         1 UNK         0.0600 
    219 H219       -5.5172  -28.1122  -51.3394 H         1 UNK         0.0600 
    220 H220       -5.5659  -23.6423  -50.4943 H         1 UNK         0.3000 
    221 H221       -6.1948  -21.9651  -51.7496 H         1 UNK         0.0600 
    222 H222       -7.9857  -23.8367  -53.3837 H         1 UNK         0.0600 
    223 H223       -8.4322  -23.1604  -51.8190 H         1 UNK         0.0600 
    224 H224       -8.1638  -22.0997  -53.1857 H         1 UNK         0.0600 
    225 H225       -6.6176  -21.3704  -54.3112 H         1 UNK         0.3000 
    226 H226       -5.5981  -20.6865  -56.1341 H         1 UNK         0.0600 
    227 H227       -5.5347  -23.0699  -56.8875 H         1 UNK         0.0600 
    228 H228       -4.1825  -22.1437  -57.5068 H         1 UNK         0.0600 
    229 H229       -3.9398  -23.2674  -56.1727 H         1 UNK         0.0600 
    230 H230       -2.4838  -21.6380  -56.2898 H         1 UNK         0.3000 
    231 H231       -0.5254  -20.6274  -56.0043 H         1 UNK         0.0600 
    232 H232       -1.5437  -20.0573  -53.1633 H         1 UNK         0.0600 
    233 H233        0.1370  -19.9573  -53.6866 H         1 UNK         0.0600 
    234 H234       -0.6970  -21.4995  -53.7070 H         1 UNK         0.0600 
    235 H235       -1.1264  -18.1069  -53.8163 H         1 UNK         0.3000 
    236 H236       -0.7264  -15.9997  -55.6625 H         1 UNK         0.0600 
    237 H237       -0.1618  -15.7893  -53.2746 H         1 UNK         0.0600 
    238 H238       -1.3325  -14.5528  -53.6914 H         1 UNK         0.0600 
    239 H239       -1.8549  -15.9825  -52.8110 H         1 UNK         0.0600 
    240 H240       -3.6854  -17.6468  -54.7262 H         1 UNK         0.3000 
    241 H241       -5.4077  -15.5695  -55.9338 H         1 UNK         0.0600 
    242 H242       -3.5161  -17.9741  -57.3471 H         1 UNK         0.3800 
    243 H243       -4.6095  -18.3628  -58.6505 H         1 UNK         0.3800 
    244 H244       -6.2859  -18.1715  -54.6237 H         1 UNK         0.0800 
    245 H245       -7.2985  -16.8374  -55.0924 H         1 UNK         0.0800 
    246 H246       -5.5022  -18.5848  -52.5921 H         1 UNK         0.0800 
    247 H247       -6.7267  -17.9783  -51.5166 H         1 UNK         0.0800 
@<TRIPOS>BOND
     1    1    2 1    
     2    1  127 1    
     3    1  128 1    
     4    1  129 1    
     5    2    3 2    
     6    2    4 am   BACKBONE|DICT|INTERRES
     7    4    5 1    
     8    4  130 1    
     9    5    6 1    
    10    5   65 1    
    11    5  131 1    
    12    6    7 1    
    13    6  132 1    
    14    6  133 1    
    15    7    8 1    
    16    8    9 1    
    17    8  134 1    
    18    8  135 1    
    19    9   10 ar   
    20    9   14 ar   
    21   10   11 ar   
    22   10  136 1    
    23   11   12 ar   
    24   11  126 1    
    25   12   13 ar   
    26   12  137 1    
    27   13   14 ar   
    28   13   15 1    
    29   14  138 1    
    30   15   16 1    
    31   15  139 1    
    32   15  140 1    
    33   16   17 1    
    34   17   18 1    
    35   17  141 1    
    36   17  142 1    
    37   18   19 1    
    38   18   67 1    
    39   18  143 1    
    40   19   20 am   BACKBONE|DICT|INTERRES
    41   19  144 1    
    42   20   21 2    
    43   20   22 1    
    44   22   23 1    
    45   22   24 1    
    46   22  145 1    
    47   23  146 1    
    48   23  147 1    
    49   23  148 1    
    50   24   25 am   BACKBONE|DICT|INTERRES
    51   24  149 1    
    52   25   26 2    
    53   25   27 1    
    54   27   28 1    
    55   27   29 1    
    56   27  150 1    
    57   28  151 1    
    58   28  152 1    
    59   28  153 1    
    60   29   30 am   BACKBONE|DICT|INTERRES
    61   29  154 1    
    62   30   31 2    
    63   30   32 1    
    64   32   33 1    
    65   32   34 1    
    66   32  155 1    
    67   33  156 1    
    68   33  157 1    
    69   33  158 1    
    70   34   35 am   BACKBONE|DICT|INTERRES
    71   34  159 1    
    72   35   36 2    
    73   35   37 1    
    74   37   38 1    
    75   37   39 1    
    76   37  160 1    
    77   38  161 1    
    78   38  162 1    
    79   38  163 1    
    80   39   40 am   BACKBONE|DICT|INTERRES
    81   39  164 1    
    82   40   41 2    
    83   40   42 1    
    84   42   43 1    
    85   42   44 1    
    86   42  165 1    
    87   43  166 1    
    88   43  167 1    
    89   43  168 1    
    90   44   45 am   BACKBONE|DICT|INTERRES
    91   44  169 1    
    92   45   46 2    
    93   45   47 1    
    94   47   48 1    
    95   47   49 1    
    96   47  170 1    
    97   48  171 1    
    98   48  172 1    
    99   48  173 1    
   100   49   50 am   BACKBONE|DICT|INTERRES
   101   49  174 1    
   102   50   51 2    
   103   50   52 1    
   104   52   53 1    
   105   52   54 1    
   106   52  175 1    
   107   53  176 1    
   108   53  177 1    
   109   53  178 1    
   110   54   55 am   BACKBONE|DICT|INTERRES
   111   54  179 1    
   112   55   56 2    
   113   55   57 1    
   114   57   58 1    
   115   57   59 1    
   116   57  180 1    
   117   58  181 1    
   118   58  182 1    
   119   58  183 1    
   120   59   60 am   BACKBONE|DICT|INTERRES
   121   59  184 1    
   122   60   61 2    
   123   60   62 1    
   124   62   63 1    
   125   62   64 1    
   126   62  185 1    
   127   63  186 1    
   128   63  187 1    
   129   63  188 1    
   130   64   65 am   BACKBONE|DICT|INTERRES
   131   64  189 1    
   132   65   66 2    
   133   67   68 2    
   134   67   69 am   BACKBONE|DICT|INTERRES
   135   69   70 1    
   136   69  190 1    
   137   70   71 1    
   138   70   72 1    
   139   70  191 1    
   140   71  192 1    
   141   71  193 1    
   142   71  194 1    
   143   72   73 2    
   144   72   74 am   BACKBONE|DICT|INTERRES
   145   74   75 1    
   146   74  195 1    
   147   75   76 1    
   148   75   77 1    
   149   75  196 1    
   150   76  197 1    
   151   76  198 1    
   152   76  199 1    
   153   77   78 2    
   154   77   79 am   BACKBONE|DICT|INTERRES
   155   79   80 1    
   156   79  200 1    
   157   80   81 1    
   158   80   82 1    
   159   80  201 1    
   160   81  202 1    
   161   81  203 1    
   162   81  204 1    
   163   82   83 2    
   164   82   84 am   BACKBONE|DICT|INTERRES
   165   84   85 1    
   166   84  205 1    
   167   85   86 1    
   168   85   87 1    
   169   85  206 1    
   170   86  207 1    
   171   86  208 1    
   172   86  209 1    
   173   87   88 2    
   174   87   89 am   BACKBONE|DICT|INTERRES
   175   89   90 1    
   176   89  210 1    
   177   90   91 1    
   178   90   92 1    
   179   90  211 1    
   180   91  212 1    
   181   91  213 1    
   182   91  214 1    
   183   92   93 2    
   184   92   94 am   BACKBONE|DICT|INTERRES
   185   94   95 1    
   186   94  215 1    
   187   95   96 1    
   188   95   97 1    
   189   95  216 1    
   190   96  217 1    
   191   96  218 1    
   192   96  219 1    
   193   97   98 2    
   194   97   99 am   BACKBONE|DICT|INTERRES
   195   99  100 1    
   196   99  220 1    
   197  100  101 1    
   198  100  102 1    
   199  100  221 1    
   200  101  222 1    
   201  101  223 1    
   202  101  224 1    
   203  102  103 2    
   204  102  104 am   BACKBONE|DICT|INTERRES
   205  104  105 1    
   206  104  225 1    
   207  105  106 1    
   208  105  107 1    
   209  105  226 1    
   210  106  227 1    
   211  106  228 1    
   212  106  229 1    
   213  107  108 2    
   214  107  109 am   BACKBONE|DICT|INTERRES
   215  109  110 1    
   216  109  230 1    
   217  110  111 1    
   218  110  112 1    
   219  110  231 1    
   220  111  232 1    
   221  111  233 1    
   222  111  234 1    
   223  112  113 2    
   224  112  114 am   BACKBONE|DICT|INTERRES
   225  114  115 1    
   226  114  235 1    
   227  115  116 1    
   228  115  117 1    
   229  115  236 1    
   230  116  237 1    
   231  116  238 1    
   232  116  239 1    
   233  117  118 2    
   234  117  119 am   BACKBONE|DICT|INTERRES
   235  119  120 1    
   236  119  240 1    
   237  120  121 1    
   238  120  124 1    
   239  120  241 1    
   240  121  122 am   BACKBONE|DICT|INTERRES
   241  121  123 2    
   242  122  242 1    
   243  122  243 1    
   244  124  125 1    
   245  124  244 1    
   246  124  245 1    
   247  125  126 1    
   248  126  246 1    
   249  126  247 1    
@<TRIPOS>SUBSTRUCTURE
     1 UNK         1 GROUP             0       ****    0 ROOT    
