@<TRIPOS>MOLECULE
3R540
247   249    1
SMALL
USER_CHARGES


@<TRIPOS>ATOM
      1 CA         -0.8912   -8.3329  -49.9714 C.3       0 UNK        -0.1800 
      2 C          -1.0653   -9.8446  -49.9216 C.2       0 UNK         0.5000 
      3 O          -2.1688  -10.3161  -49.6527 O.2       0 UNK        -0.5000 
      4 N           0.0272  -10.5851  -50.1632 N.am      1 UNK        -0.5000 
      5 CA          0.1410  -12.0530  -50.2135 C.3       1 UNK         0.1400 
      6 C6         -0.3773  -12.6749  -51.5456 C.3       23 UNK        -0.0398 
      7 S7         -2.1893  -12.9057  -51.6983 S.3       23 UNK        -0.2404 
      8 C8         -2.3280  -14.4436  -52.6712 C.3       23 UNK        -0.0205 
      9 C9         -1.5919  -15.6293  -52.0574 C.ar      23 UNK        -0.0193 
     10 C10        -0.5141  -16.2051  -52.7359 C.ar      23 UNK        -0.1150 
     11 C11         0.1544  -17.3216  -52.2146 C.ar      23 UNK        -0.0193 
     12 C12        -0.2544  -17.8315  -50.9773 C.ar      23 UNK        -0.1150 
     13 C13        -1.3150  -17.2517  -50.2743 C.ar      23 UNK        -0.0193 
     14 C14        -1.9905  -16.1613  -50.8285 C.ar      23 UNK        -0.1150 
     15 C15        -1.7077  -17.7786  -48.9021 C.3       23 UNK        -0.0205 
     16 S16        -3.1668  -18.8539  -48.9810 S.3       23 UNK        -0.2404 
     17 C17        -3.3176  -19.3680  -47.2376 C.3       23 UNK        -0.0398 
     18 CA         -2.7021  -20.7697  -47.0011 C.3       11 UNK         0.1400 
     19 N          -1.2472  -20.7237  -46.8170 N.am      11 UNK        -0.5000 
     20 C          -0.4519  -21.7969  -46.9314 C.2       10 UNK         0.5000 
     21 O          -0.8614  -22.9269  -47.1972 O.2       10 UNK        -0.5000 
     22 CA          1.0368  -21.5792  -46.6245 C.3       10 UNK         0.1400 
     23 CB          1.6945  -20.6819  -47.6848 C.3       10 UNK        -0.1800 
     24 N           1.2355  -21.0101  -45.2905 N.am      10 UNK        -0.5000 
     25 C           0.9454  -21.6448  -44.1453 C.2       9 UNK         0.5000 
     26 O           0.4433  -22.7674  -44.1066 O.2       9 UNK        -0.5000 
     27 CA          1.1925  -20.8937  -42.8227 C.3       9 UNK         0.1400 
     28 CB          1.6411  -21.8242  -41.6773 C.3       9 UNK        -0.1800 
     29 N           2.0691  -19.7261  -42.9394 N.am      9 UNK        -0.5000 
     30 C           3.3829  -19.7009  -43.2091 C.2       8 UNK         0.5000 
     31 O           4.0640  -20.7059  -43.4108 O.2       8 UNK        -0.5000 
     32 CA          4.0499  -18.3178  -43.2767 C.3       8 UNK         0.1400 
     33 CB          4.1179  -17.8383  -44.7366 C.3       8 UNK        -0.1800 
     34 N           3.3569  -17.3324  -42.4414 N.am      8 UNK        -0.5000 
     35 C           3.8940  -16.1910  -41.9938 C.2       7 UNK         0.5000 
     36 O           5.0255  -15.8011  -42.2852 O.2       7 UNK        -0.5000 
     37 CA          3.0296  -15.3592  -41.0286 C.3       7 UNK         0.1400 
     38 CB          2.0129  -14.5050  -41.8000 C.3       7 UNK        -0.1800 
     39 N           2.3240  -16.1927  -40.0541 N.am      7 UNK        -0.5000 
     40 C           2.9036  -16.8453  -39.0379 C.2       6 UNK         0.5000 
     41 O           4.1079  -16.7748  -38.7902 O.2       6 UNK        -0.5000 
     42 CA          2.0148  -17.7474  -38.1540 C.3       6 UNK         0.1400 
     43 CB          1.5315  -16.9970  -36.8977 C.3       6 UNK        -0.1800 
     44 N           0.9025  -18.4012  -38.8604 N.am      6 UNK        -0.5000 
     45 C          -0.1993  -17.8482  -39.3837 C.2       5 UNK         0.5000 
     46 O          -0.4805  -16.6506  -39.3043 O.2       5 UNK        -0.5000 
     47 CA         -1.1218  -18.7979  -40.1718 C.3       5 UNK         0.1400 
     48 CB         -2.3279  -19.2053  -39.3120 C.3       5 UNK        -0.1800 
     49 N          -1.6033  -18.2152  -41.4289 N.am      5 UNK        -0.5000 
     50 C          -0.8412  -17.6684  -42.3867 C.2       4 UNK         0.5000 
     51 O           0.3931  -17.6303  -42.3382 O.2       4 UNK        -0.5000 
     52 CA         -1.5863  -17.0885  -43.6040 C.3       4 UNK         0.1400 
     53 CB         -2.6555  -16.0665  -43.1799 C.3       4 UNK        -0.1800 
     54 N          -0.6595  -16.4179  -44.5086 N.am      4 UNK        -0.5000 
     55 C           0.0504  -16.9822  -45.4900 C.2       3 UNK         0.5000 
     56 O          -0.0496  -18.1703  -45.8113 O.2       3 UNK        -0.5000 
     57 CA          1.0191  -16.0326  -46.2329 C.3       3 UNK         0.1400 
     58 CB          1.6513  -16.6589  -47.4882 C.3       3 UNK        -0.1800 
     59 N           0.3740  -14.7750  -46.6158 N.am      3 UNK        -0.5000 
     60 C           0.1455  -13.7185  -45.8282 C.2       2 UNK         0.5000 
     61 O           0.4915  -13.6852  -44.6468 O.2       2 UNK        -0.5000 
     62 CA         -0.6304  -12.5306  -46.4453 C.3       2 UNK         0.1400 
     63 CB         -0.6528  -11.2984  -45.5224 C.3       2 UNK        -0.1800 
     64 N          -0.1554  -12.1096  -47.7675 N.am      2 UNK        -0.5000 
     65 C          -0.3194  -12.7736  -48.9207 C.2       1 UNK         0.5000 
     66 O          -0.7889  -13.9100  -48.9715 O.2       1 UNK        -0.5000 
     67 C          -3.4097  -21.5098  -45.8487 C.2       11 UNK         0.5000 
     68 O          -4.4904  -22.0530  -46.0736 O.2       11 UNK        -0.5000 
     69 N          -2.7945  -21.5546  -44.6585 N.am      12 UNK        -0.5000 
     70 CA         -3.3022  -22.3065  -43.5107 C.3       12 UNK         0.1400 
     71 CB         -2.5644  -21.8756  -42.2346 C.3       12 UNK        -0.1800 
     72 C          -3.1970  -23.8264  -43.7305 C.2       12 UNK         0.5000 
     73 O          -4.1861  -24.5350  -43.5430 O.2       12 UNK        -0.5000 
     74 N          -2.0136  -24.2936  -44.1535 N.am      13 UNK        -0.5000 
     75 CA         -1.7344  -25.7022  -44.4336 C.3       13 UNK         0.1400 
     76 CB         -0.2177  -25.9061  -44.5669 C.3       13 UNK        -0.1800 
     77 C          -2.4585  -26.2155  -45.6897 C.2       13 UNK         0.5000 
     78 O          -2.9634  -27.3388  -45.6823 O.2       13 UNK        -0.5000 
     79 N          -2.5036  -25.3856  -46.7407 N.am      14 UNK        -0.5000 
     80 CA         -3.1264  -25.7191  -48.0226 C.3       14 UNK         0.1400 
     81 CB         -2.5053  -24.8364  -49.1136 C.3       14 UNK        -0.1800 
     82 C          -4.6598  -25.5690  -48.0298 C.2       14 UNK         0.5000 
     83 O          -5.2872  -25.9908  -49.0002 O.2       14 UNK        -0.5000 
     84 N          -5.2335  -24.9457  -46.9887 N.am      15 UNK        -0.5000 
     85 CA         -6.6496  -24.5802  -46.8535 C.3       15 UNK         0.1400 
     86 CB         -7.5379  -25.8353  -46.7266 C.3       15 UNK        -0.1800 
     87 C          -7.0921  -23.6259  -47.9834 C.2       15 UNK         0.5000 
     88 O          -8.0329  -23.9142  -48.7241 O.2       15 UNK        -0.5000 
     89 N          -6.3406  -22.5244  -48.1110 N.am      16 UNK        -0.5000 
     90 CA         -6.4371  -21.4372  -49.0923 C.3       16 UNK         0.1400 
     91 CB         -7.8281  -20.7744  -49.0679 C.3       16 UNK        -0.1800 
     92 C          -6.0062  -21.8019  -50.5281 C.2       16 UNK         0.5000 
     93 O          -5.8673  -20.8948  -51.3487 O.2       16 UNK        -0.5000 
     94 N          -5.7479  -23.0861  -50.8212 N.am      17 UNK        -0.5000 
     95 CA         -5.3480  -23.5661  -52.1506 C.3       17 UNK         0.1400 
     96 CB         -5.4131  -25.0988  -52.1923 C.3       17 UNK        -0.1800 
     97 C          -3.9630  -23.0671  -52.6082 C.2       17 UNK         0.5000 
     98 O          -3.6924  -23.0564  -53.8097 O.2       17 UNK        -0.5000 
     99 N          -3.1269  -22.6138  -51.6620 N.am      18 UNK        -0.5000 
    100 CA        -1.8402  -21.9722  -51.9346 C.3       18 UNK         0.1400 
    101 CB        -1.0780  -21.7266  -50.6246 C.3       18 UNK        -0.1800 
    102 C         -1.9812  -20.6665  -52.7382 C.2       18 UNK         0.5000 
    103 O         -1.1076  -20.3739  -53.5510 O.2       18 UNK        -0.5000 
    104 N         -3.0939  -19.9396  -52.5508 N.am      19 UNK        -0.5000 
    105 CA        -3.4132  -18.7266  -53.3048 C.3       19 UNK         0.1400 
    106 CB        -4.5970  -18.0021  -52.6480 C.3       19 UNK        -0.1800 
    107 C         -3.7036  -19.0103  -54.7895 C.2       19 UNK         0.5000 
    108 O         -3.3594  -18.1896  -55.6399 O.2       19 UNK        -0.5000 
    109 N         -4.3000  -20.1767  -55.0764 N.am      20 UNK        -0.5000 
    110 CA        -4.5227  -20.6734  -56.4333 C.3       20 UNK         0.1400 
    111 CB        -5.6118  -21.7573  -56.4213 C.3       20 UNK        -0.1800 
    112 C         -3.2177  -21.1988  -57.0557 C.2       20 UNK         0.5000 
    113 O         -2.9241  -20.8786  -58.2086 O.2       20 UNK        -0.5000 
    114 N         -2.4319  -21.9503  -56.2679 N.am      21 UNK        -0.5000 
    115 CA        -1.1160  -22.4777  -56.6498 C.3       21 UNK         0.1400 
    116 CB        -0.5919  -23.3995  -55.5394 C.3       21 UNK        -0.1800 
    117 C         -0.0823  -21.3791  -56.9750 C.2       21 UNK         0.5000 
    118 O          0.7995  -21.6024  -57.8053 O.2       21 UNK        -0.5000 
    119 N         -0.2379  -20.2070  -56.3467 N.am      22 UNK        -0.5000 
    120 CA         0.4826  -18.9608  -56.6478 C.3       22 UNK         0.1400 
    121 C          0.2303  -18.3818  -58.0755 C.2       22 UNK         0.5000 
    122 N         -0.7856  -18.8163  -58.8139 N.am      22 UNK        -0.7600 
    123 O          0.9783  -17.5180  -58.5248 O.2       22 UNK        -0.5000 
    124 C124        0.2176  -17.8823  -55.5544 C.3       23 UNK        -0.0398 
    125 S125        1.7158  -17.4175  -54.6197 S.3       23 UNK        -0.2404 
    126 C126        1.3194  -18.0125  -52.9339 C.3       23 UNK        -0.0205 
    127 H127        0.1329   -8.0484  -50.2140 H         1 UNK         0.0600 
    128 H128       -1.1464   -7.8938  -49.0069 H         1 UNK         0.0600 
    129 H129       -1.5502   -7.9048  -50.7268 H         1 UNK         0.0600 
    130 H130        0.8908  -10.0967  -50.3568 H         1 UNK         0.3000 
    131 H131        1.2192  -12.2201  -50.2218 H         1 UNK         0.0600 
    132 H132        0.1144  -13.6374  -51.6818 H         1 UNK         0.0800 
    133 H133       -0.0455  -12.0675  -52.3883 H         1 UNK         0.0800 
    134 H134       -1.9693  -14.2479  -53.6828 H         1 UNK         0.0800 
    135 H135       -3.3835  -14.7002  -52.7695 H         1 UNK         0.0800 
    136 H136       -0.2121  -15.7771  -53.6793 H         1 UNK         0.1150 
    137 H137        0.2622  -18.6816  -50.5546 H         1 UNK         0.1150 
    138 H138       -2.8125  -15.7096  -50.2914 H         1 UNK         0.1150 
    139 H139       -0.8827  -18.3419  -48.4660 H         1 UNK         0.0800 
    140 H140       -1.9033  -16.9408  -48.2308 H         1 UNK         0.0800 
    141 H141       -4.3861  -19.3611  -47.0131 H         1 UNK         0.0800 
    142 H142       -2.8715  -18.6223  -46.5775 H         1 UNK         0.0800 
    143 H143       -2.9025  -21.3766  -47.8869 H         1 UNK         0.0600 
    144 H144       -0.8372  -19.8326  -46.5502 H         1 UNK         0.3000 
    145 H145        1.5304  -22.5531  -46.6514 H         1 UNK         0.0600 
    146 H146        2.7542  -20.5345  -47.4765 H         1 UNK         0.0600 
    147 H147        1.6168  -21.1323  -48.6751 H         1 UNK         0.0600 
    148 H148        1.2227  -19.7014  -47.7376 H         1 UNK         0.0600 
    149 H149        1.5748  -20.0606  -45.2452 H         1 UNK         0.3000 
    150 H150        0.2188  -20.4934  -42.5445 H         1 UNK         0.0600 
    151 H151        0.8923  -22.5914  -41.4772 H         1 UNK         0.0600 
    152 H152        1.7886  -21.2682  -40.7518 H         1 UNK         0.0600 
    153 H153        2.5735  -22.3372  -41.9135 H         1 UNK         0.0600 
    154 H154        1.5775  -18.8424  -42.8278 H         1 UNK         0.3000 
    155 H155        5.0673  -18.4346  -42.8973 H         1 UNK         0.0600 
    156 H156        3.1208  -17.7500  -45.1617 H         1 UNK         0.0600 
    157 H157        4.6750  -18.5439  -45.3542 H         1 UNK         0.0600 
    158 H158        4.6115  -16.8708  -44.8249 H         1 UNK         0.0600 
    159 H159        2.4134  -17.5550  -42.1461 H         1 UNK         0.3000 
    160 H160        3.6927  -14.6843  -40.4833 H         1 UNK         0.0600 
    161 H161        1.3043  -15.1197  -42.3548 H         1 UNK         0.0600 
    162 H162        2.5137  -13.8562  -42.5198 H         1 UNK         0.0600 
    163 H163        1.4429  -13.8646  -41.1269 H         1 UNK         0.0600 
    164 H164        1.3195  -16.2817  -40.1620 H         1 UNK         0.3000 
    165 H165        2.6556  -18.5625  -37.8136 H         1 UNK         0.0600 
    166 H166        0.9251  -16.1261  -37.1475 H         1 UNK         0.0600 
    167 H167        0.9393  -17.6463  -36.2530 H         1 UNK         0.0600 
    168 H168        2.3788  -16.6413  -36.3103 H         1 UNK         0.0600 
    169 H169        1.0353  -19.3926  -39.0026 H         1 UNK         0.3000 
    170 H170       -0.5617  -19.6998  -40.4236 H         1 UNK         0.0600 
    171 H171       -2.9468  -18.3441  -39.0567 H         1 UNK         0.0600 
    172 H172       -2.9585  -19.9308  -39.8252 H         1 UNK         0.0600 
    173 H173       -2.0041  -19.6644  -38.3770 H         1 UNK         0.0600 
    174 H174       -2.6059  -18.1737  -41.5333 H         1 UNK         0.3000 
    175 H175       -2.0720  -17.9136  -44.1287 H         1 UNK         0.0600 
    176 H176       -2.2253  -15.2591  -42.5854 H         1 UNK         0.0600 
    177 H177       -3.1366  -15.6187  -44.0499 H         1 UNK         0.0600 
    178 H178       -3.4434  -16.5305  -42.5860 H         1 UNK         0.0600 
    179 H179       -0.4488  -15.4496  -44.2944 H         1 UNK         0.3000 
    180 H180        1.8269  -15.8049  -45.5348 H         1 UNK         0.0600 
    181 H181        2.4099  -15.9999  -47.9103 H         1 UNK         0.0600 
    182 H182        0.9111  -16.8439  -48.2645 H         1 UNK         0.0600 
    183 H183        2.1414  -17.6052  -47.2632 H         1 UNK         0.0600 
    184 H184        0.0043  -14.7217  -47.5632 H         1 UNK         0.3000 
    185 H185       -1.6624  -12.8688  -46.5594 H         1 UNK         0.0600 
    186 H186       -1.0813  -11.5419  -44.5492 H         1 UNK         0.0600 
    187 H187        0.3507  -10.9066  -45.3521 H         1 UNK         0.0600 
    188 H188       -1.2591  -10.4979  -45.9473 H         1 UNK         0.0600 
    189 H189        0.2688  -11.1949  -47.8131 H         1 UNK         0.3000 
    190 H190       -1.8913  -21.1175  -44.5664 H         1 UNK         0.3000 
    191 H191       -4.3584  -22.0577  -43.3845 H         1 UNK         0.0600 
    192 H192       -3.0145  -22.3358  -41.3542 H         1 UNK         0.0600 
    193 H193       -2.6148  -20.7964  -42.0992 H         1 UNK         0.0600 
    194 H194       -1.5155  -22.1675  -42.2504 H         1 UNK         0.0600 
    195 H195       -1.2305  -23.6541  -44.2629 H         1 UNK         0.3000 
    196 H196       -2.0817  -26.2931  -43.5834 H         1 UNK         0.0600 
    197 H197        0.1964  -25.3151  -45.3853 H         1 UNK         0.0600 
    198 H198        0.3000  -25.6170  -43.6521 H         1 UNK         0.0600 
    199 H199        0.0222  -26.9523  -44.7607 H         1 UNK         0.0600 
    200 H200       -2.0185  -24.4944  -46.6903 H         1 UNK         0.3000 
    201 H201       -2.8992  -26.7598  -48.2630 H         1 UNK         0.0600 
    202 H202       -2.8612  -25.1222  -50.1029 H         1 UNK         0.0600 
    203 H203       -2.7521  -23.7859  -48.9605 H         1 UNK         0.0600 
    204 H204       -1.4191  -24.9294  -49.1255 H         1 UNK         0.0600 
    205 H205       -4.6275  -24.6136  -46.2508 H         1 UNK         0.3000 
    206 H206       -6.7366  -24.0203  -45.9209 H         1 UNK         0.0600 
    207 H207       -7.2039  -26.4711  -45.9067 H         1 UNK         0.0600 
    208 H208       -8.5728  -25.5585  -46.5229 H         1 UNK         0.0600 
    209 H209       -7.5350  -26.4343  -47.6375 H         1 UNK         0.0600 
    210 H210       -5.6062  -22.4019  -47.4144 H         1 UNK         0.3000 
    211 H211       -5.7208  -20.6869  -48.7566 H         1 UNK         0.0600 
    212 H212       -7.8398  -19.8731  -49.6821 H         1 UNK         0.0600 
    213 H213       -8.1075  -20.4799  -48.0563 H         1 UNK         0.0600 
    214 H214       -8.6032  -21.4371  -49.4530 H         1 UNK         0.0600 
    215 H215       -5.9035  -23.7888  -50.1107 H         1 UNK         0.3000 
    216 H216       -6.0765  -23.1833  -52.8685 H         1 UNK         0.0600 
    217 H217       -4.6636  -25.5544  -51.5466 H         1 UNK         0.0600 
    218 H218       -5.2361  -25.4672  -53.2037 H         1 UNK         0.0600 
    219 H219       -6.3920  -25.4634  -51.8803 H         1 UNK         0.0600 
    220 H220       -3.4317  -22.6448  -50.7022 H         1 UNK         0.3000 
    221 H221       -1.2500  -22.6659  -52.5345 H         1 UNK         0.0600 
    222 H222       -0.8462  -22.6628  -50.1185 H         1 UNK         0.0600 
    223 H223       -1.6455  -21.1027  -49.9376 H         1 UNK         0.0600 
    224 H224       -0.1293  -21.2229  -50.8140 H         1 UNK         0.0600 
    225 H225       -3.7923  -20.2573  -51.8906 H         1 UNK         0.3000 
    226 H226       -2.5456  -18.0688  -53.2597 H         1 UNK         0.0600 
    227 H227       -5.5100  -18.5962  -52.6929 H         1 UNK         0.0600 
    228 H228       -4.3928  -17.7788  -51.6012 H         1 UNK         0.0600 
    229 H229       -4.7970  -17.0541  -53.1485 H         1 UNK         0.0600 
    230 H230       -4.5159  -20.8078  -54.3180 H         1 UNK         0.3000 
    231 H231       -4.8808  -19.8471  -57.0513 H         1 UNK         0.0600 
    232 H232       -5.3179  -22.6279  -55.8353 H         1 UNK         0.0600 
    233 H233       -5.8243  -22.1032  -57.4336 H         1 UNK         0.0600 
    234 H234       -6.5443  -21.3740  -56.0068 H         1 UNK         0.0600 
    235 H235       -2.7710  -22.2009  -55.3441 H         1 UNK         0.3000 
    236 H236       -1.2555  -23.0766  -57.5519 H         1 UNK         0.0600 
    237 H237       -0.3479  -22.8385  -54.6384 H         1 UNK         0.0600 
    238 H238       -1.3231  -24.1641  -55.2759 H         1 UNK         0.0600 
    239 H239        0.3166  -23.9118  -55.8582 H         1 UNK         0.0600 
    240 H240       -0.9252  -20.1573  -55.6040 H         1 UNK         0.3000 
    241 H241        1.5420  -19.2233  -56.6350 H         1 UNK         0.0600 
    242 H242       -0.9253  -18.4289  -59.7335 H         1 UNK         0.3800 
    243 H243       -1.4203  -19.5301  -58.4739 H         1 UNK         0.3800 
    244 H244       -0.5488  -18.2144  -54.8554 H         1 UNK         0.0800 
    245 H245       -0.1920  -16.9618  -55.9751 H         1 UNK         0.0800 
    246 H246        1.1245  -19.0843  -52.9857 H         1 UNK         0.0800 
    247 H247        2.2131  -17.8952  -52.3199 H         1 UNK         0.0800 
@<TRIPOS>BOND
     1    1    2 1    
     2    1  127 1    
     3    1  128 1    
     4    1  129 1    
     5    2    3 2    
     6    2    4 am   BACKBONE|DICT|INTERRES
     7    4    5 1    
     8    4  130 1    
     9    5    6 1    
    10    5   65 1    
    11    5  131 1    
    12    6    7 1    
    13    6  132 1    
    14    6  133 1    
    15    7    8 1    
    16    8    9 1    
    17    8  134 1    
    18    8  135 1    
    19    9   10 ar   
    20    9   14 ar   
    21   10   11 ar   
    22   10  136 1    
    23   11   12 ar   
    24   11  126 1    
    25   12   13 ar   
    26   12  137 1    
    27   13   14 ar   
    28   13   15 1    
    29   14  138 1    
    30   15   16 1    
    31   15  139 1    
    32   15  140 1    
    33   16   17 1    
    34   17   18 1    
    35   17  141 1    
    36   17  142 1    
    37   18   19 1    
    38   18   67 1    
    39   18  143 1    
    40   19   20 am   BACKBONE|DICT|INTERRES
    41   19  144 1    
    42   20   21 2    
    43   20   22 1    
    44   22   23 1    
    45   22   24 1    
    46   22  145 1    
    47   23  146 1    
    48   23  147 1    
    49   23  148 1    
    50   24   25 am   BACKBONE|DICT|INTERRES
    51   24  149 1    
    52   25   26 2    
    53   25   27 1    
    54   27   28 1    
    55   27   29 1    
    56   27  150 1    
    57   28  151 1    
    58   28  152 1    
    59   28  153 1    
    60   29   30 am   BACKBONE|DICT|INTERRES
    61   29  154 1    
    62   30   31 2    
    63   30   32 1    
    64   32   33 1    
    65   32   34 1    
    66   32  155 1    
    67   33  156 1    
    68   33  157 1    
    69   33  158 1    
    70   34   35 am   BACKBONE|DICT|INTERRES
    71   34  159 1    
    72   35   36 2    
    73   35   37 1    
    74   37   38 1    
    75   37   39 1    
    76   37  160 1    
    77   38  161 1    
    78   38  162 1    
    79   38  163 1    
    80   39   40 am   BACKBONE|DICT|INTERRES
    81   39  164 1    
    82   40   41 2    
    83   40   42 1    
    84   42   43 1    
    85   42   44 1    
    86   42  165 1    
    87   43  166 1    
    88   43  167 1    
    89   43  168 1    
    90   44   45 am   BACKBONE|DICT|INTERRES
    91   44  169 1    
    92   45   46 2    
    93   45   47 1    
    94   47   48 1    
    95   47   49 1    
    96   47  170 1    
    97   48  171 1    
    98   48  172 1    
    99   48  173 1    
   100   49   50 am   BACKBONE|DICT|INTERRES
   101   49  174 1    
   102   50   51 2    
   103   50   52 1    
   104   52   53 1    
   105   52   54 1    
   106   52  175 1    
   107   53  176 1    
   108   53  177 1    
   109   53  178 1    
   110   54   55 am   BACKBONE|DICT|INTERRES
   111   54  179 1    
   112   55   56 2    
   113   55   57 1    
   114   57   58 1    
   115   57   59 1    
   116   57  180 1    
   117   58  181 1    
   118   58  182 1    
   119   58  183 1    
   120   59   60 am   BACKBONE|DICT|INTERRES
   121   59  184 1    
   122   60   61 2    
   123   60   62 1    
   124   62   63 1    
   125   62   64 1    
   126   62  185 1    
   127   63  186 1    
   128   63  187 1    
   129   63  188 1    
   130   64   65 am   BACKBONE|DICT|INTERRES
   131   64  189 1    
   132   65   66 2    
   133   67   68 2    
   134   67   69 am   BACKBONE|DICT|INTERRES
   135   69   70 1    
   136   69  190 1    
   137   70   71 1    
   138   70   72 1    
   139   70  191 1    
   140   71  192 1    
   141   71  193 1    
   142   71  194 1    
   143   72   73 2    
   144   72   74 am   BACKBONE|DICT|INTERRES
   145   74   75 1    
   146   74  195 1    
   147   75   76 1    
   148   75   77 1    
   149   75  196 1    
   150   76  197 1    
   151   76  198 1    
   152   76  199 1    
   153   77   78 2    
   154   77   79 am   BACKBONE|DICT|INTERRES
   155   79   80 1    
   156   79  200 1    
   157   80   81 1    
   158   80   82 1    
   159   80  201 1    
   160   81  202 1    
   161   81  203 1    
   162   81  204 1    
   163   82   83 2    
   164   82   84 am   BACKBONE|DICT|INTERRES
   165   84   85 1    
   166   84  205 1    
   167   85   86 1    
   168   85   87 1    
   169   85  206 1    
   170   86  207 1    
   171   86  208 1    
   172   86  209 1    
   173   87   88 2    
   174   87   89 am   BACKBONE|DICT|INTERRES
   175   89   90 1    
   176   89  210 1    
   177   90   91 1    
   178   90   92 1    
   179   90  211 1    
   180   91  212 1    
   181   91  213 1    
   182   91  214 1    
   183   92   93 2    
   184   92   94 am   BACKBONE|DICT|INTERRES
   185   94   95 1    
   186   94  215 1    
   187   95   96 1    
   188   95   97 1    
   189   95  216 1    
   190   96  217 1    
   191   96  218 1    
   192   96  219 1    
   193   97   98 2    
   194   97   99 am   BACKBONE|DICT|INTERRES
   195   99  100 1    
   196   99  220 1    
   197  100  101 1    
   198  100  102 1    
   199  100  221 1    
   200  101  222 1    
   201  101  223 1    
   202  101  224 1    
   203  102  103 2    
   204  102  104 am   BACKBONE|DICT|INTERRES
   205  104  105 1    
   206  104  225 1    
   207  105  106 1    
   208  105  107 1    
   209  105  226 1    
   210  106  227 1    
   211  106  228 1    
   212  106  229 1    
   213  107  108 2    
   214  107  109 am   BACKBONE|DICT|INTERRES
   215  109  110 1    
   216  109  230 1    
   217  110  111 1    
   218  110  112 1    
   219  110  231 1    
   220  111  232 1    
   221  111  233 1    
   222  111  234 1    
   223  112  113 2    
   224  112  114 am   BACKBONE|DICT|INTERRES
   225  114  115 1    
   226  114  235 1    
   227  115  116 1    
   228  115  117 1    
   229  115  236 1    
   230  116  237 1    
   231  116  238 1    
   232  116  239 1    
   233  117  118 2    
   234  117  119 am   BACKBONE|DICT|INTERRES
   235  119  120 1    
   236  119  240 1    
   237  120  121 1    
   238  120  124 1    
   239  120  241 1    
   240  121  122 am   BACKBONE|DICT|INTERRES
   241  121  123 2    
   242  122  242 1    
   243  122  243 1    
   244  124  125 1    
   245  124  244 1    
   246  124  245 1    
   247  125  126 1    
   248  126  246 1    
   249  126  247 1    
@<TRIPOS>SUBSTRUCTURE
     1 UNK         1 GROUP             0       ****    0 ROOT    
