@<TRIPOS>MOLECULE
3R540
247   249    1
SMALL
USER_CHARGES


@<TRIPOS>ATOM
      1 CA          3.0147   -9.0630  -51.6324 C.3       0 UNK        -0.1800 
      2 C           3.3872  -10.4637  -51.1680 C.2       0 UNK         0.5000 
      3 O           4.5720  -10.7791  -51.0589 O.2       0 UNK        -0.5000 
      4 N           2.3815  -11.3024  -50.8886 N.am      1 UNK        -0.5000 
      5 CA          2.5399  -12.6892  -50.4289 C.3       1 UNK         0.1400 
      6 C6          1.3190  -13.5650  -50.8123 C.3       23 UNK        -0.0398 
      7 S7         -0.2826  -12.9559  -50.1732 S.3       23 UNK        -0.2404 
      8 C8         -0.5547  -14.0419  -48.7379 C.3       23 UNK        -0.0205 
      9 C9         -0.9648  -15.4530  -49.1359 C.ar      23 UNK        -0.0193 
     10 C10        -2.2926  -15.7231  -49.4786 C.ar      23 UNK        -0.1150 
     11 C11        -2.6961  -17.0236  -49.7979 C.ar      23 UNK        -0.0193 
     12 C12        -1.7623  -18.0622  -49.7429 C.ar      23 UNK        -0.1150 
     13 C13        -0.4346  -17.8102  -49.3894 C.ar      23 UNK        -0.0193 
     14 C14        -0.0363  -16.4992  -49.1113 C.ar      23 UNK        -0.1150 
     15 C15         0.5546  -18.9602  -49.2710 C.3       23 UNK        -0.0205 
     16 S16         0.8574  -19.3677  -47.5228 S.3       23 UNK        -0.2404 
     17 C17         1.4736  -21.0851  -47.6168 C.3       23 UNK        -0.0398 
     18 CA          0.5143  -22.1253  -46.9828 C.3       11 UNK         0.1400 
     19 N           0.1504  -21.7782  -45.6018 N.am      11 UNK        -0.5000 
     20 C          -0.5619  -22.5371  -44.7560 C.2       10 UNK         0.5000 
     21 O          -1.0865  -23.6034  -45.0786 O.2       10 UNK        -0.5000 
     22 CA         -0.7096  -22.0037  -43.3158 C.3       10 UNK         0.1400 
     23 CB         -1.1872  -23.0758  -42.3149 C.3       10 UNK        -0.1800 
     24 N           0.5087  -21.3405  -42.8419 N.am      10 UNK        -0.5000 
     25 C           1.7229  -21.8825  -42.6650 C.2       9 UNK         0.5000 
     26 O           1.9774  -23.0788  -42.8082 O.2       9 UNK        -0.5000 
     27 CA          2.8570  -20.9127  -42.2854 C.3       9 UNK         0.1400 
     28 CB          3.5288  -20.3663  -43.5553 C.3       9 UNK        -0.1800 
     29 N           2.4098  -19.7884  -41.4617 N.am      9 UNK        -0.5000 
     30 C           2.0153  -19.8810  -40.1841 C.2       8 UNK         0.5000 
     31 O           1.9980  -20.9346  -39.5466 O.2       8 UNK        -0.5000 
     32 CA          1.5555  -18.5765  -39.5078 C.3       8 UNK         0.1400 
     33 CB          2.7582  -17.7428  -39.0386 C.3       8 UNK        -0.1800 
     34 N           0.7165  -17.7684  -40.3920 N.am      8 UNK        -0.5000 
     35 C          -0.5673  -18.0382  -40.6667 C.2       7 UNK         0.5000 
     36 O          -1.1957  -18.9668  -40.1579 O.2       7 UNK        -0.5000 
     37 CA         -1.2661  -17.1281  -41.6946 C.3       7 UNK         0.1400 
     38 CB         -1.8703  -15.8976  -41.0015 C.3       7 UNK        -0.1800 
     39 N          -0.3787  -16.6872  -42.7706 N.am      7 UNK        -0.5000 
     40 C           0.1900  -17.4996  -43.6722 C.2       6 UNK         0.5000 
     41 O          -0.0029  -18.7136  -43.7212 O.2       6 UNK        -0.5000 
     42 CA          1.1750  -16.8527  -44.6581 C.3       6 UNK         0.1400 
     43 CB          0.4079  -16.1859  -45.8025 C.3       6 UNK        -0.1800 
     44 N           2.0529  -15.8665  -44.0299 N.am      6 UNK        -0.5000 
     45 C           2.9047  -16.1131  -43.0258 C.2       5 UNK         0.5000 
     46 O           3.0611  -17.2220  -42.5174 O.2       5 UNK        -0.5000 
     47 CA          3.6716  -14.9066  -42.4633 C.3       5 UNK         0.1400 
     48 CB          4.9109  -14.5961  -43.3163 C.3       5 UNK        -0.1800 
     49 N           2.8140  -13.7246  -42.3877 N.am      5 UNK        -0.5000 
     50 C           1.8790  -13.5328  -41.4469 C.2       4 UNK         0.5000 
     51 O           1.6853  -14.3062  -40.5083 O.2       4 UNK        -0.5000 
     52 CA          0.9944  -12.2797  -41.5963 C.3       4 UNK         0.1400 
     53 CB          1.6839  -11.0543  -40.9779 C.3       4 UNK        -0.1800 
     54 N           0.6456  -11.9868  -42.9888 N.am      4 UNK        -0.5000 
     55 C          -0.1451  -12.7601  -43.7457 C.2       3 UNK         0.5000 
     56 O          -0.6799  -13.7907  -43.3374 O.2       3 UNK        -0.5000 
     57 CA         -0.3426  -12.3368  -45.2162 C.3       3 UNK         0.1400 
     58 CB         -1.5208  -11.3600  -45.3404 C.3       3 UNK        -0.1800 
     59 N           0.8379  -11.7527  -45.8645 N.am      3 UNK        -0.5000 
     60 C           2.0605  -12.2999  -45.9164 C.2       2 UNK         0.5000 
     61 O           2.3624  -13.3527  -45.3541 O.2       2 UNK        -0.5000 
     62 CA          3.1023  -11.5350  -46.7528 C.3       2 UNK         0.1400 
     63 CB          4.5545  -11.9160  -46.3950 C.3       2 UNK        -0.1800 
     64 N           2.8502  -11.6829  -48.1906 N.am      2 UNK        -0.5000 
     65 C           2.8896  -12.8078  -48.9256 C.2       1 UNK         0.5000 
     66 O           3.1838  -13.9151  -48.4751 O.2       1 UNK        -0.5000 
     67 C          -0.6996  -22.4200  -47.8905 C.2       11 UNK         0.5000 
     68 O          -0.6362  -23.3368  -48.7098 O.2       11 UNK        -0.5000 
     69 N          -1.7953  -21.6732  -47.6933 N.am      12 UNK        -0.5000 
     70 CA         -3.0693  -21.8505  -48.3904 C.3       12 UNK         0.1400 
     71 CB         -4.0168  -20.7089  -47.9879 C.3       12 UNK        -0.1800 
     72 C          -3.7204  -23.2179  -48.1080 C.2       12 UNK         0.5000 
     73 O          -4.2303  -23.8563  -49.0314 O.2       12 UNK        -0.5000 
     74 N          -3.6684  -23.6402  -46.8376 N.am      13 UNK        -0.5000 
     75 CA         -4.1927  -24.9176  -46.3615 C.3       13 UNK         0.1400 
     76 CB         -4.4338  -24.8403  -44.8464 C.3       13 UNK        -0.1800 
     77 C          -3.2544  -26.0843  -46.7058 C.2       13 UNK         0.5000 
     78 O          -3.7363  -27.1463  -47.0969 O.2       13 UNK        -0.5000 
     79 N          -1.9372  -25.8600  -46.5911 N.am      14 UNK        -0.5000 
     80 CA         -0.8867  -26.8276  -46.9189 C.3       14 UNK         0.1400 
     81 CB          0.4765  -26.2682  -46.4873 C.3       14 UNK        -0.1800 
     82 C          -0.8667  -27.2136  -48.4098 C.2       14 UNK         0.5000 
     83 O          -0.6143  -28.3746  -48.7334 O.2       14 UNK        -0.5000 
     84 N          -1.1711  -26.2450  -49.2854 N.am      15 UNK        -0.5000 
     85 CA         -1.3581  -26.4504  -50.7228 C.3       15 UNK         0.1400 
     86 CB         -1.3555  -25.0827  -51.4203 C.3       15 UNK        -0.1800 
     87 C          -2.6497  -27.2201  -51.0691 C.2       15 UNK         0.5000 
     88 O          -2.7372  -27.7820  -52.1608 O.2       15 UNK        -0.5000 
     89 N          -3.6264  -27.2136  -50.1475 N.am      16 UNK        -0.5000 
     90 CA         -4.9346  -27.8797  -50.2071 C.3       16 UNK         0.1400 
     91 CB         -4.7619  -29.4125  -50.2228 C.3       16 UNK        -0.1800 
     92 C          -5.8558  -27.3742  -51.3394 C.2       16 UNK         0.5000 
     93 O          -6.7954  -28.0731  -51.7234 O.2       16 UNK        -0.5000 
     94 N          -5.5810  -26.1673  -51.8474 N.am      17 UNK        -0.5000 
     95 CA         -6.2787  -25.5449  -52.9727 C.3       17 UNK         0.1400 
     96 CB         -5.7432  -26.1192  -54.3006 C.3       17 UNK        -0.1800 
     97 C          -6.1728  -24.0107  -52.9107 C.2       17 UNK         0.5000 
     98 O          -6.1540  -23.3590  -53.9555 O.2       17 UNK        -0.5000 
     99 N          -6.0561  -23.4542  -51.6930 N.am      18 UNK        -0.5000 
    100 CA        -5.9272  -22.0195  -51.3910 C.3       18 UNK         0.1400 
    101 CB        -7.2419  -21.2826  -51.7196 C.3       18 UNK        -0.1800 
    102 C         -4.6950  -21.3615  -52.0542 C.2       18 UNK         0.5000 
    103 O         -4.7384  -20.1867  -52.4201 O.2       18 UNK        -0.5000 
    104 N         -3.6348  -22.1629  -52.2474 N.am      19 UNK        -0.5000 
    105 CA        -2.4088  -21.8574  -52.9983 C.3       19 UNK         0.1400 
    106 CB        -1.5635  -20.8076  -52.2501 C.3       19 UNK        -0.1800 
    107 C         -2.6597  -21.4722  -54.4750 C.2       19 UNK         0.5000 
    108 O         -1.8209  -20.8013  -55.0788 O.2       19 UNK        -0.5000 
    109 N         -3.8175  -21.8777  -55.0223 N.am      20 UNK        -0.5000 
    110 CA        -4.3992  -21.5522  -56.3297 C.3       20 UNK         0.1400 
    111 CB        -3.5059  -22.0341  -57.4883 C.3       20 UNK        -0.1800 
    112 C         -4.7818  -20.0671  -56.4897 C.2       20 UNK         0.5000 
    113 O         -5.9051  -19.7710  -56.8995 O.2       20 UNK        -0.5000 
    114 N         -3.8542  -19.1643  -56.1497 N.am      21 UNK        -0.5000 
    115 CA        -3.9548  -17.7109  -56.2786 C.3       21 UNK         0.1400 
    116 CB        -2.6281  -17.0815  -55.8264 C.3       21 UNK        -0.1800 
    117 C         -5.1330  -17.0806  -55.5143 C.2       21 UNK         0.5000 
    118 O         -5.7043  -16.1030  -56.0001 O.2       21 UNK        -0.5000 
    119 N         -5.4813  -17.6485  -54.3531 N.am      22 UNK        -0.5000 
    120 CA        -6.6073  -17.1989  -53.5173 C.3       22 UNK         0.1400 
    121 C         -7.9374  -17.9529  -53.8161 C.2       22 UNK         0.5000 
    122 N         -8.0041  -18.8347  -54.8081 N.am      22 UNK        -0.7600 
    123 O         -8.9395  -17.7227  -53.1447 O.2       22 UNK        -0.5000 
    124 C124       -6.2650  -17.2150  -52.0038 C.3       23 UNK        -0.0398 
    125 S125       -4.6978  -16.3626  -51.6109 S.3       23 UNK        -0.2404 
    126 C126       -4.1438  -17.3199  -50.1644 C.3       23 UNK        -0.0205 
    127 H127        3.4237   -8.3194  -50.9485 H         1 UNK         0.0600 
    128 H128        3.4236   -8.8760  -52.6253 H         1 UNK         0.0600 
    129 H129        1.9341   -8.9249  -51.6785 H         1 UNK         0.0600 
    130 H130        1.4255  -10.9913  -50.9953 H         1 UNK         0.3000 
    131 H131        3.3970  -13.1116  -50.9580 H         1 UNK         0.0600 
    132 H132        1.4778  -14.5999  -50.5089 H         1 UNK         0.0800 
    133 H133        1.2379  -13.6009  -51.8994 H         1 UNK         0.0800 
    134 H134       -1.3405  -13.6047  -48.1206 H         1 UNK         0.0800 
    135 H135        0.3393  -14.0614  -48.1145 H         1 UNK         0.0800 
    136 H136       -3.0151  -14.9192  -49.4969 H         1 UNK         0.1150 
    137 H137       -2.0733  -19.0739  -49.9573 H         1 UNK         0.1150 
    138 H138        0.9893  -16.3040  -48.8309 H         1 UNK         0.1150 
    139 H139        0.1736  -19.8387  -49.7929 H         1 UNK         0.0800 
    140 H140        1.4966  -18.6943  -49.7525 H         1 UNK         0.0800 
    141 H141        2.4274  -21.1136  -47.0882 H         1 UNK         0.0800 
    142 H142        1.7092  -21.3482  -48.6496 H         1 UNK         0.0800 
    143 H143        1.0709  -23.0613  -46.9163 H         1 UNK         0.0600 
    144 H144        0.5040  -20.8946  -45.2617 H         1 UNK         0.3000 
    145 H145       -1.4767  -21.2294  -43.3573 H         1 UNK         0.0600 
    146 H146       -1.2610  -22.6675  -41.3069 H         1 UNK         0.0600 
    147 H147       -2.1748  -23.4495  -42.5860 H         1 UNK         0.0600 
    148 H148       -0.5128  -23.9319  -42.2827 H         1 UNK         0.0600 
    149 H149        0.4356  -20.3289  -42.7789 H         1 UNK         0.3000 
    150 H150        3.6016  -21.4754  -41.7185 H         1 UNK         0.0600 
    151 H151        3.8968  -21.1775  -44.1848 H         1 UNK         0.0600 
    152 H152        4.3811  -19.7328  -43.3089 H         1 UNK         0.0600 
    153 H153        2.8352  -19.7743  -44.1538 H         1 UNK         0.0600 
    154 H154        2.4592  -18.8663  -41.8889 H         1 UNK         0.3000 
    155 H155        0.9713  -18.8451  -38.6249 H         1 UNK         0.0600 
    156 H156        3.3946  -17.4409  -39.8705 H         1 UNK         0.0600 
    157 H157        3.3769  -18.3104  -38.3426 H         1 UNK         0.0600 
    158 H158        2.4332  -16.8388  -38.5231 H         1 UNK         0.0600 
    159 H159        1.1624  -16.9933  -40.8629 H         1 UNK         0.3000 
    160 H160       -2.0790  -17.7012  -42.1452 H         1 UNK         0.0600 
    161 H161       -2.4507  -15.2970  -41.7021 H         1 UNK         0.0600 
    162 H162       -1.0973  -15.2578  -40.5737 H         1 UNK         0.0600 
    163 H163       -2.5406  -16.1921  -40.1930 H         1 UNK         0.0600 
    164 H164       -0.2180  -15.6875  -42.8461 H         1 UNK         0.3000 
    165 H165        1.8055  -17.6402  -45.0748 H         1 UNK         0.0600 
    166 H166        1.0921  -15.7325  -46.5189 H         1 UNK         0.0600 
    167 H167       -0.2061  -16.9119  -46.3343 H         1 UNK         0.0600 
    168 H168       -0.2649  -15.4137  -45.4377 H         1 UNK         0.0600 
    169 H169        2.0360  -14.9284  -44.4231 H         1 UNK         0.3000 
    170 H170        4.0097  -15.1615  -41.4564 H         1 UNK         0.0600 
    171 H171        5.5852  -15.4528  -43.3461 H         1 UNK         0.0600 
    172 H172        4.6461  -14.3537  -44.3458 H         1 UNK         0.0600 
    173 H173        5.4708  -13.7550  -42.9073 H         1 UNK         0.0600 
    174 H174        2.8519  -13.0902  -43.1739 H         1 UNK         0.3000 
    175 H175        0.0682  -12.4624  -41.0468 H         1 UNK         0.0600 
    176 H176        1.0330  -10.1803  -41.0045 H         1 UNK         0.0600 
    177 H177        1.9390  -11.2364  -39.9330 H         1 UNK         0.0600 
    178 H178        2.6067  -10.8028  -41.5022 H         1 UNK         0.0600 
    179 H179        1.0491  -11.1583  -43.4001 H         1 UNK         0.3000 
    180 H180       -0.6006  -13.2331  -45.7788 H         1 UNK         0.0600 
    181 H181       -1.3111  -10.4113  -44.8448 H         1 UNK         0.0600 
    182 H182       -2.4225  -11.7750  -44.8878 H         1 UNK         0.0600 
    183 H183       -1.7516  -11.1507  -46.3852 H         1 UNK         0.0600 
    184 H184        0.6824  -10.8867  -46.3598 H         1 UNK         0.3000 
    185 H185        2.9821  -10.4754  -46.5219 H         1 UNK         0.0600 
    186 H186        4.7627  -12.9703  -46.5787 H         1 UNK         0.0600 
    187 H187        5.2684  -11.3294  -46.9730 H         1 UNK         0.0600 
    188 H188        4.7558  -11.7267  -45.3399 H         1 UNK         0.0600 
    189 H189        2.5849  -10.8371  -48.6745 H         1 UNK         0.3000 
    190 H190       -1.7493  -20.9382  -47.0026 H         1 UNK         0.3000 
    191 H191       -2.8793  -21.7842  -49.4623 H         1 UNK         0.0600 
    192 H192       -3.5864  -19.7350  -48.2163 H         1 UNK         0.0600 
    193 H193       -4.2375  -20.7275  -46.9199 H         1 UNK         0.0600 
    194 H194       -4.9675  -20.7733  -48.5159 H         1 UNK         0.0600 
    195 H195       -3.1667  -23.0812  -46.1626 H         1 UNK         0.3000 
    196 H196       -5.1529  -25.1034  -46.8480 H         1 UNK         0.0600 
    197 H197       -4.8628  -25.7710  -44.4729 H         1 UNK         0.0600 
    198 H198       -5.1297  -24.0389  -44.5979 H         1 UNK         0.0600 
    199 H199       -3.5084  -24.6638  -44.2978 H         1 UNK         0.0600 
    200 H200       -1.6297  -24.9726  -46.1992 H         1 UNK         0.3000 
    201 H201       -1.0816  -27.7345  -46.3431 H         1 UNK         0.0600 
    202 H202        0.4834  -26.0130  -45.4273 H         1 UNK         0.0600 
    203 H203        0.7363  -25.3725  -47.0505 H         1 UNK         0.0600 
    204 H204        1.2681  -27.0001  -46.6521 H         1 UNK         0.0600 
    205 H205       -1.2843  -25.2963  -48.9438 H         1 UNK         0.3000 
    206 H206       -0.5156  -27.0321  -51.1022 H         1 UNK         0.0600 
    207 H207       -0.4037  -24.5705  -51.2780 H         1 UNK         0.0600 
    208 H208       -1.5100  -25.1891  -52.4948 H         1 UNK         0.0600 
    209 H209       -2.1420  -24.4360  -51.0305 H         1 UNK         0.0600 
    210 H210       -3.4354  -26.7427  -49.2725 H         1 UNK         0.3000 
    211 H211       -5.4427  -27.6194  -49.2777 H         1 UNK         0.0600 
    212 H212       -4.3208  -29.7610  -51.1570 H         1 UNK         0.0600 
    213 H213       -5.7211  -29.9178  -50.1057 H         1 UNK         0.0600 
    214 H214       -4.1216  -29.7432  -49.4047 H         1 UNK         0.0600 
    215 H215       -4.7892  -25.6670  -51.4705 H         1 UNK         0.3000 
    216 H216       -7.3435  -25.7754  -52.9012 H         1 UNK         0.0600 
    217 H217       -6.2762  -25.7032  -55.1565 H         1 UNK         0.0600 
    218 H218       -5.8659  -27.2014  -54.3442 H         1 UNK         0.0600 
    219 H219       -4.6831  -25.8985  -54.4311 H         1 UNK         0.0600 
    220 H220       -6.0706  -24.0626  -50.8851 H         1 UNK         0.3000 
    221 H221       -5.7736  -21.9504  -50.3154 H         1 UNK         0.0600 
    222 H222       -7.4020  -21.1987  -52.7953 H         1 UNK         0.0600 
    223 H223       -8.1018  -21.7981  -51.2921 H         1 UNK         0.0600 
    224 H224       -7.2388  -20.2738  -51.3090 H         1 UNK         0.0600 
    225 H225       -3.7154  -23.1108  -51.9120 H         1 UNK         0.3000 
    226 H226       -1.8289  -22.7791  -53.0328 H         1 UNK         0.0600 
    227 H227       -1.3761  -21.1159  -51.2223 H         1 UNK         0.0600 
    228 H228       -0.5913  -20.6727  -52.7253 H         1 UNK         0.0600 
    229 H229       -2.0545  -19.8343  -52.2323 H         1 UNK         0.0600 
    230 H230       -4.4545  -22.3954  -54.4251 H         1 UNK         0.3000 
    231 H231       -5.3299  -22.1196  -56.3813 H         1 UNK         0.0600 
    232 H232       -3.2871  -23.0982  -57.3995 H         1 UNK         0.0600 
    233 H233       -2.5573  -21.4984  -57.5275 H         1 UNK         0.0600 
    234 H234       -4.0025  -21.8832  -58.4475 H         1 UNK         0.0600 
    235 H235       -2.9723  -19.5303  -55.7994 H         1 UNK         0.3000 
    236 H236       -4.0961  -17.4886  -57.3380 H         1 UNK         0.0600 
    237 H237       -2.6529  -15.9961  -55.9319 H         1 UNK         0.0600 
    238 H238       -2.4153  -17.3055  -54.7800 H         1 UNK         0.0600 
    239 H239       -1.7930  -17.4471  -56.4243 H         1 UNK         0.0600 
    240 H240       -4.9738  -18.4562  -54.0144 H         1 UNK         0.3000 
    241 H241       -6.8208  -16.1569  -53.7614 H         1 UNK         0.0600 
    242 H242       -8.8760  -19.3051  -54.9905 H         1 UNK         0.3800 
    243 H243       -7.2034  -19.0208  -55.3995 H         1 UNK         0.3800 
    244 H244       -7.0587  -16.7338  -51.4300 H         1 UNK         0.0800 
    245 H245       -6.2150  -18.2405  -51.6439 H         1 UNK         0.0800 
    246 H246       -4.2656  -18.3836  -50.3736 H         1 UNK         0.0800 
    247 H247       -4.7857  -17.0931  -49.3124 H         1 UNK         0.0800 
@<TRIPOS>BOND
     1    1    2 1    
     2    1  127 1    
     3    1  128 1    
     4    1  129 1    
     5    2    3 2    
     6    2    4 am   BACKBONE|DICT|INTERRES
     7    4    5 1    
     8    4  130 1    
     9    5    6 1    
    10    5   65 1    
    11    5  131 1    
    12    6    7 1    
    13    6  132 1    
    14    6  133 1    
    15    7    8 1    
    16    8    9 1    
    17    8  134 1    
    18    8  135 1    
    19    9   10 ar   
    20    9   14 ar   
    21   10   11 ar   
    22   10  136 1    
    23   11   12 ar   
    24   11  126 1    
    25   12   13 ar   
    26   12  137 1    
    27   13   14 ar   
    28   13   15 1    
    29   14  138 1    
    30   15   16 1    
    31   15  139 1    
    32   15  140 1    
    33   16   17 1    
    34   17   18 1    
    35   17  141 1    
    36   17  142 1    
    37   18   19 1    
    38   18   67 1    
    39   18  143 1    
    40   19   20 am   BACKBONE|DICT|INTERRES
    41   19  144 1    
    42   20   21 2    
    43   20   22 1    
    44   22   23 1    
    45   22   24 1    
    46   22  145 1    
    47   23  146 1    
    48   23  147 1    
    49   23  148 1    
    50   24   25 am   BACKBONE|DICT|INTERRES
    51   24  149 1    
    52   25   26 2    
    53   25   27 1    
    54   27   28 1    
    55   27   29 1    
    56   27  150 1    
    57   28  151 1    
    58   28  152 1    
    59   28  153 1    
    60   29   30 am   BACKBONE|DICT|INTERRES
    61   29  154 1    
    62   30   31 2    
    63   30   32 1    
    64   32   33 1    
    65   32   34 1    
    66   32  155 1    
    67   33  156 1    
    68   33  157 1    
    69   33  158 1    
    70   34   35 am   BACKBONE|DICT|INTERRES
    71   34  159 1    
    72   35   36 2    
    73   35   37 1    
    74   37   38 1    
    75   37   39 1    
    76   37  160 1    
    77   38  161 1    
    78   38  162 1    
    79   38  163 1    
    80   39   40 am   BACKBONE|DICT|INTERRES
    81   39  164 1    
    82   40   41 2    
    83   40   42 1    
    84   42   43 1    
    85   42   44 1    
    86   42  165 1    
    87   43  166 1    
    88   43  167 1    
    89   43  168 1    
    90   44   45 am   BACKBONE|DICT|INTERRES
    91   44  169 1    
    92   45   46 2    
    93   45   47 1    
    94   47   48 1    
    95   47   49 1    
    96   47  170 1    
    97   48  171 1    
    98   48  172 1    
    99   48  173 1    
   100   49   50 am   BACKBONE|DICT|INTERRES
   101   49  174 1    
   102   50   51 2    
   103   50   52 1    
   104   52   53 1    
   105   52   54 1    
   106   52  175 1    
   107   53  176 1    
   108   53  177 1    
   109   53  178 1    
   110   54   55 am   BACKBONE|DICT|INTERRES
   111   54  179 1    
   112   55   56 2    
   113   55   57 1    
   114   57   58 1    
   115   57   59 1    
   116   57  180 1    
   117   58  181 1    
   118   58  182 1    
   119   58  183 1    
   120   59   60 am   BACKBONE|DICT|INTERRES
   121   59  184 1    
   122   60   61 2    
   123   60   62 1    
   124   62   63 1    
   125   62   64 1    
   126   62  185 1    
   127   63  186 1    
   128   63  187 1    
   129   63  188 1    
   130   64   65 am   BACKBONE|DICT|INTERRES
   131   64  189 1    
   132   65   66 2    
   133   67   68 2    
   134   67   69 am   BACKBONE|DICT|INTERRES
   135   69   70 1    
   136   69  190 1    
   137   70   71 1    
   138   70   72 1    
   139   70  191 1    
   140   71  192 1    
   141   71  193 1    
   142   71  194 1    
   143   72   73 2    
   144   72   74 am   BACKBONE|DICT|INTERRES
   145   74   75 1    
   146   74  195 1    
   147   75   76 1    
   148   75   77 1    
   149   75  196 1    
   150   76  197 1    
   151   76  198 1    
   152   76  199 1    
   153   77   78 2    
   154   77   79 am   BACKBONE|DICT|INTERRES
   155   79   80 1    
   156   79  200 1    
   157   80   81 1    
   158   80   82 1    
   159   80  201 1    
   160   81  202 1    
   161   81  203 1    
   162   81  204 1    
   163   82   83 2    
   164   82   84 am   BACKBONE|DICT|INTERRES
   165   84   85 1    
   166   84  205 1    
   167   85   86 1    
   168   85   87 1    
   169   85  206 1    
   170   86  207 1    
   171   86  208 1    
   172   86  209 1    
   173   87   88 2    
   174   87   89 am   BACKBONE|DICT|INTERRES
   175   89   90 1    
   176   89  210 1    
   177   90   91 1    
   178   90   92 1    
   179   90  211 1    
   180   91  212 1    
   181   91  213 1    
   182   91  214 1    
   183   92   93 2    
   184   92   94 am   BACKBONE|DICT|INTERRES
   185   94   95 1    
   186   94  215 1    
   187   95   96 1    
   188   95   97 1    
   189   95  216 1    
   190   96  217 1    
   191   96  218 1    
   192   96  219 1    
   193   97   98 2    
   194   97   99 am   BACKBONE|DICT|INTERRES
   195   99  100 1    
   196   99  220 1    
   197  100  101 1    
   198  100  102 1    
   199  100  221 1    
   200  101  222 1    
   201  101  223 1    
   202  101  224 1    
   203  102  103 2    
   204  102  104 am   BACKBONE|DICT|INTERRES
   205  104  105 1    
   206  104  225 1    
   207  105  106 1    
   208  105  107 1    
   209  105  226 1    
   210  106  227 1    
   211  106  228 1    
   212  106  229 1    
   213  107  108 2    
   214  107  109 am   BACKBONE|DICT|INTERRES
   215  109  110 1    
   216  109  230 1    
   217  110  111 1    
   218  110  112 1    
   219  110  231 1    
   220  111  232 1    
   221  111  233 1    
   222  111  234 1    
   223  112  113 2    
   224  112  114 am   BACKBONE|DICT|INTERRES
   225  114  115 1    
   226  114  235 1    
   227  115  116 1    
   228  115  117 1    
   229  115  236 1    
   230  116  237 1    
   231  116  238 1    
   232  116  239 1    
   233  117  118 2    
   234  117  119 am   BACKBONE|DICT|INTERRES
   235  119  120 1    
   236  119  240 1    
   237  120  121 1    
   238  120  124 1    
   239  120  241 1    
   240  121  122 am   BACKBONE|DICT|INTERRES
   241  121  123 2    
   242  122  242 1    
   243  122  243 1    
   244  124  125 1    
   245  124  244 1    
   246  124  245 1    
   247  125  126 1    
   248  126  246 1    
   249  126  247 1    
@<TRIPOS>SUBSTRUCTURE
     1 UNK         1 GROUP             0       ****    0 ROOT    
