@<TRIPOS>MOLECULE
3R540
247   249    1
SMALL
USER_CHARGES


@<TRIPOS>ATOM
      1 CA          3.1702  -12.5961  -47.1818 C.3       0 UNK        -0.1800 
      2 C           2.5561  -11.5886  -48.1531 C.2       0 UNK         0.5000 
      3 O           3.0496  -10.4671  -48.2491 O.2       0 UNK        -0.5000 
      4 N           1.4971  -11.9336  -48.8973 N.am      1 UNK        -0.5000 
      5 CA          0.7410  -13.1881  -48.8397 C.3       1 UNK         0.1400 
      6 C6         -0.0162  -13.4652  -50.1584 C.3       23 UNK        -0.0398 
      7 S7          1.1236  -13.7769  -51.5511 S.3       23 UNK        -0.2404 
      8 C8         -0.0150  -14.3770  -52.8438 C.3       23 UNK        -0.0205 
      9 C9         -0.8181  -15.5837  -52.3821 C.ar      23 UNK        -0.0193 
     10 C10        -2.1886  -15.4632  -52.1371 C.ar      23 UNK        -0.1150 
     11 C11        -2.9202  -16.5482  -51.6479 C.ar      23 UNK        -0.0193 
     12 C12        -2.2717  -17.7643  -51.4147 C.ar      23 UNK        -0.1150 
     13 C13        -0.8994  -17.8967  -51.6535 C.ar      23 UNK        -0.0193 
     14 C14        -0.1823  -16.8061  -52.1515 C.ar      23 UNK        -0.1150 
     15 C15        -0.1763  -19.2020  -51.3531 C.3       23 UNK        -0.0205 
     16 S16         0.7327  -19.1247  -49.7723 S.3       23 UNK        -0.2404 
     17 C17        -0.6306  -19.1817  -48.5633 C.3       23 UNK        -0.0398 
     18 CA         -0.7812  -20.5930  -47.9407 C.3       11 UNK         0.1400 
     19 N           0.1648  -20.8331  -46.8545 N.am      11 UNK        -0.5000 
     20 C           0.8638  -21.9642  -46.6981 C.2       10 UNK         0.5000 
     21 O           0.7597  -22.9458  -47.4334 O.2       10 UNK        -0.5000 
     22 CA          1.8695  -22.0046  -45.5346 C.3       10 UNK         0.1400 
     23 CB          3.1519  -21.2435  -45.9047 C.3       10 UNK        -0.1800 
     24 N           1.3290  -21.4726  -44.2846 N.am      10 UNK        -0.5000 
     25 C           0.3809  -22.0736  -43.5519 C.2       9 UNK         0.5000 
     26 O          -0.1440  -23.1455  -43.8536 O.2       9 UNK        -0.5000 
     27 CA         -0.0550  -21.3535  -42.2619 C.3       9 UNK         0.1400 
     28 CB          0.9373  -21.6308  -41.1225 C.3       9 UNK        -0.1800 
     29 N          -0.2082  -19.9110  -42.4461 N.am      9 UNK        -0.5000 
     30 C          -1.1368  -19.3431  -43.2276 C.2       8 UNK         0.5000 
     31 O          -2.0090  -19.9767  -43.8197 O.2       8 UNK        -0.5000 
     32 CA         -1.0509  -17.8182  -43.4239 C.3       8 UNK         0.1400 
     33 CB         -1.7447  -17.0702  -42.2777 C.3       8 UNK        -0.1800 
     34 N           0.3275  -17.3467  -43.5550 N.am      8 UNK        -0.5000 
     35 C           1.1478  -17.6767  -44.5621 C.2       7 UNK         0.5000 
     36 O           0.8083  -18.3727  -45.5180 O.2       7 UNK        -0.5000 
     37 CA          2.5983  -17.1772  -44.4622 C.3       7 UNK         0.1400 
     38 CB          2.7191  -15.7247  -44.9499 C.3       7 UNK        -0.1800 
     39 N           3.1141  -17.2872  -43.0979 N.am      7 UNK        -0.5000 
     40 C           3.4014  -18.4498  -42.4953 C.2       6 UNK         0.5000 
     41 O           3.2869  -19.5475  -43.0397 O.2       6 UNK        -0.5000 
     42 CA          3.8516  -18.3728  -41.0250 C.3       6 UNK         0.1400 
     43 CB          5.3479  -18.0391  -40.9324 C.3       6 UNK        -0.1800 
     44 N           3.0860  -17.3924  -40.2531 N.am      6 UNK        -0.5000 
     45 C           1.7798  -17.5048  -39.9736 C.2       5 UNK         0.5000 
     46 O           1.0890  -18.4633  -40.3136 O.2       5 UNK        -0.5000 
     47 CA          1.1219  -16.3252  -39.2349 C.3       5 UNK         0.1400 
     48 CB          1.2800  -16.4848  -37.7156 C.3       5 UNK        -0.1800 
     49 N           1.6350  -15.0140  -39.6429 N.am      5 UNK        -0.5000 
     50 C           1.5863  -14.5273  -40.8891 C.2       4 UNK         0.5000 
     51 O           1.1512  -15.1569  -41.8589 O.2       4 UNK        -0.5000 
     52 CA          2.1577  -13.1195  -41.0930 C.3       4 UNK         0.1400 
     53 CB          3.6878  -13.1715  -41.2334 C.3       4 UNK        -0.1800 
     54 N           1.5879  -12.5745  -42.3171 N.am      4 UNK        -0.5000 
     55 C           1.0764  -11.3508  -42.4777 C.2       3 UNK         0.5000 
     56 O           1.0957  -10.4803  -41.6064 O.2       3 UNK        -0.5000 
     57 CA          0.4401  -11.0400  -43.8470 C.3       3 UNK         0.1400 
     58 CB          1.3395  -10.0886  -44.6526 C.3       3 UNK        -0.1800 
     59 N           0.1923  -12.2357  -44.6568 N.am      3 UNK        -0.5000 
     60 C          -0.8402  -13.0777  -44.5117 C.2       2 UNK         0.5000 
     61 O          -1.6934  -12.9546  -43.6326 O.2       2 UNK        -0.5000 
     62 CA         -0.9162  -14.2646  -45.5031 C.3       2 UNK         0.1400 
     63 CB         -2.3660  -14.6624  -45.8467 C.3       2 UNK        -0.1800 
     64 N          -0.1198  -14.0979  -46.7312 N.am      2 UNK        -0.5000 
     65 C          -0.2435  -13.1330  -47.6565 C.2       1 UNK         0.5000 
     66 O          -1.0656  -12.2172  -47.5980 O.2       1 UNK        -0.5000 
     67 C          -2.2177  -20.8701  -47.4719 C.2       11 UNK         0.5000 
     68 O          -2.7576  -21.9284  -47.7973 O.2       11 UNK        -0.5000 
     69 N          -2.8354  -19.8937  -46.7928 N.am      12 UNK        -0.5000 
     70 CA         -4.2769  -19.8129  -46.5340 C.3       12 UNK         0.1400 
     71 CB         -4.5845  -18.5188  -45.7640 C.3       12 UNK        -0.1800 
     72 C          -4.8752  -21.0368  -45.8182 C.2       12 UNK         0.5000 
     73 O          -5.8922  -21.5665  -46.2684 O.2       12 UNK        -0.5000 
     74 N          -4.2075  -21.4951  -44.7526 N.am      13 UNK        -0.5000 
     75 CA         -4.6071  -22.6621  -43.9601 C.3       13 UNK         0.1400 
     76 CB         -3.7884  -22.6903  -42.6628 C.3       13 UNK        -0.1800 
     77 C          -4.4572  -24.0008  -44.7109 C.2       13 UNK         0.5000 
     78 O          -5.0871  -24.9849  -44.3225 O.2       13 UNK        -0.5000 
     79 N          -3.6417  -24.0114  -45.7718 N.am      14 UNK        -0.5000 
     80 CA         -3.3824  -25.1565  -46.6405 C.3       14 UNK         0.1400 
     81 CB         -1.8684  -25.2331  -46.8981 C.3       14 UNK        -0.1800 
     82 C          -4.1786  -25.0681  -47.9580 C.2       14 UNK         0.5000 
     83 O          -3.8096  -25.7336  -48.9245 O.2       14 UNK        -0.5000 
     84 N          -5.2381  -24.2434  -47.9944 N.am      15 UNK        -0.5000 
     85 CA         -6.1162  -23.9936  -49.1446 C.3       15 UNK         0.1400 
     86 CB         -6.9234  -25.2582  -49.5077 C.3       15 UNK        -0.1800 
     87 C          -5.3448  -23.4030  -50.3422 C.2       15 UNK         0.5000 
     88 O          -5.4258  -23.9172  -51.4587 O.2       15 UNK        -0.5000 
     89 N          -4.5788  -22.3420  -50.0556 N.am      16 UNK        -0.5000 
     90 CA         -3.6653  -21.6374  -50.9563 C.3       16 UNK         0.1400 
     91 CB         -4.4134  -20.9987  -52.1452 C.3       16 UNK        -0.1800 
     92 C          -2.4820  -22.5254  -51.3825 C.2       16 UNK         0.5000 
     93 O          -2.1613  -22.5949  -52.5675 O.2       16 UNK        -0.5000 
     94 N          -1.8528  -23.1803  -50.3972 N.am      17 UNK        -0.5000 
     95 CA         -0.6667  -24.0382  -50.5309 C.3       17 UNK         0.1400 
     96 CB          0.5482  -23.2254  -51.0316 C.3       17 UNK        -0.1800 
     97 C          -0.9090  -25.3239  -51.3548 C.2       17 UNK         0.5000 
     98 O           0.0177  -25.8220  -51.9955 O.2       17 UNK        -0.5000 
     99 N          -2.1435  -25.8436  -51.2900 N.am      18 UNK        -0.5000 
    100 CA        -2.6449  -27.1010  -51.8547 C.3       18 UNK         0.1400 
    101 CB        -2.2315  -28.2605  -50.9249 C.3       18 UNK        -0.1800 
    102 C         -2.2556  -27.3678  -53.3327 C.2       18 UNK         0.5000 
    103 O         -1.5165  -28.3161  -53.5998 O.2       18 UNK        -0.5000 
    104 N         -2.7198  -26.5800  -54.3109 N.am      19 UNK        -0.5000 
    105 CA        -3.5760  -25.4038  -54.2215 C.3       19 UNK         0.1400 
    106 CB        -5.0593  -25.8164  -54.2285 C.3       19 UNK        -0.1800 
    107 C         -3.2335  -24.5195  -55.4273 C.2       19 UNK         0.5000 
    108 O         -3.4942  -24.9157  -56.5649 O.2       19 UNK        -0.5000 
    109 N         -2.6364  -23.3532  -55.1654 N.am      20 UNK        -0.5000 
    110 CA        -2.2644  -22.3513  -56.1670 C.3       20 UNK         0.1400 
    111 CB        -1.1001  -21.5156  -55.6089 C.3       20 UNK        -0.1800 
    112 C         -3.4390  -21.4322  -56.5563 C.2       20 UNK         0.5000 
    113 O         -3.3008  -20.6382  -57.4887 O.2       20 UNK        -0.5000 
    114 N         -4.5508  -21.5156  -55.8065 N.am      21 UNK        -0.5000 
    115 CA        -5.7878  -20.7329  -55.9426 C.3       21 UNK         0.1400 
    116 CB        -6.5245  -21.1162  -57.2425 C.3       21 UNK        -0.1800 
    117 C         -5.5756  -19.2079  -55.8077 C.2       21 UNK         0.5000 
    118 O         -6.3724  -18.4263  -56.3295 O.2       21 UNK        -0.5000 
    119 N         -4.4940  -18.8231  -55.1164 N.am      22 UNK        -0.5000 
    120 CA        -4.0134  -17.4448  -54.9239 C.3       22 UNK         0.1400 
    121 C         -3.5001  -16.7584  -56.2275 C.2       22 UNK         0.5000 
    122 N         -3.1892  -17.4988  -57.2869 N.am      22 UNK        -0.7600 
    123 O         -3.3503  -15.5406  -56.2769 O.2       22 UNK        -0.5000 
    124 C124       -5.0021  -16.5579  -54.1134 C.3       23 UNK        -0.0398 
    125 S125       -5.4574  -17.3106  -52.5104 S.3       23 UNK        -0.2404 
    126 C126       -4.4039  -16.3937  -51.3435 C.3       23 UNK        -0.0205 
    127 H127        3.4792  -13.5023  -47.7027 H         1 UNK         0.0600 
    128 H128        2.4715  -12.8627  -46.3916 H         1 UNK         0.0600 
    129 H129        4.0562  -12.1737  -46.7071 H         1 UNK         0.0600 
    130 H130        1.1117  -11.2411  -49.5229 H         1 UNK         0.3000 
    131 H131        1.4324  -14.0180  -48.6827 H         1 UNK         0.0600 
    132 H132       -0.6552  -14.3399  -50.0307 H         1 UNK         0.0800 
    133 H133       -0.6758  -12.6352  -50.4184 H         1 UNK         0.0800 
    134 H134       -0.6758  -13.5620  -53.1436 H         1 UNK         0.0800 
    135 H135        0.5617  -14.6461  -53.7298 H         1 UNK         0.0800 
    136 H136       -2.6817  -14.5160  -52.3055 H         1 UNK         0.1150 
    137 H137       -2.8401  -18.5987  -51.0330 H         1 UNK         0.1150 
    138 H138        0.8812  -16.8968  -52.3238 H         1 UNK         0.1150 
    139 H139        0.5316  -19.4154  -52.1554 H         1 UNK         0.0800 
    140 H140       -0.8740  -20.0389  -51.3373 H         1 UNK         0.0800 
    141 H141       -1.5476  -18.8698  -49.0607 H         1 UNK         0.0800 
    142 H142       -0.4467  -18.4278  -47.7976 H         1 UNK         0.0800 
    143 H143       -0.5997  -21.3107  -48.7413 H         1 UNK         0.0600 
    144 H144        0.3410  -20.0545  -46.2243 H         1 UNK         0.3000 
    145 H145        2.1375  -23.0498  -45.3663 H         1 UNK         0.0600 
    146 H146        3.9093  -21.3465  -45.1274 H         1 UNK         0.0600 
    147 H147        3.5816  -21.6281  -46.8305 H         1 UNK         0.0600 
    148 H148        2.9619  -20.1794  -46.0479 H         1 UNK         0.0600 
    149 H149        1.7494  -20.6188  -43.9348 H         1 UNK         0.3000 
    150 H150       -1.0226  -21.7541  -41.9596 H         1 UNK         0.0600 
    151 H151        1.0617  -22.7029  -40.9649 H         1 UNK         0.0600 
    152 H152        0.5864  -21.2037  -40.1830 H         1 UNK         0.0600 
    153 H153        1.9218  -21.2128  -41.3326 H         1 UNK         0.0600 
    154 H154        0.4285  -19.3160  -41.9245 H         1 UNK         0.3000 
    155 H155       -1.5751  -17.5749  -44.3504 H         1 UNK         0.0600 
    156 H156       -2.7911  -17.3669  -42.1962 H         1 UNK         0.0600 
    157 H157       -1.7224  -15.9920  -42.4396 H         1 UNK         0.0600 
    158 H158       -1.2691  -17.2747  -41.3187 H         1 UNK         0.0600 
    159 H159        0.6747  -16.7330  -42.8227 H         1 UNK         0.3000 
    160 H160        3.2134  -17.8037  -45.1118 H         1 UNK         0.0600 
    161 H161        2.1011  -15.0436  -44.3657 H         1 UNK         0.0600 
    162 H162        2.4118  -15.6410  -45.9924 H         1 UNK         0.0600 
    163 H163        3.7496  -15.3741  -44.8901 H         1 UNK         0.0600 
    164 H164        3.1752  -16.4344  -42.5623 H         1 UNK         0.3000 
    165 H165        3.6928  -19.3561  -40.5770 H         1 UNK         0.0600 
    166 H166        5.6932  -18.0611  -39.8986 H         1 UNK         0.0600 
    167 H167        5.9440  -18.7641  -41.4884 H         1 UNK         0.0600 
    168 H168        5.5683  -17.0514  -41.3394 H         1 UNK         0.0600 
    169 H169        3.5781  -16.5701  -39.9367 H         1 UNK         0.3000 
    170 H170        0.0558  -16.3469  -39.4686 H         1 UNK         0.0600 
    171 H171        0.8877  -17.4463  -37.3813 H         1 UNK         0.0600 
    172 H172        2.3260  -16.4331  -37.4110 H         1 UNK         0.0600 
    173 H173        0.7344  -15.7090  -37.1782 H         1 UNK         0.0600 
    174 H174        2.0215  -14.4381  -38.9088 H         1 UNK         0.3000 
    175 H175        1.8847  -12.5048  -40.2328 H         1 UNK         0.0600 
    176 H176        3.9951  -13.7986  -42.0715 H         1 UNK         0.0600 
    177 H177        4.0999  -12.1752  -41.3946 H         1 UNK         0.0600 
    178 H178        4.1534  -13.5725  -40.3323 H         1 UNK         0.0600 
    179 H179        1.4430  -13.2549  -43.0490 H         1 UNK         0.3000 
    180 H180       -0.5119  -10.5381  -43.6620 H         1 UNK         0.0600 
    181 H181        2.3155  -10.5313  -44.8561 H         1 UNK         0.0600 
    182 H182        1.5090   -9.1575  -44.1104 H         1 UNK         0.0600 
    183 H183        0.8835   -9.8278  -45.6081 H         1 UNK         0.0600 
    184 H184        0.8326  -12.4010  -45.4164 H         1 UNK         0.3000 
    185 H185       -0.4722  -15.1058  -44.9728 H         1 UNK         0.0600 
    186 H186       -2.9234  -14.9328  -44.9490 H         1 UNK         0.0600 
    187 H187       -2.9034  -13.8481  -46.3334 H         1 UNK         0.0600 
    188 H188       -2.3905  -15.5258  -46.5116 H         1 UNK         0.0600 
    189 H189        0.5756  -14.8135  -46.8860 H         1 UNK         0.3000 
    190 H190       -2.2941  -19.0946  -46.5006 H         1 UNK         0.3000 
    191 H191       -4.7677  -19.7428  -47.5069 H         1 UNK         0.0600 
    192 H192       -4.0913  -18.4985  -44.7919 H         1 UNK         0.0600 
    193 H193       -4.2618  -17.6398  -46.3222 H         1 UNK         0.0600 
    194 H194       -5.6561  -18.4146  -45.5887 H         1 UNK         0.0600 
    195 H195       -3.3703  -20.9966  -44.4522 H         1 UNK         0.3000 
    196 H196       -5.6606  -22.5452  -43.6976 H         1 UNK         0.0600 
    197 H197       -4.1562  -23.4623  -41.9860 H         1 UNK         0.0600 
    198 H198       -3.8404  -21.7382  -42.1342 H         1 UNK         0.0600 
    199 H199       -2.7414  -22.9093  -42.8682 H         1 UNK         0.0600 
    200 H200       -3.2056  -23.1419  -46.0544 H         1 UNK         0.3000 
    201 H201       -3.6863  -26.0817  -46.1473 H         1 UNK         0.0600 
    202 H202       -1.6087  -26.1009  -47.5055 H         1 UNK         0.0600 
    203 H203       -1.3130  -25.3134  -45.9634 H         1 UNK         0.0600 
    204 H204       -1.5118  -24.3453  -47.4181 H         1 UNK         0.0600 
    205 H205       -5.4388  -23.6984  -47.1658 H         1 UNK         0.3000 
    206 H206       -6.8275  -23.2289  -48.8290 H         1 UNK         0.0600 
    207 H207       -7.4697  -25.6381  -48.6445 H         1 UNK         0.0600 
    208 H208       -7.6560  -25.0409  -50.2858 H         1 UNK         0.0600 
    209 H209       -6.2838  -26.0593  -49.8792 H         1 UNK         0.0600 
    210 H210       -4.5130  -22.0697  -49.0826 H         1 UNK         0.3000 
    211 H211       -3.2359  -20.8236  -50.3727 H         1 UNK         0.0600 
    212 H212       -5.2314  -20.3660  -51.8013 H         1 UNK         0.0600 
    213 H213       -3.7420  -20.3700  -52.7302 H         1 UNK         0.0600 
    214 H214       -4.8301  -21.7477  -52.8180 H         1 UNK         0.0600 
    215 H215       -2.2075  -23.0628  -49.4544 H         1 UNK         0.3000 
    216 H216       -0.4283  -24.3792  -49.5235 H         1 UNK         0.0600 
    217 H217        1.4616  -23.8187  -50.9810 H         1 UNK         0.0600 
    218 H218        0.4263  -22.9038  -52.0661 H         1 UNK         0.0600 
    219 H219        0.7125  -22.3382  -50.4212 H         1 UNK         0.0600 
    220 H220       -2.8062  -25.3783  -50.6789 H         1 UNK         0.3000 
    221 H221       -3.7322  -27.0399  -51.8178 H         1 UNK         0.0600 
    222 H222       -1.1475  -28.3678  -50.8715 H         1 UNK         0.0600 
    223 H223       -2.6009  -28.1022  -49.9115 H         1 UNK         0.0600 
    224 H224       -2.6414  -29.2094  -51.2730 H         1 UNK         0.0600 
    225 H225       -2.4229  -26.7808  -55.2560 H         1 UNK         0.3000 
    226 H226       -3.3765  -24.8414  -53.3114 H         1 UNK         0.0600 
    227 H227       -5.3223  -26.3977  -53.3459 H         1 UNK         0.0600 
    228 H228       -5.7039  -24.9366  -54.2327 H         1 UNK         0.0600 
    229 H229       -5.3100  -26.4123  -55.1069 H         1 UNK         0.0600 
    230 H230       -2.4274  -23.1079  -54.1958 H         1 UNK         0.3000 
    231 H231       -1.9231  -22.8558  -57.0733 H         1 UNK         0.0600 
    232 H232       -0.7509  -20.7881  -56.3428 H         1 UNK         0.0600 
    233 H233       -0.2507  -22.1476  -55.3493 H         1 UNK         0.0600 
    234 H234       -1.3915  -20.9648  -54.7135 H         1 UNK         0.0600 
    235 H235       -4.5431  -22.1919  -55.0572 H         1 UNK         0.3000 
    236 H236       -6.4243  -21.0212  -55.1048 H         1 UNK         0.0600 
    237 H237       -6.6701  -22.1944  -57.3094 H         1 UNK         0.0600 
    238 H238       -7.5114  -20.6542  -57.2860 H         1 UNK         0.0600 
    239 H239       -5.9744  -20.7964  -58.1280 H         1 UNK         0.0600 
    240 H240       -3.9015  -19.5459  -54.7393 H         1 UNK         0.3000 
    241 H241       -3.1131  -17.5471  -54.3182 H         1 UNK         0.0600 
    242 H242       -2.8493  -17.0473  -58.1212 H         1 UNK         0.3800 
    243 H243       -3.2992  -18.5059  -57.2735 H         1 UNK         0.3800 
    244 H244       -4.5757  -15.5706  -53.9309 H         1 UNK         0.0800 
    245 H245       -5.9155  -16.3848  -54.6832 H         1 UNK         0.0800 
    246 H246       -4.6950  -15.3422  -51.3508 H         1 UNK         0.0800 
    247 H247       -4.6005  -16.7558  -50.3334 H         1 UNK         0.0800 
@<TRIPOS>BOND
     1    1    2 1    
     2    1  127 1    
     3    1  128 1    
     4    1  129 1    
     5    2    3 2    
     6    2    4 am   BACKBONE|DICT|INTERRES
     7    4    5 1    
     8    4  130 1    
     9    5    6 1    
    10    5   65 1    
    11    5  131 1    
    12    6    7 1    
    13    6  132 1    
    14    6  133 1    
    15    7    8 1    
    16    8    9 1    
    17    8  134 1    
    18    8  135 1    
    19    9   10 ar   
    20    9   14 ar   
    21   10   11 ar   
    22   10  136 1    
    23   11   12 ar   
    24   11  126 1    
    25   12   13 ar   
    26   12  137 1    
    27   13   14 ar   
    28   13   15 1    
    29   14  138 1    
    30   15   16 1    
    31   15  139 1    
    32   15  140 1    
    33   16   17 1    
    34   17   18 1    
    35   17  141 1    
    36   17  142 1    
    37   18   19 1    
    38   18   67 1    
    39   18  143 1    
    40   19   20 am   BACKBONE|DICT|INTERRES
    41   19  144 1    
    42   20   21 2    
    43   20   22 1    
    44   22   23 1    
    45   22   24 1    
    46   22  145 1    
    47   23  146 1    
    48   23  147 1    
    49   23  148 1    
    50   24   25 am   BACKBONE|DICT|INTERRES
    51   24  149 1    
    52   25   26 2    
    53   25   27 1    
    54   27   28 1    
    55   27   29 1    
    56   27  150 1    
    57   28  151 1    
    58   28  152 1    
    59   28  153 1    
    60   29   30 am   BACKBONE|DICT|INTERRES
    61   29  154 1    
    62   30   31 2    
    63   30   32 1    
    64   32   33 1    
    65   32   34 1    
    66   32  155 1    
    67   33  156 1    
    68   33  157 1    
    69   33  158 1    
    70   34   35 am   BACKBONE|DICT|INTERRES
    71   34  159 1    
    72   35   36 2    
    73   35   37 1    
    74   37   38 1    
    75   37   39 1    
    76   37  160 1    
    77   38  161 1    
    78   38  162 1    
    79   38  163 1    
    80   39   40 am   BACKBONE|DICT|INTERRES
    81   39  164 1    
    82   40   41 2    
    83   40   42 1    
    84   42   43 1    
    85   42   44 1    
    86   42  165 1    
    87   43  166 1    
    88   43  167 1    
    89   43  168 1    
    90   44   45 am   BACKBONE|DICT|INTERRES
    91   44  169 1    
    92   45   46 2    
    93   45   47 1    
    94   47   48 1    
    95   47   49 1    
    96   47  170 1    
    97   48  171 1    
    98   48  172 1    
    99   48  173 1    
   100   49   50 am   BACKBONE|DICT|INTERRES
   101   49  174 1    
   102   50   51 2    
   103   50   52 1    
   104   52   53 1    
   105   52   54 1    
   106   52  175 1    
   107   53  176 1    
   108   53  177 1    
   109   53  178 1    
   110   54   55 am   BACKBONE|DICT|INTERRES
   111   54  179 1    
   112   55   56 2    
   113   55   57 1    
   114   57   58 1    
   115   57   59 1    
   116   57  180 1    
   117   58  181 1    
   118   58  182 1    
   119   58  183 1    
   120   59   60 am   BACKBONE|DICT|INTERRES
   121   59  184 1    
   122   60   61 2    
   123   60   62 1    
   124   62   63 1    
   125   62   64 1    
   126   62  185 1    
   127   63  186 1    
   128   63  187 1    
   129   63  188 1    
   130   64   65 am   BACKBONE|DICT|INTERRES
   131   64  189 1    
   132   65   66 2    
   133   67   68 2    
   134   67   69 am   BACKBONE|DICT|INTERRES
   135   69   70 1    
   136   69  190 1    
   137   70   71 1    
   138   70   72 1    
   139   70  191 1    
   140   71  192 1    
   141   71  193 1    
   142   71  194 1    
   143   72   73 2    
   144   72   74 am   BACKBONE|DICT|INTERRES
   145   74   75 1    
   146   74  195 1    
   147   75   76 1    
   148   75   77 1    
   149   75  196 1    
   150   76  197 1    
   151   76  198 1    
   152   76  199 1    
   153   77   78 2    
   154   77   79 am   BACKBONE|DICT|INTERRES
   155   79   80 1    
   156   79  200 1    
   157   80   81 1    
   158   80   82 1    
   159   80  201 1    
   160   81  202 1    
   161   81  203 1    
   162   81  204 1    
   163   82   83 2    
   164   82   84 am   BACKBONE|DICT|INTERRES
   165   84   85 1    
   166   84  205 1    
   167   85   86 1    
   168   85   87 1    
   169   85  206 1    
   170   86  207 1    
   171   86  208 1    
   172   86  209 1    
   173   87   88 2    
   174   87   89 am   BACKBONE|DICT|INTERRES
   175   89   90 1    
   176   89  210 1    
   177   90   91 1    
   178   90   92 1    
   179   90  211 1    
   180   91  212 1    
   181   91  213 1    
   182   91  214 1    
   183   92   93 2    
   184   92   94 am   BACKBONE|DICT|INTERRES
   185   94   95 1    
   186   94  215 1    
   187   95   96 1    
   188   95   97 1    
   189   95  216 1    
   190   96  217 1    
   191   96  218 1    
   192   96  219 1    
   193   97   98 2    
   194   97   99 am   BACKBONE|DICT|INTERRES
   195   99  100 1    
   196   99  220 1    
   197  100  101 1    
   198  100  102 1    
   199  100  221 1    
   200  101  222 1    
   201  101  223 1    
   202  101  224 1    
   203  102  103 2    
   204  102  104 am   BACKBONE|DICT|INTERRES
   205  104  105 1    
   206  104  225 1    
   207  105  106 1    
   208  105  107 1    
   209  105  226 1    
   210  106  227 1    
   211  106  228 1    
   212  106  229 1    
   213  107  108 2    
   214  107  109 am   BACKBONE|DICT|INTERRES
   215  109  110 1    
   216  109  230 1    
   217  110  111 1    
   218  110  112 1    
   219  110  231 1    
   220  111  232 1    
   221  111  233 1    
   222  111  234 1    
   223  112  113 2    
   224  112  114 am   BACKBONE|DICT|INTERRES
   225  114  115 1    
   226  114  235 1    
   227  115  116 1    
   228  115  117 1    
   229  115  236 1    
   230  116  237 1    
   231  116  238 1    
   232  116  239 1    
   233  117  118 2    
   234  117  119 am   BACKBONE|DICT|INTERRES
   235  119  120 1    
   236  119  240 1    
   237  120  121 1    
   238  120  124 1    
   239  120  241 1    
   240  121  122 am   BACKBONE|DICT|INTERRES
   241  121  123 2    
   242  122  242 1    
   243  122  243 1    
   244  124  125 1    
   245  124  244 1    
   246  124  245 1    
   247  125  126 1    
   248  126  246 1    
   249  126  247 1    
@<TRIPOS>SUBSTRUCTURE
     1 UNK         1 GROUP             0       ****    0 ROOT    
