@<TRIPOS>MOLECULE
3R540
247   249    1
SMALL
USER_CHARGES


@<TRIPOS>ATOM
      1 CA          0.0259   -8.3710  -45.3195 C.3       0 UNK        -0.1800 
      2 C           0.3718   -9.8462  -45.4533 C.2       0 UNK         0.5000 
      3 O           1.5006  -10.2389  -45.1562 O.2       0 UNK        -0.5000 
      4 N          -0.5967  -10.6698  -45.8808 N.am      1 UNK        -0.5000 
      5 CA         -0.4527  -12.1170  -46.1000 C.3       1 UNK         0.1400 
      6 C6         -1.7474  -12.7397  -46.6780 C.3       23 UNK        -0.0398 
      7 S7         -1.4438  -14.2885  -47.5911 S.3       23 UNK        -0.2404 
      8 C8         -3.0814  -14.5405  -48.3396 C.3       23 UNK        -0.0205 
      9 C9         -3.1014  -15.7734  -49.2284 C.ar      23 UNK        -0.0193 
     10 C10        -2.8780  -15.6596  -50.6042 C.ar      23 UNK        -0.1150 
     11 C11        -2.9058  -16.7921  -51.4249 C.ar      23 UNK        -0.0193 
     12 C12        -3.1563  -18.0433  -50.8537 C.ar      23 UNK        -0.1150 
     13 C13        -3.3890  -18.1700  -49.4820 C.ar      23 UNK        -0.0193 
     14 C14        -3.3578  -17.0303  -48.6755 C.ar      23 UNK        -0.1150 
     15 C15        -3.6753  -19.5327  -48.8707 C.3       23 UNK        -0.0205 
     16 S16        -5.4672  -19.8034  -48.6826 S.3       23 UNK        -0.2404 
     17 C17        -5.5768  -21.5717  -48.2249 C.3       23 UNK        -0.0398 
     18 CA         -4.6242  -22.0176  -47.0898 C.3       11 UNK         0.1400 
     19 N          -4.7363  -21.1698  -45.8949 N.am      11 UNK        -0.5000 
     20 C          -3.8901  -21.2122  -44.8596 C.2       10 UNK         0.5000 
     21 O          -2.9688  -22.0259  -44.7706 O.2       10 UNK        -0.5000 
     22 CA         -4.0886  -20.1657  -43.7540 C.3       10 UNK         0.1400 
     23 CB         -4.0689  -20.8072  -42.3574 C.3       10 UNK        -0.1800 
     24 N          -2.9963  -19.2097  -43.8596 N.am      10 UNK        -0.5000 
     25 C          -3.0085  -18.1349  -44.6600 C.2       9 UNK         0.5000 
     26 O          -4.0260  -17.6991  -45.1978 O.2       9 UNK        -0.5000 
     27 CA         -1.6514  -17.4534  -44.9308 C.3       9 UNK         0.1400 
     28 CB         -1.4652  -16.2484  -44.0006 C.3       9 UNK        -0.1800 
     29 N          -0.5233  -18.3755  -44.7675 N.am      9 UNK        -0.5000 
     30 C          -0.2934  -19.4305  -45.5672 C.2       8 UNK         0.5000 
     31 O          -0.9174  -19.6293  -46.6081 O.2       8 UNK        -0.5000 
     32 CA          0.7762  -20.4546  -45.1344 C.3       8 UNK         0.1400 
     33 CB          1.8489  -20.6469  -46.2191 C.3       8 UNK        -0.1800 
     34 N           1.4173  -20.1300  -43.8586 N.am      8 UNK        -0.5000 
     35 C           0.8592  -20.3405  -42.6568 C.2       7 UNK         0.5000 
     36 O          -0.2622  -20.8242  -42.5061 O.2       7 UNK        -0.5000 
     37 CA          1.6623  -19.8999  -41.4165 C.3       7 UNK         0.1400 
     38 CB          2.4737  -21.0781  -40.8575 C.3       7 UNK        -0.1800 
     39 N           2.5636  -18.7728  -41.6684 N.am      7 UNK        -0.5000 
     40 C           2.1685  -17.5447  -42.0297 C.2       6 UNK         0.5000 
     41 O           0.9860  -17.2296  -42.1666 O.2       6 UNK        -0.5000 
     42 CA          3.2621  -16.4999  -42.3326 C.3       6 UNK         0.1400 
     43 CB          4.6992  -16.9586  -41.9968 C.3       6 UNK        -0.1800 
     44 N           3.1803  -16.0442  -43.7225 N.am      6 UNK        -0.5000 
     45 C           3.2666  -16.8045  -44.8249 C.2       5 UNK         0.5000 
     46 O           3.4591  -18.0208  -44.8009 O.2       5 UNK        -0.5000 
     47 CA          3.1164  -16.0964  -46.1829 C.3       5 UNK         0.1400 
     48 CB          1.7427  -16.3996  -46.8029 C.3       5 UNK        -0.1800 
     49 N           3.2752  -14.6455  -46.0653 N.am      5 UNK        -0.5000 
     50 C           4.4183  -13.9860  -46.2891 C.2       4 UNK         0.5000 
     51 O           5.4683  -14.5309  -46.6325 O.2       4 UNK        -0.5000 
     52 CA          4.3867  -12.4582  -46.1042 C.3       4 UNK         0.1400 
     53 CB          3.6991  -11.7810  -47.2999 C.3       4 UNK        -0.1800 
     54 N           3.7383  -12.0252  -44.8658 N.am      4 UNK        -0.5000 
     55 C           4.2370  -12.2119  -43.6351 C.2       3 UNK         0.5000 
     56 O           5.2619  -12.8521  -43.4009 O.2       3 UNK        -0.5000 
     57 CA          3.4664  -11.5702  -42.4691 C.3       3 UNK         0.1400 
     58 CB          3.7343  -10.0579  -42.4055 C.3       3 UNK        -0.1800 
     59 N           2.0309  -11.8031  -42.6070 N.am      3 UNK        -0.5000 
     60 C           1.3531  -12.7601  -41.9591 C.2       2 UNK         0.5000 
     61 O           1.8468  -13.4673  -41.0813 O.2       2 UNK        -0.5000 
     62 CA         -0.1233  -12.9819  -42.3504 C.3       2 UNK         0.1400 
     63 CB         -1.0573  -12.3693  -41.2960 C.3       2 UNK        -0.1800 
     64 N          -0.4896  -12.4539  -43.6671 N.am      2 UNK        -0.5000 
     65 C           0.0208  -12.8661  -44.8362 C.2       1 UNK         0.5000 
     66 O           0.8835  -13.7371  -44.9323 O.2       1 UNK        -0.5000 
     67 C          -4.8002  -23.5229  -46.7882 C.2       11 UNK         0.5000 
     68 O          -4.2507  -24.3536  -47.5130 O.2       11 UNK        -0.5000 
     69 N          -5.5227  -23.8473  -45.7059 N.am      12 UNK        -0.5000 
     70 CA         -5.6657  -25.2033  -45.1760 C.3       12 UNK         0.1400 
     71 CB         -6.7897  -25.2237  -44.1294 C.3       12 UNK        -0.1800 
     72 C          -4.3536  -25.7421  -44.5745 C.2       12 UNK         0.5000 
     73 O          -4.0366  -26.9146  -44.7729 O.2       12 UNK        -0.5000 
     74 N          -3.5942  -24.8730  -43.8898 N.am      13 UNK        -0.5000 
     75 CA         -2.2728  -25.1858  -43.3368 C.3       13 UNK         0.1400 
     76 CB         -1.8933  -24.1436  -42.2743 C.3       13 UNK        -0.1800 
     77 C          -1.1980  -25.2606  -44.4357 C.2       13 UNK         0.5000 
     78 O          -0.2780  -26.0722  -44.3348 O.2       13 UNK        -0.5000 
     79 N          -1.3652  -24.4477  -45.4888 N.am      14 UNK        -0.5000 
     80 CA         -0.5672  -24.4845  -46.7160 C.3       14 UNK         0.1400 
     81 CB         -0.8480  -23.2113  -47.5308 C.3       14 UNK        -0.1800 
     82 C          -0.8417  -25.7299  -47.5859 C.2       14 UNK         0.5000 
     83 O          -0.0695  -25.9958  -48.5049 O.2       14 UNK        -0.5000 
     84 N          -1.9449  -26.4448  -47.3140 N.am      15 UNK        -0.5000 
     85 CA         -2.4677  -27.5947  -48.0595 C.3       15 UNK         0.1400 
     86 CB         -1.5218  -28.8073  -47.9370 C.3       15 UNK        -0.1800 
     87 C          -2.8118  -27.2296  -49.5192 C.2       15 UNK         0.5000 
     88 O          -2.4815  -27.9731  -50.4443 O.2       15 UNK        -0.5000 
     89 N          -3.4509  -26.0620  -49.6835 N.am      16 UNK        -0.5000 
     90 CA         -3.8668  -25.4241  -50.9372 C.3       16 UNK         0.1400 
     91 CB         -4.8444  -26.3136  -51.7324 C.3       16 UNK        -0.1800 
     92 C          -2.7103  -24.8951  -51.8124 C.2       16 UNK         0.5000 
     93 O          -2.9663  -24.4453  -52.9326 O.2       16 UNK        -0.5000 
     94 N          -1.4722  -24.8902  -51.2922 N.am      17 UNK        -0.5000 
     95 CA         -0.3346  -24.2050  -51.9091 C.3       17 UNK         0.1400 
     96 CB          0.9592  -24.5389  -51.1546 C.3       17 UNK        -0.1800 
     97 C          -0.5738  -22.6852  -51.9359 C.2       17 UNK         0.5000 
     98 O          -1.1883  -22.1461  -51.0117 O.2       17 UNK        -0.5000 
     99 N          -0.1436  -22.0401  -53.0268 N.am      18 UNK        -0.5000 
    100 CA        -0.4010  -20.6462  -53.4157 C.3       18 UNK         0.1400 
    101 CB         0.0980  -19.6466  -52.3542 C.3       18 UNK        -0.1800 
    102 C         -1.8698  -20.3745  -53.8018 C.2       18 UNK         0.5000 
    103 O         -2.1068  -19.6830  -54.7909 O.2       18 UNK        -0.5000 
    104 N         -2.8294  -20.9501  -53.0643 N.am      19 UNK        -0.5000 
    105 CA        -4.2722  -20.8460  -53.3035 C.3       19 UNK         0.1400 
    106 CB        -5.0314  -21.5486  -52.1714 C.3       19 UNK        -0.1800 
    107 C         -4.6934  -21.4113  -54.6684 C.2       19 UNK         0.5000 
    108 O         -5.5439  -20.8245  -55.3373 O.2       19 UNK        -0.5000 
    109 N         -4.0399  -22.5047  -55.0833 N.am      20 UNK        -0.5000 
    110 CA        -4.1802  -23.1139  -56.4057 C.3       20 UNK         0.1400 
    111 CB        -3.3946  -24.4340  -56.4244 C.3       20 UNK        -0.1800 
    112 C         -3.7310  -22.2004  -57.5673 C.2       20 UNK         0.5000 
    113 O         -4.1794  -22.4085  -58.6956 O.2       20 UNK        -0.5000 
    114 N         -2.8659  -21.2163  -57.2816 N.am      21 UNK        -0.5000 
    115 CA        -2.3988  -20.2206  -58.2414 C.3       21 UNK         0.1400 
    116 CB        -0.9118  -19.9160  -57.9942 C.3       21 UNK        -0.1800 
    117 C         -3.2471  -18.9398  -58.1733 C.2       21 UNK         0.5000 
    118 O         -3.7010  -18.4720  -59.2190 O.2       21 UNK        -0.5000 
    119 N         -3.4377  -18.3845  -56.9660 N.am      22 UNK        -0.5000 
    120 CA        -4.1620  -17.1165  -56.7640 C.3       22 UNK         0.1400 
    121 C         -5.7144  -17.2127  -56.8315 C.2       22 UNK         0.5000 
    122 N         -6.3226  -18.3828  -56.6834 N.am      22 UNK        -0.7600 
    123 O         -6.3808  -16.2035  -57.0468 O.2       22 UNK        -0.5000 
    124 C124       -3.6551  -16.3205  -55.5308 C.3       23 UNK        -0.0398 
    125 S125       -4.1611  -16.9644  -53.8962 S.3       23 UNK        -0.2404 
    126 C126       -2.6530  -16.6636  -52.9215 C.3       23 UNK        -0.0205 
    127 H127        0.1685   -8.0457  -44.2891 H         1 UNK         0.0600 
    128 H128       -1.0075   -8.1688  -45.6016 H         1 UNK         0.0600 
    129 H129        0.6770   -7.7754  -45.9592 H         1 UNK         0.0600 
    130 H130       -1.5028  -10.2804  -46.0995 H         1 UNK         0.3000 
    131 H131        0.3347  -12.2258  -46.8481 H         1 UNK         0.0600 
    132 H132       -2.2058  -12.0425  -47.3810 H         1 UNK         0.0800 
    133 H133       -2.4920  -12.9146  -45.8990 H         1 UNK         0.0800 
    134 H134       -3.3583  -13.6583  -48.9189 H         1 UNK         0.0800 
    135 H135       -3.8286  -14.6403  -47.5506 H         1 UNK         0.0800 
    136 H136       -2.6817  -14.6876  -51.0345 H         1 UNK         0.1150 
    137 H137       -3.1805  -18.9190  -51.4800 H         1 UNK         0.1150 
    138 H138       -3.5400  -17.1213  -47.6158 H         1 UNK         0.1150 
    139 H139       -3.1970  -19.5949  -47.8930 H         1 UNK         0.0800 
    140 H140       -3.2367  -20.3224  -49.4832 H         1 UNK         0.0800 
    141 H141       -5.3893  -22.1621  -49.1233 H         1 UNK         0.0800 
    142 H142       -6.6133  -21.7711  -47.9471 H         1 UNK         0.0800 
    143 H143       -3.6022  -21.9082  -47.4542 H         1 UNK         0.0600 
    144 H144       -5.4451  -20.4502  -45.9256 H         1 UNK         0.3000 
    145 H145       -5.0508  -19.6670  -43.8882 H         1 UNK         0.0600 
    146 H146       -4.2632  -20.0642  -41.5840 H         1 UNK         0.0600 
    147 H147       -4.8350  -21.5784  -42.2689 H         1 UNK         0.0600 
    148 H148       -3.1068  -21.2698  -42.1358 H         1 UNK         0.0600 
    149 H149       -2.1065  -19.5232  -43.4941 H         1 UNK         0.3000 
    150 H150       -1.6487  -17.0955  -45.9624 H         1 UNK         0.0600 
    151 H151       -1.5693  -16.5276  -42.9515 H         1 UNK         0.0600 
    152 H152       -2.2025  -15.4731  -44.2123 H         1 UNK         0.0600 
    153 H153       -0.4786  -15.8070  -44.1287 H         1 UNK         0.0600 
    154 H154        0.0418  -18.2545  -43.9360 H         1 UNK         0.3000 
    155 H155        0.2595  -21.4094  -45.0151 H         1 UNK         0.0600 
    156 H156        2.3815  -19.7217  -46.4341 H         1 UNK         0.0600 
    157 H157        1.4022  -20.9873  -47.1541 H         1 UNK         0.0600 
    158 H158        2.5822  -21.3960  -45.9207 H         1 UNK         0.0600 
    159 H159        2.3115  -19.6554  -43.9140 H         1 UNK         0.3000 
    160 H160        0.9432  -19.5886  -40.6559 H         1 UNK         0.0600 
    161 H161        3.2300  -21.4180  -41.5661 H         1 UNK         0.0600 
    162 H162        1.8262  -21.9277  -40.6358 H         1 UNK         0.0600 
    163 H163        2.9786  -20.8057  -39.9305 H         1 UNK         0.0600 
    164 H164        3.5535  -18.9602  -41.6032 H         1 UNK         0.3000 
    165 H165        3.0426  -15.6383  -41.7048 H         1 UNK         0.0600 
    166 H166        5.4122  -16.1551  -42.1832 H         1 UNK         0.0600 
    167 H167        5.0128  -17.8176  -42.5907 H         1 UNK         0.0600 
    168 H168        4.7911  -17.2271  -40.9437 H         1 UNK         0.0600 
    169 H169        2.9748  -15.0645  -43.8533 H         1 UNK         0.3000 
    170 H170        3.8793  -16.5022  -46.8503 H         1 UNK         0.0600 
    171 H171        1.6256  -17.4663  -46.9929 H         1 UNK         0.0600 
    172 H172        0.9258  -16.0939  -46.1497 H         1 UNK         0.0600 
    173 H173        1.6161  -15.8861  -47.7560 H         1 UNK         0.0600 
    174 H174        2.4517  -14.1355  -45.7507 H         1 UNK         0.3000 
    175 H175        5.4213  -12.1096  -46.0746 H         1 UNK         0.0600 
    176 H176        2.6510  -12.0693  -47.3782 H         1 UNK         0.0600 
    177 H177        3.7408  -10.6948  -47.2154 H         1 UNK         0.0600 
    178 H178        4.1859  -12.0538  -48.2370 H         1 UNK         0.0600 
    179 H179        2.9028  -11.4558  -44.9729 H         1 UNK         0.3000 
    180 H180        3.8371  -12.0107  -41.5411 H         1 UNK         0.0600 
    181 H181        3.3943   -9.5446  -43.3056 H         1 UNK         0.0600 
    182 H182        4.8004   -9.8556  -42.2954 H         1 UNK         0.0600 
    183 H183        3.2279   -9.6059  -41.5526 H         1 UNK         0.0600 
    184 H184        1.5604  -11.2795  -43.3351 H         1 UNK         0.3000 
    185 H185       -0.2886  -14.0608  -42.3664 H         1 UNK         0.0600 
    186 H186       -0.9542  -11.2844  -41.2499 H         1 UNK         0.0600 
    187 H187       -2.1009  -12.6003  -41.5109 H         1 UNK         0.0600 
    188 H188       -0.8379  -12.7626  -40.3024 H         1 UNK         0.0600 
    189 H189       -1.1637  -11.7023  -43.6779 H         1 UNK         0.3000 
    190 H190       -5.9504  -23.1032  -45.1749 H         1 UNK         0.3000 
    191 H191       -5.9522  -25.8630  -45.9981 H         1 UNK         0.0600 
    192 H192       -6.9318  -26.2286  -43.7296 H         1 UNK         0.0600 
    193 H193       -7.7391  -24.9114  -44.5648 H         1 UNK         0.0600 
    194 H194       -6.5720  -24.5636  -43.2888 H         1 UNK         0.0600 
    195 H195       -3.8847  -23.9072  -43.8315 H         1 UNK         0.3000 
    196 H196       -2.3252  -26.1619  -42.8496 H         1 UNK         0.0600 
    197 H197       -1.7497  -23.1558  -42.7112 H         1 UNK         0.0600 
    198 H198       -2.6592  -24.0638  -41.5029 H         1 UNK         0.0600 
    199 H199       -0.9598  -24.4159  -41.7806 H         1 UNK         0.0600 
    200 H200       -2.1007  -23.7508  -45.4399 H         1 UNK         0.3000 
    201 H201        0.4877  -24.4911  -46.4344 H         1 UNK         0.0600 
    202 H202       -1.8029  -23.2665  -48.0527 H         1 UNK         0.0600 
    203 H203       -0.0799  -23.0570  -48.2884 H         1 UNK         0.0600 
    204 H204       -0.8649  -22.3232  -46.9020 H         1 UNK         0.0600 
    205 H205       -2.5260  -26.1257  -46.5514 H         1 UNK         0.3000 
    206 H206       -3.4109  -27.8641  -47.5820 H         1 UNK         0.0600 
    207 H207       -1.3113  -29.0371  -46.8924 H         1 UNK         0.0600 
    208 H208       -1.9697  -29.6970  -48.3809 H         1 UNK         0.0600 
    209 H209       -0.5705  -28.6351  -48.4410 H         1 UNK         0.0600 
    210 H210       -3.6619  -25.5207  -48.8466 H         1 UNK         0.3000 
    211 H211       -4.4216  -24.5372  -50.6287 H         1 UNK         0.0600 
    212 H212       -5.2848  -25.7623  -52.5641 H         1 UNK         0.0600 
    213 H213       -5.6651  -26.6588  -51.1037 H         1 UNK         0.0600 
    214 H214       -4.3490  -27.1892  -52.1521 H         1 UNK         0.0600 
    215 H215       -1.3265  -25.2663  -50.3654 H         1 UNK         0.3000 
    216 H216       -0.2410  -24.5709  -52.9338 H         1 UNK         0.0600 
    217 H217        0.9502  -24.1391  -50.1410 H         1 UNK         0.0600 
    218 H218        1.8260  -24.1150  -51.6628 H         1 UNK         0.0600 
    219 H219        1.1139  -25.6162  -51.0906 H         1 UNK         0.0600 
    220 H220        0.3372  -22.5853  -53.7291 H         1 UNK         0.3000 
    221 H221        0.1918  -20.4825  -54.3172 H         1 UNK         0.0600 
    222 H222        0.0828  -18.6290  -52.7443 H         1 UNK         0.0600 
    223 H223        1.1247  -19.8634  -52.0595 H         1 UNK         0.0600 
    224 H224       -0.5185  -19.6571  -51.4548 H         1 UNK         0.0600 
    225 H225       -2.5300  -21.4957  -52.2622 H         1 UNK         0.3000 
    226 H226       -4.5388  -19.7890  -53.2869 H         1 UNK         0.0600 
    227 H227       -4.8453  -22.6218  -52.1628 H         1 UNK         0.0600 
    228 H228       -4.7384  -21.1488  -51.2037 H         1 UNK         0.0600 
    229 H229       -6.1073  -21.4019  -52.2733 H         1 UNK         0.0600 
    230 H230       -3.4036  -22.9600  -54.4384 H         1 UNK         0.3000 
    231 H231       -5.2373  -23.3405  -56.5583 H         1 UNK         0.0600 
    232 H232       -2.3315  -24.2706  -56.2432 H         1 UNK         0.0600 
    233 H233       -3.4920  -24.9356  -57.3880 H         1 UNK         0.0600 
    234 H234       -3.7617  -25.1217  -55.6620 H         1 UNK         0.0600 
    235 H235       -2.5930  -21.0697  -56.3184 H         1 UNK         0.3000 
    236 H236       -2.4807  -20.6195  -59.2548 H         1 UNK         0.0600 
    237 H237       -0.3070  -20.8189  -58.0790 H         1 UNK         0.0600 
    238 H238       -0.5356  -19.2033  -58.7290 H         1 UNK         0.0600 
    239 H239       -0.7358  -19.4881  -57.0076 H         1 UNK         0.0600 
    240 H240       -3.0329  -18.8184  -56.1397 H         1 UNK         0.3000 
    241 H241       -3.9005  -16.4871  -57.6174 H         1 UNK         0.0600 
    242 H242       -7.3271  -18.4233  -56.7413 H         1 UNK         0.3800 
    243 H243       -5.8099  -19.2163  -56.4131 H         1 UNK         0.3800 
    244 H244       -4.0049  -15.2888  -55.5946 H         1 UNK         0.0800 
    245 H245       -2.5667  -16.2596  -55.5713 H         1 UNK         0.0800 
    246 H246       -2.2698  -15.6685  -53.1527 H         1 UNK         0.0800 
    247 H247       -1.8808  -17.3686  -53.2268 H         1 UNK         0.0800 
@<TRIPOS>BOND
     1    1    2 1    
     2    1  127 1    
     3    1  128 1    
     4    1  129 1    
     5    2    3 2    
     6    2    4 am   BACKBONE|DICT|INTERRES
     7    4    5 1    
     8    4  130 1    
     9    5    6 1    
    10    5   65 1    
    11    5  131 1    
    12    6    7 1    
    13    6  132 1    
    14    6  133 1    
    15    7    8 1    
    16    8    9 1    
    17    8  134 1    
    18    8  135 1    
    19    9   10 ar   
    20    9   14 ar   
    21   10   11 ar   
    22   10  136 1    
    23   11   12 ar   
    24   11  126 1    
    25   12   13 ar   
    26   12  137 1    
    27   13   14 ar   
    28   13   15 1    
    29   14  138 1    
    30   15   16 1    
    31   15  139 1    
    32   15  140 1    
    33   16   17 1    
    34   17   18 1    
    35   17  141 1    
    36   17  142 1    
    37   18   19 1    
    38   18   67 1    
    39   18  143 1    
    40   19   20 am   BACKBONE|DICT|INTERRES
    41   19  144 1    
    42   20   21 2    
    43   20   22 1    
    44   22   23 1    
    45   22   24 1    
    46   22  145 1    
    47   23  146 1    
    48   23  147 1    
    49   23  148 1    
    50   24   25 am   BACKBONE|DICT|INTERRES
    51   24  149 1    
    52   25   26 2    
    53   25   27 1    
    54   27   28 1    
    55   27   29 1    
    56   27  150 1    
    57   28  151 1    
    58   28  152 1    
    59   28  153 1    
    60   29   30 am   BACKBONE|DICT|INTERRES
    61   29  154 1    
    62   30   31 2    
    63   30   32 1    
    64   32   33 1    
    65   32   34 1    
    66   32  155 1    
    67   33  156 1    
    68   33  157 1    
    69   33  158 1    
    70   34   35 am   BACKBONE|DICT|INTERRES
    71   34  159 1    
    72   35   36 2    
    73   35   37 1    
    74   37   38 1    
    75   37   39 1    
    76   37  160 1    
    77   38  161 1    
    78   38  162 1    
    79   38  163 1    
    80   39   40 am   BACKBONE|DICT|INTERRES
    81   39  164 1    
    82   40   41 2    
    83   40   42 1    
    84   42   43 1    
    85   42   44 1    
    86   42  165 1    
    87   43  166 1    
    88   43  167 1    
    89   43  168 1    
    90   44   45 am   BACKBONE|DICT|INTERRES
    91   44  169 1    
    92   45   46 2    
    93   45   47 1    
    94   47   48 1    
    95   47   49 1    
    96   47  170 1    
    97   48  171 1    
    98   48  172 1    
    99   48  173 1    
   100   49   50 am   BACKBONE|DICT|INTERRES
   101   49  174 1    
   102   50   51 2    
   103   50   52 1    
   104   52   53 1    
   105   52   54 1    
   106   52  175 1    
   107   53  176 1    
   108   53  177 1    
   109   53  178 1    
   110   54   55 am   BACKBONE|DICT|INTERRES
   111   54  179 1    
   112   55   56 2    
   113   55   57 1    
   114   57   58 1    
   115   57   59 1    
   116   57  180 1    
   117   58  181 1    
   118   58  182 1    
   119   58  183 1    
   120   59   60 am   BACKBONE|DICT|INTERRES
   121   59  184 1    
   122   60   61 2    
   123   60   62 1    
   124   62   63 1    
   125   62   64 1    
   126   62  185 1    
   127   63  186 1    
   128   63  187 1    
   129   63  188 1    
   130   64   65 am   BACKBONE|DICT|INTERRES
   131   64  189 1    
   132   65   66 2    
   133   67   68 2    
   134   67   69 am   BACKBONE|DICT|INTERRES
   135   69   70 1    
   136   69  190 1    
   137   70   71 1    
   138   70   72 1    
   139   70  191 1    
   140   71  192 1    
   141   71  193 1    
   142   71  194 1    
   143   72   73 2    
   144   72   74 am   BACKBONE|DICT|INTERRES
   145   74   75 1    
   146   74  195 1    
   147   75   76 1    
   148   75   77 1    
   149   75  196 1    
   150   76  197 1    
   151   76  198 1    
   152   76  199 1    
   153   77   78 2    
   154   77   79 am   BACKBONE|DICT|INTERRES
   155   79   80 1    
   156   79  200 1    
   157   80   81 1    
   158   80   82 1    
   159   80  201 1    
   160   81  202 1    
   161   81  203 1    
   162   81  204 1    
   163   82   83 2    
   164   82   84 am   BACKBONE|DICT|INTERRES
   165   84   85 1    
   166   84  205 1    
   167   85   86 1    
   168   85   87 1    
   169   85  206 1    
   170   86  207 1    
   171   86  208 1    
   172   86  209 1    
   173   87   88 2    
   174   87   89 am   BACKBONE|DICT|INTERRES
   175   89   90 1    
   176   89  210 1    
   177   90   91 1    
   178   90   92 1    
   179   90  211 1    
   180   91  212 1    
   181   91  213 1    
   182   91  214 1    
   183   92   93 2    
   184   92   94 am   BACKBONE|DICT|INTERRES
   185   94   95 1    
   186   94  215 1    
   187   95   96 1    
   188   95   97 1    
   189   95  216 1    
   190   96  217 1    
   191   96  218 1    
   192   96  219 1    
   193   97   98 2    
   194   97   99 am   BACKBONE|DICT|INTERRES
   195   99  100 1    
   196   99  220 1    
   197  100  101 1    
   198  100  102 1    
   199  100  221 1    
   200  101  222 1    
   201  101  223 1    
   202  101  224 1    
   203  102  103 2    
   204  102  104 am   BACKBONE|DICT|INTERRES
   205  104  105 1    
   206  104  225 1    
   207  105  106 1    
   208  105  107 1    
   209  105  226 1    
   210  106  227 1    
   211  106  228 1    
   212  106  229 1    
   213  107  108 2    
   214  107  109 am   BACKBONE|DICT|INTERRES
   215  109  110 1    
   216  109  230 1    
   217  110  111 1    
   218  110  112 1    
   219  110  231 1    
   220  111  232 1    
   221  111  233 1    
   222  111  234 1    
   223  112  113 2    
   224  112  114 am   BACKBONE|DICT|INTERRES
   225  114  115 1    
   226  114  235 1    
   227  115  116 1    
   228  115  117 1    
   229  115  236 1    
   230  116  237 1    
   231  116  238 1    
   232  116  239 1    
   233  117  118 2    
   234  117  119 am   BACKBONE|DICT|INTERRES
   235  119  120 1    
   236  119  240 1    
   237  120  121 1    
   238  120  124 1    
   239  120  241 1    
   240  121  122 am   BACKBONE|DICT|INTERRES
   241  121  123 2    
   242  122  242 1    
   243  122  243 1    
   244  124  125 1    
   245  124  244 1    
   246  124  245 1    
   247  125  126 1    
   248  126  246 1    
   249  126  247 1    
@<TRIPOS>SUBSTRUCTURE
     1 UNK         1 GROUP             0       ****    0 ROOT    
