@<TRIPOS>MOLECULE
3R540
247   249    1
SMALL
USER_CHARGES


@<TRIPOS>ATOM
      1 CA         -0.5614  -13.8701  -53.4026 C.3       0 UNK        -0.1800 
      2 C           0.5913  -13.2972  -52.5933 C.2       0 UNK         0.5000 
      3 O           0.9547  -12.1357  -52.7749 O.2       0 UNK        -0.5000 
      4 N           1.1549  -14.1055  -51.6879 N.am      1 UNK        -0.5000 
      5 CA          2.2400  -13.7312  -50.7697 C.3       1 UNK         0.1400 
      6 C6          3.0793  -14.9611  -50.3363 C.3       23 UNK        -0.0398 
      7 S7          2.0967  -16.3611  -49.6934 S.3       23 UNK        -0.2404 
      8 C8          2.0704  -17.4655  -51.1456 C.3       23 UNK        -0.0205 
      9 C9          1.2586  -18.7208  -50.8694 C.ar      23 UNK        -0.0193 
     10 C10        -0.1260  -18.6320  -50.7011 C.ar      23 UNK        -0.1150 
     11 C11        -0.8787  -19.7658  -50.3852 C.ar      23 UNK        -0.0193 
     12 C12        -0.2365  -20.9991  -50.2581 C.ar      23 UNK        -0.1150 
     13 C13         1.1412  -21.1081  -50.4558 C.ar      23 UNK        -0.0193 
     14 C14         1.8862  -19.9660  -50.7630 C.ar      23 UNK        -0.1150 
     15 C15         1.8160  -22.4614  -50.2994 C.3       23 UNK        -0.0205 
     16 S16         2.8996  -22.5561  -48.8379 S.3       23 UNK        -0.2404 
     17 C17         1.8329  -21.9389  -47.4911 C.3       23 UNK        -0.0398 
     18 CA          1.1313  -23.0487  -46.6758 C.3       11 UNK         0.1400 
     19 N           0.8182  -22.5901  -45.3217 N.am      11 UNK        -0.5000 
     20 C           0.3992  -23.3729  -44.3191 C.2       10 UNK         0.5000 
     21 O           0.2833  -24.5949  -44.4097 O.2       10 UNK        -0.5000 
     22 CA         -0.0119  -22.6572  -43.0177 C.3       10 UNK         0.1400 
     23 CB          1.2174  -22.2999  -42.1692 C.3       10 UNK        -0.1800 
     24 N          -0.7943  -21.4478  -43.2818 N.am      10 UNK        -0.5000 
     25 C          -2.0066  -21.4465  -43.8539 C.2       9 UNK         0.5000 
     26 O          -2.6301  -22.4730  -44.1253 O.2       9 UNK        -0.5000 
     27 CA         -2.5913  -20.0752  -44.2404 C.3       9 UNK         0.1400 
     28 CB         -3.3260  -19.4260  -43.0592 C.3       9 UNK        -0.1800 
     29 N          -1.5644  -19.1640  -44.7499 N.am      9 UNK        -0.5000 
     30 C          -0.9702  -19.3047  -45.9435 C.2       8 UNK         0.5000 
     31 O          -1.2659  -20.1841  -46.7466 O.2       8 UNK        -0.5000 
     32 CA          0.1732  -18.3376  -46.2870 C.3       8 UNK         0.1400 
     33 CB         -0.3635  -17.1020  -47.0232 C.3       8 UNK        -0.1800 
     34 N           0.9404  -17.9528  -45.0984 N.am      8 UNK        -0.5000 
     35 C           1.7813  -18.7950  -44.4814 C.2       7 UNK         0.5000 
     36 O           1.9636  -19.9550  -44.8479 O.2       7 UNK        -0.5000 
     37 CA          2.5196  -18.2946  -43.2291 C.3       7 UNK         0.1400 
     38 CB          3.8003  -17.5419  -43.6177 C.3       7 UNK        -0.1800 
     39 N           1.7224  -17.4753  -42.3147 N.am      7 UNK        -0.5000 
     40 C           0.5876  -17.8648  -41.7178 C.2       6 UNK         0.5000 
     41 O          -0.0347  -18.8819  -42.0256 O.2       6 UNK        -0.5000 
     42 CA          0.0900  -16.9982  -40.5521 C.3       6 UNK         0.1400 
     43 CB          1.2381  -16.4020  -39.7083 C.3       6 UNK        -0.1800 
     44 N          -0.7878  -15.9355  -41.0322 N.am      6 UNK        -0.5000 
     45 C          -1.7225  -15.3405  -40.2745 C.2       5 UNK         0.5000 
     46 O          -1.9625  -15.6706  -39.1120 O.2       5 UNK        -0.5000 
     47 CA         -2.5175  -14.1671  -40.8846 C.3       5 UNK         0.1400 
     48 CB         -1.9860  -12.8273  -40.3512 C.3       5 UNK        -0.1800 
     49 N          -2.4805  -14.1352  -42.3440 N.am      5 UNK        -0.5000 
     50 C          -3.1303  -14.9884  -43.1443 C.2       4 UNK         0.5000 
     51 O          -3.9182  -15.8406  -42.7355 O.2       4 UNK        -0.5000 
     52 CA         -2.8315  -14.8946  -44.6524 C.3       4 UNK         0.1400 
     53 CB         -4.0143  -14.2789  -45.4152 C.3       4 UNK        -0.1800 
     54 N          -1.6124  -14.1493  -44.9861 N.am      4 UNK        -0.5000 
     55 C          -0.3596  -14.5105  -44.6803 C.2       3 UNK         0.5000 
     56 O          -0.0989  -15.5095  -44.0068 O.2       3 UNK        -0.5000 
     57 CA          0.7811  -13.6254  -45.2306 C.3       3 UNK         0.1400 
     58 CB          2.1509  -14.3190  -45.1456 C.3       3 UNK        -0.1800 
     59 N           0.5610  -13.1972  -46.6155 N.am      3 UNK        -0.5000 
     60 C          -0.2415  -12.2004  -47.0068 C.2       2 UNK         0.5000 
     61 O          -0.9505  -11.5712  -46.2203 O.2       2 UNK        -0.5000 
     62 CA         -0.3261  -11.8726  -48.5112 C.3       2 UNK         0.1400 
     63 CB          0.0225  -10.3960  -48.7855 C.3       2 UNK        -0.1800 
     64 N           0.4228  -12.7622  -49.4111 N.am      2 UNK        -0.5000 
     65 C           1.7506  -12.8835  -49.5695 C.2       1 UNK         0.5000 
     66 O           2.5781  -12.3459  -48.8337 O.2       1 UNK        -0.5000 
     67 C          -0.1163  -23.6129  -47.3933 C.2       11 UNK         0.5000 
     68 O          -0.0174  -24.6623  -48.0275 O.2       11 UNK        -0.5000 
     69 N          -1.2770  -22.9559  -47.2327 N.am      12 UNK        -0.5000 
     70 CA         -2.5779  -23.4026  -47.7413 C.3       12 UNK         0.1400 
     71 CB         -3.6620  -22.3525  -47.4521 C.3       12 UNK        -0.1800 
     72 C          -3.0059  -24.7720  -47.1905 C.2       12 UNK         0.5000 
     73 O          -3.5088  -25.6019  -47.9485 O.2       12 UNK        -0.5000 
     74 N          -2.7742  -24.9883  -45.8887 N.am      13 UNK        -0.5000 
     75 CA         -3.0200  -26.2587  -45.2083 C.3       13 UNK         0.1400 
     76 CB         -2.9214  -26.0487  -43.6897 C.3       13 UNK        -0.1800 
     77 C          -2.0714  -27.3821  -45.6718 C.2       13 UNK         0.5000 
     78 O          -2.4851  -28.5417  -45.7066 O.2       13 UNK        -0.5000 
     79 N          -0.8274  -27.0246  -46.0198 N.am      14 UNK        -0.5000 
     80 CA          0.1868  -27.9429  -46.5325 C.3       14 UNK         0.1400 
     81 CB          1.5828  -27.3171  -46.3743 C.3       14 UNK        -0.1800 
     82 C          -0.0863  -28.3574  -47.9906 C.2       14 UNK         0.5000 
     83 O          -0.2274  -29.5508  -48.2616 O.2       14 UNK        -0.5000 
     84 N          -0.1592  -27.3742  -48.8965 N.am      15 UNK        -0.5000 
     85 CA         -0.3553  -27.5512  -50.3344 C.3       15 UNK         0.1400 
     86 CB          0.8671  -28.2402  -50.9792 C.3       15 UNK        -0.1800 
     87 C          -0.6122  -26.1719  -50.9573 C.2       15 UNK         0.5000 
     88 O           0.3419  -25.4475  -51.2421 O.2       15 UNK        -0.5000 
     89 N          -1.8941  -25.8206  -51.1131 N.am      16 UNK        -0.5000 
     90 CA         -2.3727  -24.5207  -51.5877 C.3       16 UNK         0.1400 
     91 CB         -3.9099  -24.5248  -51.5658 C.3       16 UNK        -0.1800 
     92 C          -1.8530  -24.0928  -52.9734 C.2       16 UNK         0.5000 
     93 O          -1.6924  -24.9298  -53.8651 O.2       16 UNK        -0.5000 
     94 N          -1.6442  -22.7791  -53.1145 N.am      17 UNK        -0.5000 
     95 CA         -1.2670  -22.0925  -54.3445 C.3       17 UNK         0.1400 
     96 CB         -0.0765  -21.1598  -54.0386 C.3       17 UNK        -0.1800 
     97 C          -2.5124  -21.3668  -54.8928 C.2       17 UNK         0.5000 
     98 O          -3.5339  -22.0172  -55.1222 O.2       17 UNK        -0.5000 
     99 N          -2.4299  -20.0454  -55.0787 N.am      18 UNK        -0.5000 
    100 CA        -3.5231  -19.1746  -55.4966 C.3       18 UNK         0.1400 
    101 CB        -3.5866  -19.1134  -57.0322 C.3       18 UNK        -0.1800 
    102 C         -3.2928  -17.7821  -54.8934 C.2       18 UNK         0.5000 
    103 O         -2.1383  -17.3999  -54.6829 O.2       18 UNK        -0.5000 
    104 N         -4.3974  -17.0653  -54.6407 N.am      19 UNK        -0.5000 
    105 CA        -4.4905  -15.7510  -53.9893 C.3       19 UNK         0.1400 
    106 CB        -3.7589  -14.6723  -54.8145 C.3       19 UNK        -0.1800 
    107 C         -4.0663  -15.7651  -52.5026 C.2       19 UNK         0.5000 
    108 O         -3.6521  -16.8003  -51.9780 O.2       19 UNK        -0.5000 
    109 N         -4.2481  -14.6267  -51.8164 N.am      20 UNK        -0.5000 
    110 CA        -4.1137  -14.4651  -50.3618 C.3       20 UNK         0.1400 
    111 CB        -2.6358  -14.6104  -49.9253 C.3       20 UNK        -0.1800 
    112 C         -5.0969  -15.4018  -49.6229 C.2       20 UNK         0.5000 
    113 O         -6.2960  -15.3481  -49.9047 O.2       20 UNK        -0.5000 
    114 N         -4.5871  -16.2802  -48.7476 N.am      21 UNK        -0.5000 
    115 CA        -5.3597  -17.3284  -48.0684 C.3       21 UNK         0.1400 
    116 CB        -4.4914  -17.9530  -46.9634 C.3       21 UNK        -0.1800 
    117 C         -5.9034  -18.4230  -49.0155 C.2       21 UNK         0.5000 
    118 O         -6.8110  -19.1591  -48.6277 O.2       21 UNK        -0.5000 
    119 N         -5.3484  -18.5033  -50.2301 N.am      22 UNK        -0.5000 
    120 CA        -5.7186  -19.4402  -51.2996 C.3       22 UNK         0.1400 
    121 C         -6.6640  -18.7958  -52.3576 C.2       22 UNK         0.5000 
    122 N         -7.1775  -17.5866  -52.1538 N.am      22 UNK        -0.7600 
    123 O         -6.9415  -19.4005  -53.3891 O.2       22 UNK        -0.5000 
    124 C124       -4.4586  -20.0575  -51.9670 C.3       23 UNK        -0.0398 
    125 S125       -3.3904  -20.9641  -50.8015 S.3       23 UNK        -0.2404 
    126 C126       -2.3648  -19.6252  -50.1018 C.3       23 UNK        -0.0205 
    127 H127       -0.7793  -14.9031  -53.1277 H         1 UNK         0.0600 
    128 H128       -0.3238  -13.8443  -54.4659 H         1 UNK         0.0600 
    129 H129       -1.4621  -13.2789  -53.2376 H         1 UNK         0.0600 
    130 H130        0.8135  -15.0499  -51.5817 H         1 UNK         0.3000 
    131 H131        2.9197  -13.0763  -51.3193 H         1 UNK         0.0600 
    132 H132        3.6669  -15.3081  -51.1872 H         1 UNK         0.0800 
    133 H133        3.8157  -14.6811  -49.5808 H         1 UNK         0.0800 
    134 H134        1.6444  -16.9465  -52.0048 H         1 UNK         0.0800 
    135 H135        3.0949  -17.7254  -51.4167 H         1 UNK         0.0800 
    136 H136       -0.6108  -17.6690  -50.7802 H         1 UNK         0.1150 
    137 H137       -0.8066  -21.8730  -49.9804 H         1 UNK         0.1150 
    138 H138        2.9563  -20.0466  -50.8923 H         1 UNK         0.1150 
    139 H139        1.0678  -23.2488  -50.2223 H         1 UNK         0.0800 
    140 H140        2.3990  -22.6812  -51.1946 H         1 UNK         0.0800 
    141 H141        2.5172  -21.3954  -46.8408 H         1 UNK         0.0800 
    142 H142        1.1226  -21.1899  -47.8387 H         1 UNK         0.0800 
    143 H143        1.8365  -23.8747  -46.5606 H         1 UNK         0.0600 
    144 H144        0.9486  -21.5993  -45.1413 H         1 UNK         0.3000 
    145 H145       -0.6359  -23.3439  -42.4418 H         1 UNK         0.0600 
    146 H146        0.9243  -21.8336  -41.2284 H         1 UNK         0.0600 
    147 H147        1.7948  -23.1925  -41.9255 H         1 UNK         0.0600 
    148 H148        1.8827  -21.6108  -42.6894 H         1 UNK         0.0600 
    149 H149       -0.3737  -20.5576  -43.0332 H         1 UNK         0.3000 
    150 H150       -3.3224  -20.2414  -45.0342 H         1 UNK         0.0600 
    151 H151       -4.1023  -20.0875  -42.6730 H         1 UNK         0.0600 
    152 H152       -3.8126  -18.4998  -43.3642 H         1 UNK         0.0600 
    153 H153       -2.6521  -19.1951  -42.2344 H         1 UNK         0.0600 
    154 H154       -1.2133  -18.4660  -44.1091 H         1 UNK         0.3000 
    155 H155        0.8499  -18.8515  -46.9736 H         1 UNK         0.0600 
    156 H156        0.4174  -16.3587  -47.1790 H         1 UNK         0.0600 
    157 H157       -1.1798  -16.6298  -46.4833 H         1 UNK         0.0600 
    158 H158       -0.7478  -17.3795  -48.0054 H         1 UNK         0.0600 
    159 H159        0.7614  -17.0373  -44.6946 H         1 UNK         0.3000 
    160 H160        2.8202  -19.1813  -42.6672 H         1 UNK         0.0600 
    161 H161        3.5819  -16.6302  -44.1715 H         1 UNK         0.0600 
    162 H162        4.4386  -18.1610  -44.2495 H         1 UNK         0.0600 
    163 H163        4.3832  -17.2705  -42.7375 H         1 UNK         0.0600 
    164 H164        2.1405  -16.6068  -42.0168 H         1 UNK         0.3000 
    165 H165       -0.4849  -17.6681  -39.9088 H         1 UNK         0.0600 
    166 H166        1.7727  -15.6155  -40.2419 H         1 UNK         0.0600 
    167 H167        0.8596  -15.9696  -38.7820 H         1 UNK         0.0600 
    168 H168        1.9618  -17.1691  -39.4290 H         1 UNK         0.0600 
    169 H169       -0.6639  -15.6558  -41.9998 H         1 UNK         0.3000 
    170 H170       -3.5570  -14.2734  -40.5670 H         1 UNK         0.0600 
    171 H171       -2.0289  -12.7952  -39.2617 H         1 UNK         0.0600 
    172 H172       -0.9484  -12.6610  -40.6436 H         1 UNK         0.0600 
    173 H173       -2.5789  -11.9911  -40.7224 H         1 UNK         0.0600 
    174 H174       -1.8624  -13.4606  -42.7694 H         1 UNK         0.3000 
    175 H175       -2.7014  -15.9204  -44.9967 H         1 UNK         0.0600 
    176 H176       -3.8468  -14.3068  -46.4919 H         1 UNK         0.0600 
    177 H177       -4.9371  -14.8263  -45.2182 H         1 UNK         0.0600 
    178 H178       -4.1796  -13.2401  -45.1272 H         1 UNK         0.0600 
    179 H179       -1.7305  -13.2817  -45.4982 H         1 UNK         0.3000 
    180 H180        0.8227  -12.7382  -44.5956 H         1 UNK         0.0600 
    181 H181        2.9454  -13.6678  -45.5108 H         1 UNK         0.0600 
    182 H182        2.3946  -14.5740  -44.1138 H         1 UNK         0.0600 
    183 H183        2.1757  -15.2374  -45.7332 H         1 UNK         0.0600 
    184 H184        1.1039  -13.6670  -47.3251 H         1 UNK         0.3000 
    185 H185       -1.3752  -12.0067  -48.7778 H         1 UNK         0.0600 
    186 H186       -0.0897  -10.1542  -49.8426 H         1 UNK         0.0600 
    187 H187       -0.6365   -9.7277  -48.2298 H         1 UNK         0.0600 
    188 H188        1.0456  -10.1583  -48.4931 H         1 UNK         0.0600 
    189 H189       -0.1448  -13.2773  -50.0672 H         1 UNK         0.3000 
    190 H190       -1.2668  -22.0493  -46.7726 H         1 UNK         0.3000 
    191 H191       -2.4866  -23.4935  -48.8194 H         1 UNK         0.0600 
    192 H192       -4.5965  -22.6172  -47.9481 H         1 UNK         0.0600 
    193 H193       -3.3761  -21.3678  -47.8145 H         1 UNK         0.0600 
    194 H194       -3.8742  -22.2652  -46.3879 H         1 UNK         0.0600 
    195 H195       -2.4038  -24.2291  -45.3276 H         1 UNK         0.3000 
    196 H196       -4.0402  -26.5715  -45.4403 H         1 UNK         0.0600 
    197 H197       -3.1468  -26.9710  -43.1530 H         1 UNK         0.0600 
    198 H198       -3.6290  -25.2921  -43.3496 H         1 UNK         0.0600 
    199 H199       -1.9231  -25.7303  -43.3895 H         1 UNK         0.0600 
    200 H200       -0.5622  -26.0515  -45.9338 H         1 UNK         0.3000 
    201 H201        0.1649  -28.8478  -45.9213 H         1 UNK         0.0600 
    202 H202        1.7920  -27.0831  -45.3302 H         1 UNK         0.0600 
    203 H203        1.6881  -26.3966  -46.9476 H         1 UNK         0.0600 
    204 H204        2.3574  -28.0047  -46.7158 H         1 UNK         0.0600 
    205 H205       -0.0670  -26.4060  -48.5868 H         1 UNK         0.3000 
    206 H206       -1.2346  -28.1779  -50.4964 H         1 UNK         0.0600 
    207 H207        0.9755  -29.2700  -50.6401 H         1 UNK         0.0600 
    208 H208        0.7683  -28.2706  -52.0649 H         1 UNK         0.0600 
    209 H209        1.7936  -27.7133  -50.7480 H         1 UNK         0.0600 
    210 H210       -2.6092  -26.4781  -50.8387 H         1 UNK         0.3000 
    211 H211       -2.0128  -23.7775  -50.8792 H         1 UNK         0.0600 
    212 H212       -4.3158  -25.3241  -52.1868 H         1 UNK         0.0600 
    213 H213       -4.3158  -23.5853  -51.9424 H         1 UNK         0.0600 
    214 H214       -4.2902  -24.6577  -50.5528 H         1 UNK         0.0600 
    215 H215       -1.8721  -22.1716  -52.3387 H         1 UNK         0.3000 
    216 H216       -0.9504  -22.8115  -55.1024 H         1 UNK         0.0600 
    217 H217        0.2771  -20.6587  -54.9404 H         1 UNK         0.0600 
    218 H218        0.7654  -21.7243  -53.6371 H         1 UNK         0.0600 
    219 H219       -0.3330  -20.3938  -53.3054 H         1 UNK         0.0600 
    220 H220       -1.5838  -19.5501  -54.8250 H         1 UNK         0.3000 
    221 H221       -4.4675  -19.5649  -55.1105 H         1 UNK         0.0600 
    222 H222       -2.6563  -18.7341  -57.4567 H         1 UNK         0.0600 
    223 H223       -3.7727  -20.0990  -57.4593 H         1 UNK         0.0600 
    224 H224       -4.3923  -18.4580  -57.3648 H         1 UNK         0.0600 
    225 H225       -5.2894  -17.4977  -54.8371 H         1 UNK         0.3000 
    226 H226       -5.5521  -15.5000  -53.9905 H         1 UNK         0.0600 
    227 H227       -4.1459  -14.6342  -55.8328 H         1 UNK         0.0600 
    228 H228       -3.8904  -13.6786  -54.3863 H         1 UNK         0.0600 
    229 H229       -2.6889  -14.8616  -54.8782 H         1 UNK         0.0600 
    230 H230       -4.6374  -13.8317  -52.3028 H         1 UNK         0.3000 
    231 H231       -4.4291  -13.4469  -50.1298 H         1 UNK         0.0600 
    232 H232       -2.5108  -14.3768  -48.8672 H         1 UNK         0.0600 
    233 H233       -2.0076  -13.9188  -50.4848 H         1 UNK         0.0600 
    234 H234       -2.2438  -15.6138  -50.0941 H         1 UNK         0.0600 
    235 H235       -3.5906  -16.2813  -48.5926 H         1 UNK         0.3000 
    236 H236       -6.2238  -16.8578  -47.5949 H         1 UNK         0.0600 
    237 H237       -4.2344  -17.2185  -46.2024 H         1 UNK         0.0600 
    238 H238       -5.0185  -18.7636  -46.4585 H         1 UNK         0.0600 
    239 H239       -3.5644  -18.3646  -47.3604 H         1 UNK         0.0600 
    240 H240       -4.6438  -17.8245  -50.4948 H         1 UNK         0.3000 
    241 H241       -6.2890  -20.2635  -50.8664 H         1 UNK         0.0600 
    242 H242       -6.9689  -17.0696  -51.3108 H         1 UNK         0.3800 
    243 H243       -7.8097  -17.1978  -52.8349 H         1 UNK         0.3800 
    244 H244       -4.7539  -20.7679  -52.7408 H         1 UNK         0.0800 
    245 H245       -3.8641  -19.2968  -52.4693 H         1 UNK         0.0800 
    246 H246       -2.5023  -19.6101  -49.0229 H         1 UNK         0.0800 
    247 H247       -2.7109  -18.6590  -50.4625 H         1 UNK         0.0800 
@<TRIPOS>BOND
     1    1    2 1    
     2    1  127 1    
     3    1  128 1    
     4    1  129 1    
     5    2    3 2    
     6    2    4 am   BACKBONE|DICT|INTERRES
     7    4    5 1    
     8    4  130 1    
     9    5    6 1    
    10    5   65 1    
    11    5  131 1    
    12    6    7 1    
    13    6  132 1    
    14    6  133 1    
    15    7    8 1    
    16    8    9 1    
    17    8  134 1    
    18    8  135 1    
    19    9   10 ar   
    20    9   14 ar   
    21   10   11 ar   
    22   10  136 1    
    23   11   12 ar   
    24   11  126 1    
    25   12   13 ar   
    26   12  137 1    
    27   13   14 ar   
    28   13   15 1    
    29   14  138 1    
    30   15   16 1    
    31   15  139 1    
    32   15  140 1    
    33   16   17 1    
    34   17   18 1    
    35   17  141 1    
    36   17  142 1    
    37   18   19 1    
    38   18   67 1    
    39   18  143 1    
    40   19   20 am   BACKBONE|DICT|INTERRES
    41   19  144 1    
    42   20   21 2    
    43   20   22 1    
    44   22   23 1    
    45   22   24 1    
    46   22  145 1    
    47   23  146 1    
    48   23  147 1    
    49   23  148 1    
    50   24   25 am   BACKBONE|DICT|INTERRES
    51   24  149 1    
    52   25   26 2    
    53   25   27 1    
    54   27   28 1    
    55   27   29 1    
    56   27  150 1    
    57   28  151 1    
    58   28  152 1    
    59   28  153 1    
    60   29   30 am   BACKBONE|DICT|INTERRES
    61   29  154 1    
    62   30   31 2    
    63   30   32 1    
    64   32   33 1    
    65   32   34 1    
    66   32  155 1    
    67   33  156 1    
    68   33  157 1    
    69   33  158 1    
    70   34   35 am   BACKBONE|DICT|INTERRES
    71   34  159 1    
    72   35   36 2    
    73   35   37 1    
    74   37   38 1    
    75   37   39 1    
    76   37  160 1    
    77   38  161 1    
    78   38  162 1    
    79   38  163 1    
    80   39   40 am   BACKBONE|DICT|INTERRES
    81   39  164 1    
    82   40   41 2    
    83   40   42 1    
    84   42   43 1    
    85   42   44 1    
    86   42  165 1    
    87   43  166 1    
    88   43  167 1    
    89   43  168 1    
    90   44   45 am   BACKBONE|DICT|INTERRES
    91   44  169 1    
    92   45   46 2    
    93   45   47 1    
    94   47   48 1    
    95   47   49 1    
    96   47  170 1    
    97   48  171 1    
    98   48  172 1    
    99   48  173 1    
   100   49   50 am   BACKBONE|DICT|INTERRES
   101   49  174 1    
   102   50   51 2    
   103   50   52 1    
   104   52   53 1    
   105   52   54 1    
   106   52  175 1    
   107   53  176 1    
   108   53  177 1    
   109   53  178 1    
   110   54   55 am   BACKBONE|DICT|INTERRES
   111   54  179 1    
   112   55   56 2    
   113   55   57 1    
   114   57   58 1    
   115   57   59 1    
   116   57  180 1    
   117   58  181 1    
   118   58  182 1    
   119   58  183 1    
   120   59   60 am   BACKBONE|DICT|INTERRES
   121   59  184 1    
   122   60   61 2    
   123   60   62 1    
   124   62   63 1    
   125   62   64 1    
   126   62  185 1    
   127   63  186 1    
   128   63  187 1    
   129   63  188 1    
   130   64   65 am   BACKBONE|DICT|INTERRES
   131   64  189 1    
   132   65   66 2    
   133   67   68 2    
   134   67   69 am   BACKBONE|DICT|INTERRES
   135   69   70 1    
   136   69  190 1    
   137   70   71 1    
   138   70   72 1    
   139   70  191 1    
   140   71  192 1    
   141   71  193 1    
   142   71  194 1    
   143   72   73 2    
   144   72   74 am   BACKBONE|DICT|INTERRES
   145   74   75 1    
   146   74  195 1    
   147   75   76 1    
   148   75   77 1    
   149   75  196 1    
   150   76  197 1    
   151   76  198 1    
   152   76  199 1    
   153   77   78 2    
   154   77   79 am   BACKBONE|DICT|INTERRES
   155   79   80 1    
   156   79  200 1    
   157   80   81 1    
   158   80   82 1    
   159   80  201 1    
   160   81  202 1    
   161   81  203 1    
   162   81  204 1    
   163   82   83 2    
   164   82   84 am   BACKBONE|DICT|INTERRES
   165   84   85 1    
   166   84  205 1    
   167   85   86 1    
   168   85   87 1    
   169   85  206 1    
   170   86  207 1    
   171   86  208 1    
   172   86  209 1    
   173   87   88 2    
   174   87   89 am   BACKBONE|DICT|INTERRES
   175   89   90 1    
   176   89  210 1    
   177   90   91 1    
   178   90   92 1    
   179   90  211 1    
   180   91  212 1    
   181   91  213 1    
   182   91  214 1    
   183   92   93 2    
   184   92   94 am   BACKBONE|DICT|INTERRES
   185   94   95 1    
   186   94  215 1    
   187   95   96 1    
   188   95   97 1    
   189   95  216 1    
   190   96  217 1    
   191   96  218 1    
   192   96  219 1    
   193   97   98 2    
   194   97   99 am   BACKBONE|DICT|INTERRES
   195   99  100 1    
   196   99  220 1    
   197  100  101 1    
   198  100  102 1    
   199  100  221 1    
   200  101  222 1    
   201  101  223 1    
   202  101  224 1    
   203  102  103 2    
   204  102  104 am   BACKBONE|DICT|INTERRES
   205  104  105 1    
   206  104  225 1    
   207  105  106 1    
   208  105  107 1    
   209  105  226 1    
   210  106  227 1    
   211  106  228 1    
   212  106  229 1    
   213  107  108 2    
   214  107  109 am   BACKBONE|DICT|INTERRES
   215  109  110 1    
   216  109  230 1    
   217  110  111 1    
   218  110  112 1    
   219  110  231 1    
   220  111  232 1    
   221  111  233 1    
   222  111  234 1    
   223  112  113 2    
   224  112  114 am   BACKBONE|DICT|INTERRES
   225  114  115 1    
   226  114  235 1    
   227  115  116 1    
   228  115  117 1    
   229  115  236 1    
   230  116  237 1    
   231  116  238 1    
   232  116  239 1    
   233  117  118 2    
   234  117  119 am   BACKBONE|DICT|INTERRES
   235  119  120 1    
   236  119  240 1    
   237  120  121 1    
   238  120  124 1    
   239  120  241 1    
   240  121  122 am   BACKBONE|DICT|INTERRES
   241  121  123 2    
   242  122  242 1    
   243  122  243 1    
   244  124  125 1    
   245  124  244 1    
   246  124  245 1    
   247  125  126 1    
   248  126  246 1    
   249  126  247 1    
@<TRIPOS>SUBSTRUCTURE
     1 UNK         1 GROUP             0       ****    0 ROOT    
