@<TRIPOS>MOLECULE
3R540
247   249    1
SMALL
USER_CHARGES


@<TRIPOS>ATOM
      1 CA          0.1306  -14.7385  -48.1533 C.3       0 UNK        -0.1800 
      2 C           0.6823  -16.1487  -48.3343 C.2       0 UNK         0.5000 
      3 O          -0.1001  -17.0603  -48.5828 O.2       0 UNK        -0.5000 
      4 N           1.9906  -16.4021  -48.1994 N.am      1 UNK        -0.5000 
      5 CA          3.0255  -15.4875  -47.7075 C.3       1 UNK         0.1400 
      6 C6          4.0076  -15.0209  -48.8145 C.3       23 UNK        -0.0398 
      7 S7          3.3330  -13.6625  -49.8275 S.3       23 UNK        -0.2404 
      8 C8          3.2840  -14.3916  -51.4936 C.3       23 UNK        -0.0205 
      9 C9          2.1448  -15.3854  -51.6553 C.ar      23 UNK        -0.0193 
     10 C10         0.8313  -14.9296  -51.8057 C.ar      23 UNK        -0.1150 
     11 C11        -0.2199  -15.8343  -51.9841 C.ar      23 UNK        -0.0193 
     12 C12         0.0578  -17.2034  -52.0319 C.ar      23 UNK        -0.1150 
     13 C13         1.3616  -17.6728  -51.8531 C.ar      23 UNK        -0.0193 
     14 C14         2.4029  -16.7585  -51.6730 C.ar      23 UNK        -0.1150 
     15 C15         1.6486  -19.1653  -51.8430 C.3       23 UNK        -0.0205 
     16 S16         1.5113  -19.8532  -50.1636 S.3       23 UNK        -0.2404 
     17 C17        -0.2907  -20.0976  -50.0415 C.3       23 UNK        -0.0398 
     18 CA         -0.7178  -20.6248  -48.6562 C.3       11 UNK         0.1400 
     19 N          -0.4924  -19.6435  -47.5921 N.am      11 UNK        -0.5000 
     20 C          -0.4575  -19.9426  -46.2886 C.2       10 UNK         0.5000 
     21 O          -0.5896  -21.0832  -45.8525 O.2       10 UNK        -0.5000 
     22 CA         -0.2870  -18.7787  -45.3010 C.3       10 UNK         0.1400 
     23 CB          1.1921  -18.4313  -45.1361 C.3       10 UNK        -0.1800 
     24 N          -1.0178  -17.5682  -45.6632 N.am      10 UNK        -0.5000 
     25 C          -2.3428  -17.4842  -45.8166 C.2       9 UNK         0.5000 
     26 O          -3.0922  -18.4614  -45.7784 O.2       9 UNK        -0.5000 
     27 CA         -2.9056  -16.0667  -46.0015 C.3       9 UNK         0.1400 
     28 CB         -4.4457  -16.0194  -45.9300 C.3       9 UNK        -0.1800 
     29 N          -2.3158  -15.1726  -45.0019 N.am      9 UNK        -0.5000 
     30 C          -2.2623  -13.8374  -45.1036 C.2       8 UNK         0.5000 
     31 O          -2.6831  -13.2128  -46.0779 O.2       8 UNK        -0.5000 
     32 CA         -1.6442  -13.0535  -43.9262 C.3       8 UNK         0.1400 
     33 CB         -2.7429  -12.5992  -42.9531 C.3       8 UNK        -0.1800 
     34 N          -0.6326  -13.8022  -43.1797 N.am      8 UNK        -0.5000 
     35 C           0.5672  -14.1542  -43.6586 C.2       7 UNK         0.5000 
     36 O           0.9736  -13.8208  -44.7709 O.2       7 UNK        -0.5000 
     37 CA          1.4709  -15.0262  -42.7608 C.3       7 UNK         0.1400 
     38 CB          2.5643  -14.1628  -42.1137 C.3       7 UNK        -0.1800 
     39 N           0.8126  -15.8079  -41.7042 N.am      7 UNK        -0.5000 
     40 C          -0.2387  -16.6310  -41.8166 C.2       6 UNK         0.5000 
     41 O          -0.9336  -16.7171  -42.8278 O.2       6 UNK        -0.5000 
     42 CA         -0.5463  -17.5193  -40.5924 C.3       6 UNK         0.1400 
     43 CB         -1.8248  -18.3561  -40.7833 C.3       6 UNK        -0.1800 
     44 N           0.5620  -18.4296  -40.2959 N.am      6 UNK        -0.5000 
     45 C           1.7160  -18.0987  -39.7003 C.2       5 UNK         0.5000 
     46 O           1.9653  -16.9635  -39.2910 O.2       5 UNK        -0.5000 
     47 CA          2.7743  -19.2105  -39.5443 C.3       5 UNK         0.1400 
     48 CB          2.7465  -19.7778  -38.1168 C.3       5 UNK        -0.1800 
     49 N           2.6270  -20.3159  -40.4982 N.am      5 UNK        -0.5000 
     50 C           2.8461  -20.2188  -41.8156 C.2       4 UNK         0.5000 
     51 O           3.1841  -19.1730  -42.3789 O.2       4 UNK        -0.5000 
     52 CA          2.6327  -21.4978  -42.6417 C.3       4 UNK         0.1400 
     53 CB          1.1394  -21.8758  -42.7048 C.3       4 UNK        -0.1800 
     54 N           3.1373  -21.2453  -43.9836 N.am      4 UNK        -0.5000 
     55 C           3.4681  -22.1357  -44.9220 C.2       3 UNK         0.5000 
     56 O           3.4254  -23.3540  -44.7487 O.2       3 UNK        -0.5000 
     57 CA          3.9122  -21.5734  -46.2930 C.3       3 UNK         0.1400 
     58 CB          2.8810  -21.9225  -47.3764 C.3       3 UNK        -0.1800 
     59 N           4.1346  -20.1182  -46.3020 N.am      3 UNK        -0.5000 
     60 C           5.2115  -19.5209  -45.7716 C.2       2 UNK         0.5000 
     61 O           6.1329  -20.1514  -45.2515 O.2       2 UNK        -0.5000 
     62 CA          5.2738  -17.9801  -45.7982 C.3       2 UNK         0.1400 
     63 CB          6.7038  -17.4621  -46.0540 C.3       2 UNK        -0.1800 
     64 N           4.3523  -17.3531  -46.7584 N.am      2 UNK        -0.5000 
     65 C           3.7892  -16.1506  -46.5443 C.2       1 UNK         0.5000 
     66 O           3.8640  -15.5532  -45.4706 O.2       1 UNK        -0.5000 
     67 C          -2.1754  -21.1237  -48.6956 C.2       11 UNK         0.5000 
     68 O          -2.4120  -22.2123  -49.2217 O.2       11 UNK        -0.5000 
     69 N          -3.1203  -20.3582  -48.1320 N.am      12 UNK        -0.5000 
     70 CA         -4.4972  -20.8019  -47.9335 C.3       12 UNK         0.1400 
     71 CB         -5.4447  -19.5965  -47.8499 C.3       12 UNK        -0.1800 
     72 C          -4.5994  -21.6894  -46.6835 C.2       12 UNK         0.5000 
     73 O          -5.2261  -22.7462  -46.7446 O.2       12 UNK        -0.5000 
     74 N          -3.9352  -21.2738  -45.5943 N.am      13 UNK        -0.5000 
     75 CA         -3.8434  -22.0078  -44.3290 C.3       13 UNK         0.1400 
     76 CB         -3.1321  -21.1342  -43.2838 C.3       13 UNK        -0.1800 
     77 C          -3.1413  -23.3729  -44.4712 C.2       13 UNK         0.5000 
     78 O          -3.6068  -24.3607  -43.9023 O.2       13 UNK        -0.5000 
     79 N          -2.0585  -23.4089  -45.2591 N.am      14 UNK        -0.5000 
     80 CA         -1.3100  -24.6165  -45.6137 C.3       14 UNK         0.1400 
     81 CB          0.0634  -24.1989  -46.1654 C.3       14 UNK        -0.1800 
     82 C          -2.0295  -25.5090  -46.6450 C.2       14 UNK         0.5000 
     83 O          -1.6093  -26.6501  -46.8395 O.2       14 UNK        -0.5000 
     84 N          -3.0629  -24.9679  -47.3104 N.am      15 UNK        -0.5000 
     85 CA         -3.8000  -25.5506  -48.4380 C.3       15 UNK         0.1400 
     86 CB         -4.5957  -26.7966  -47.9988 C.3       15 UNK        -0.1800 
     87 C          -2.9026  -25.8002  -49.6706 C.2       15 UNK         0.5000 
     88 O          -3.1105  -26.7623  -50.4116 O.2       15 UNK        -0.5000 
     89 N          -1.9143  -24.9180  -49.8600 N.am      16 UNK        -0.5000 
     90 CA         -0.9458  -24.9491  -50.9510 C.3       16 UNK         0.1400 
     91 CB          0.3564  -24.2815  -50.4791 C.3       16 UNK        -0.1800 
     92 C          -1.4835  -24.2498  -52.2101 C.2       16 UNK         0.5000 
     93 O          -1.1891  -24.6984  -53.3186 O.2       16 UNK        -0.5000 
     94 N          -2.2606  -23.1736  -52.0233 N.am      17 UNK        -0.5000 
     95 CA         -2.8393  -22.3740  -53.1051 C.3       17 UNK         0.1400 
     96 CB         -1.8118  -21.3489  -53.6218 C.3       17 UNK        -0.1800 
     97 C          -4.1667  -21.7230  -52.6785 C.2       17 UNK         0.5000 
     98 O          -4.4881  -20.6275  -53.1490 O.2       17 UNK        -0.5000 
     99 N          -4.9143  -22.4165  -51.8061 N.am      18 UNK        -0.5000 
    100 CA        -6.2166  -22.0168  -51.2687 C.3       18 UNK         0.1400 
    101 CB        -6.7205  -23.1004  -50.3006 C.3       18 UNK        -0.1800 
    102 C         -7.2498  -21.7513  -52.3772 C.2       18 UNK         0.5000 
    103 O         -7.6734  -22.6894  -53.0543 O.2       18 UNK        -0.5000 
    104 N         -7.5818  -20.4679  -52.5620 N.am      19 UNK        -0.5000 
    105 CA        -8.4595  -19.8839  -53.5836 C.3       19 UNK         0.1400 
    106 CB        -9.8842  -20.4688  -53.5020 C.3       19 UNK        -0.1800 
    107 C         -7.8941  -19.9349  -55.0201 C.2       19 UNK         0.5000 
    108 O         -8.5372  -19.4162  -55.9339 O.2       19 UNK        -0.5000 
    109 N         -6.7034  -20.5200  -55.2022 N.am      20 UNK        -0.5000 
    110 CA        -5.9699  -20.5469  -56.4648 C.3       20 UNK         0.1400 
    111 CB        -5.1001  -21.8121  -56.5285 C.3       20 UNK        -0.1800 
    112 C         -5.1100  -19.2827  -56.6119 C.2       20 UNK         0.5000 
    113 O         -5.0754  -18.6974  -57.6951 O.2       20 UNK        -0.5000 
    114 N         -4.4572  -18.8778  -55.5142 N.am      21 UNK        -0.5000 
    115 CA        -3.6740  -17.6481  -55.4190 C.3       21 UNK         0.1400 
    116 CB        -2.2434  -17.9839  -54.9705 C.3       21 UNK        -0.1800 
    117 C         -4.3338  -16.6631  -54.4433 C.2       21 UNK         0.5000 
    118 O         -4.4561  -15.4824  -54.7706 O.2       21 UNK        -0.5000 
    119 N         -4.7520  -17.1552  -53.2714 N.am      22 UNK        -0.5000 
    120 CA        -5.3645  -16.3685  -52.1922 C.3       22 UNK         0.1400 
    121 C         -6.0972  -17.2787  -51.1697 C.2       22 UNK         0.5000 
    122 N         -6.8032  -16.7075  -50.2036 N.am      22 UNK        -0.7600 
    123 O         -6.0614  -18.5037  -51.2540 O.2       22 UNK        -0.5000 
    124 C124       -4.3845  -15.3536  -51.5285 C.3       23 UNK        -0.0398 
    125 S125       -2.8046  -16.0711  -50.9493 S.3       23 UNK        -0.2404 
    126 C126       -1.6470  -15.3306  -52.1503 C.3       23 UNK        -0.0205 
    127 H127        0.7541  -13.9934  -48.6424 H         1 UNK         0.0600 
    128 H128        0.0482  -14.4937  -47.0967 H         1 UNK         0.0600 
    129 H129       -0.8643  -14.6659  -48.5931 H         1 UNK         0.0600 
    130 H130        2.2951  -17.3446  -48.3860 H         1 UNK         0.3000 
    131 H131        2.5630  -14.6008  -47.2701 H         1 UNK         0.0600 
    132 H132        4.9318  -14.6369  -48.3776 H         1 UNK         0.0800 
    133 H133        4.3045  -15.8572  -49.4486 H         1 UNK         0.0800 
    134 H134        4.2448  -14.8564  -51.7203 H         1 UNK         0.0800 
    135 H135        3.1593  -13.5884  -52.2213 H         1 UNK         0.0800 
    136 H136        0.6317  -13.8675  -51.7819 H         1 UNK         0.1150 
    137 H137       -0.7502  -17.9042  -52.1798 H         1 UNK         0.1150 
    138 H138        3.4138  -17.1181  -51.5436 H         1 UNK         0.1150 
    139 H139        0.9744  -19.6905  -52.5213 H         1 UNK         0.0800 
    140 H140        2.6573  -19.3494  -52.2156 H         1 UNK         0.0800 
    141 H141       -0.5719  -20.8027  -50.8246 H         1 UNK         0.0800 
    142 H142       -0.8052  -19.1612  -50.2580 H         1 UNK         0.0800 
    143 H143       -0.1079  -21.5025  -48.4352 H         1 UNK         0.0600 
    144 H144       -0.3785  -18.6744  -47.8913 H         1 UNK         0.3000 
    145 H145       -0.6673  -19.1102  -44.3331 H         1 UNK         0.0600 
    146 H146        1.6159  -18.0440  -46.0588 H         1 UNK         0.0600 
    147 H147        1.3432  -17.6947  -44.3502 H         1 UNK         0.0600 
    148 H148        1.7596  -19.3121  -44.8606 H         1 UNK         0.0600 
    149 H149       -0.4825  -16.7148  -45.6953 H         1 UNK         0.3000 
    150 H150       -2.5968  -15.7390  -46.9963 H         1 UNK         0.0600 
    151 H151       -4.8912  -16.6530  -46.6973 H         1 UNK         0.0600 
    152 H152       -4.8243  -15.0105  -46.0923 H         1 UNK         0.0600 
    153 H153       -4.8111  -16.3632  -44.9617 H         1 UNK         0.0600 
    154 H154       -1.9199  -15.6275  -44.1819 H         1 UNK         0.3000 
    155 H155       -1.1668  -12.1629  -44.3403 H         1 UNK         0.0600 
    156 H156       -3.5037  -12.0120  -43.4691 H         1 UNK         0.0600 
    157 H157       -2.3340  -11.9733  -42.1597 H         1 UNK         0.0600 
    158 H158       -3.2439  -13.4491  -42.4877 H         1 UNK         0.0600 
    159 H159       -0.8937  -14.1340  -42.2632 H         1 UNK         0.3000 
    160 H160        1.9667  -15.7400  -43.4185 H         1 UNK         0.0600 
    161 H161        2.1436  -13.4468  -41.4067 H         1 UNK         0.0600 
    162 H162        3.1159  -13.5986  -42.8673 H         1 UNK         0.0600 
    163 H163        3.2885  -14.7784  -41.5796 H         1 UNK         0.0600 
    164 H164        1.3131  -15.8514  -40.8222 H         1 UNK         0.3000 
    165 H165       -0.7019  -16.8583  -39.7373 H         1 UNK         0.0600 
    166 H166       -2.0534  -18.9380  -39.8903 H         1 UNK         0.0600 
    167 H167       -2.6859  -17.7169  -40.9822 H         1 UNK         0.0600 
    168 H168       -1.7303  -19.0490  -41.6202 H         1 UNK         0.0600 
    169 H169        0.4568  -19.3795  -40.6179 H         1 UNK         0.3000 
    170 H170        3.7515  -18.7512  -39.7086 H         1 UNK         0.0600 
    171 H171        2.8840  -18.9865  -37.3784 H         1 UNK         0.0600 
    172 H172        1.7981  -20.2699  -37.8975 H         1 UNK         0.0600 
    173 H173        3.5457  -20.5034  -37.9644 H         1 UNK         0.0600 
    174 H174        2.3541  -21.2077  -40.1102 H         1 UNK         0.3000 
    175 H175        3.2066  -22.3069  -42.1857 H         1 UNK         0.0600 
    176 H176        0.5463  -21.0938  -43.1799 H         1 UNK         0.0600 
    177 H177        0.9876  -22.7954  -43.2685 H         1 UNK         0.0600 
    178 H178        0.7273  -22.0432  -41.7094 H         1 UNK         0.0600 
    179 H179        3.2833  -20.2616  -44.1700 H         1 UNK         0.3000 
    180 H180        4.8494  -22.0701  -46.5530 H         1 UNK         0.0600 
    181 H181        1.9254  -21.4369  -47.1864 H         1 UNK         0.0600 
    182 H182        2.6992  -22.9972  -47.4185 H         1 UNK         0.0600 
    183 H183        3.2272  -21.6161  -48.3632 H         1 UNK         0.0600 
    184 H184        3.4038  -19.5517  -46.7025 H         1 UNK         0.3000 
    185 H185        4.9901  -17.6849  -44.7855 H         1 UNK         0.0600 
    186 H186        7.0584  -17.7451  -47.0456 H         1 UNK         0.0600 
    187 H187        6.7512  -16.3757  -45.9791 H         1 UNK         0.0600 
    188 H188        7.4097  -17.8607  -45.3244 H         1 UNK         0.0600 
    189 H189        4.3022  -17.7819  -47.6714 H         1 UNK         0.3000 
    190 H190       -2.8502  -19.4994  -47.6698 H         1 UNK         0.3000 
    191 H191       -4.7936  -21.3957  -48.7968 H         1 UNK         0.0600 
    192 H192       -5.2695  -18.9002  -48.6691 H         1 UNK         0.0600 
    193 H193       -6.4840  -19.9203  -47.9122 H         1 UNK         0.0600 
    194 H194       -5.3332  -19.0482  -46.9154 H         1 UNK         0.0600 
    195 H195       -3.4791  -20.3666  -45.6281 H         1 UNK         0.3000 
    196 H196       -4.8620  -22.1926  -43.9818 H         1 UNK         0.0600 
    197 H197       -3.1113  -21.6278  -42.3116 H         1 UNK         0.0600 
    198 H198       -3.6411  -20.1787  -43.1540 H         1 UNK         0.0600 
    199 H199       -2.1004  -20.9270  -43.5666 H         1 UNK         0.0600 
    200 H200       -1.6840  -22.5301  -45.6120 H         1 UNK         0.3000 
    201 H201       -1.1549  -25.2083  -44.7094 H         1 UNK         0.0600 
    202 H202        0.6118  -23.5897  -45.4483 H         1 UNK         0.0600 
    203 H203       -0.0325  -23.6221  -47.0859 H         1 UNK         0.0600 
    204 H204        0.6814  -25.0697  -46.3872 H         1 UNK         0.0600 
    205 H205       -3.3526  -24.0363  -47.0440 H         1 UNK         0.3000 
    206 H206       -4.5222  -24.7945  -48.7430 H         1 UNK         0.0600 
    207 H207       -3.9400  -27.6287  -47.7415 H         1 UNK         0.0600 
    208 H208       -5.2189  -26.5789  -47.1314 H         1 UNK         0.0600 
    209 H209       -5.2579  -27.1375  -48.7954 H         1 UNK         0.0600 
    210 H210       -1.8852  -24.1037  -49.2567 H         1 UNK         0.3000 
    211 H211       -0.7241  -25.9876  -51.2060 H         1 UNK         0.0600 
    212 H212        1.1182  -24.3186  -51.2587 H         1 UNK         0.0600 
    213 H213        0.7630  -24.7865  -49.6025 H         1 UNK         0.0600 
    214 H214        0.2045  -23.2336  -50.2203 H         1 UNK         0.0600 
    215 H215       -2.4439  -22.8575  -51.0748 H         1 UNK         0.3000 
    216 H216       -3.0936  -23.0410  -53.9313 H         1 UNK         0.0600 
    217 H217       -2.1719  -20.8719  -54.5331 H         1 UNK         0.0600 
    218 H218       -0.8591  -21.8196  -53.8644 H         1 UNK         0.0600 
    219 H219       -1.6234  -20.5638  -52.8903 H         1 UNK         0.0600 
    220 H220       -4.5830  -23.3275  -51.5280 H         1 UNK         0.3000 
    221 H221       -6.0730  -21.0967  -50.7006 H         1 UNK         0.0600 
    222 H222       -6.8159  -24.0694  -50.7923 H         1 UNK         0.0600 
    223 H223       -6.0509  -23.2212  -49.4516 H         1 UNK         0.0600 
    224 H224       -7.7004  -22.8384  -49.8995 H         1 UNK         0.0600 
    225 H225       -7.0858  -19.7790  -51.9952 H         1 UNK         0.3000 
    226 H226       -8.5278  -18.8246  -53.3319 H         1 UNK         0.0600 
    227 H227      -10.2775  -20.4103  -52.4871 H         1 UNK         0.0600 
    228 H228      -10.5693  -19.9168  -54.1464 H         1 UNK         0.0600 
    229 H229       -9.9157  -21.5121  -53.8164 H         1 UNK         0.0600 
    230 H230       -6.2217  -20.8762  -54.3869 H         1 UNK         0.3000 
    231 H231       -6.6764  -20.5814  -57.2970 H         1 UNK         0.0600 
    232 H232       -4.3345  -21.8193  -55.7537 H         1 UNK         0.0600 
    233 H233       -4.5908  -21.8836  -57.4902 H         1 UNK         0.0600 
    234 H234       -5.7043  -22.7120  -56.4121 H         1 UNK         0.0600 
    235 H235       -4.5400  -19.4328  -54.6679 H         1 UNK         0.3000 
    236 H236       -3.6102  -17.1552  -56.3913 H         1 UNK         0.0600 
    237 H237       -1.7715  -18.6886  -55.6550 H         1 UNK         0.0600 
    238 H238       -1.6196  -17.0900  -54.9497 H         1 UNK         0.0600 
    239 H239       -2.2278  -18.4207  -53.9722 H         1 UNK         0.0600 
    240 H240       -4.6474  -18.1390  -53.0556 H         1 UNK         0.3000 
    241 H241       -6.1650  -15.7914  -52.6587 H         1 UNK         0.0600 
    242 H242       -7.2893  -17.2967  -49.5472 H         1 UNK         0.3800 
    243 H243       -6.8810  -15.7067  -50.1177 H         1 UNK         0.3800 
    244 H244       -4.1699  -14.5517  -52.2354 H         1 UNK         0.0800 
    245 H245       -4.8555  -14.8524  -50.6822 H         1 UNK         0.0800 
    246 H246       -1.9779  -15.5500  -53.1638 H         1 UNK         0.0800 
    247 H247       -1.6831  -14.2455  -52.0425 H         1 UNK         0.0800 
@<TRIPOS>BOND
     1    1    2 1    
     2    1  127 1    
     3    1  128 1    
     4    1  129 1    
     5    2    3 2    
     6    2    4 am   BACKBONE|DICT|INTERRES
     7    4    5 1    
     8    4  130 1    
     9    5    6 1    
    10    5   65 1    
    11    5  131 1    
    12    6    7 1    
    13    6  132 1    
    14    6  133 1    
    15    7    8 1    
    16    8    9 1    
    17    8  134 1    
    18    8  135 1    
    19    9   10 ar   
    20    9   14 ar   
    21   10   11 ar   
    22   10  136 1    
    23   11   12 ar   
    24   11  126 1    
    25   12   13 ar   
    26   12  137 1    
    27   13   14 ar   
    28   13   15 1    
    29   14  138 1    
    30   15   16 1    
    31   15  139 1    
    32   15  140 1    
    33   16   17 1    
    34   17   18 1    
    35   17  141 1    
    36   17  142 1    
    37   18   19 1    
    38   18   67 1    
    39   18  143 1    
    40   19   20 am   BACKBONE|DICT|INTERRES
    41   19  144 1    
    42   20   21 2    
    43   20   22 1    
    44   22   23 1    
    45   22   24 1    
    46   22  145 1    
    47   23  146 1    
    48   23  147 1    
    49   23  148 1    
    50   24   25 am   BACKBONE|DICT|INTERRES
    51   24  149 1    
    52   25   26 2    
    53   25   27 1    
    54   27   28 1    
    55   27   29 1    
    56   27  150 1    
    57   28  151 1    
    58   28  152 1    
    59   28  153 1    
    60   29   30 am   BACKBONE|DICT|INTERRES
    61   29  154 1    
    62   30   31 2    
    63   30   32 1    
    64   32   33 1    
    65   32   34 1    
    66   32  155 1    
    67   33  156 1    
    68   33  157 1    
    69   33  158 1    
    70   34   35 am   BACKBONE|DICT|INTERRES
    71   34  159 1    
    72   35   36 2    
    73   35   37 1    
    74   37   38 1    
    75   37   39 1    
    76   37  160 1    
    77   38  161 1    
    78   38  162 1    
    79   38  163 1    
    80   39   40 am   BACKBONE|DICT|INTERRES
    81   39  164 1    
    82   40   41 2    
    83   40   42 1    
    84   42   43 1    
    85   42   44 1    
    86   42  165 1    
    87   43  166 1    
    88   43  167 1    
    89   43  168 1    
    90   44   45 am   BACKBONE|DICT|INTERRES
    91   44  169 1    
    92   45   46 2    
    93   45   47 1    
    94   47   48 1    
    95   47   49 1    
    96   47  170 1    
    97   48  171 1    
    98   48  172 1    
    99   48  173 1    
   100   49   50 am   BACKBONE|DICT|INTERRES
   101   49  174 1    
   102   50   51 2    
   103   50   52 1    
   104   52   53 1    
   105   52   54 1    
   106   52  175 1    
   107   53  176 1    
   108   53  177 1    
   109   53  178 1    
   110   54   55 am   BACKBONE|DICT|INTERRES
   111   54  179 1    
   112   55   56 2    
   113   55   57 1    
   114   57   58 1    
   115   57   59 1    
   116   57  180 1    
   117   58  181 1    
   118   58  182 1    
   119   58  183 1    
   120   59   60 am   BACKBONE|DICT|INTERRES
   121   59  184 1    
   122   60   61 2    
   123   60   62 1    
   124   62   63 1    
   125   62   64 1    
   126   62  185 1    
   127   63  186 1    
   128   63  187 1    
   129   63  188 1    
   130   64   65 am   BACKBONE|DICT|INTERRES
   131   64  189 1    
   132   65   66 2    
   133   67   68 2    
   134   67   69 am   BACKBONE|DICT|INTERRES
   135   69   70 1    
   136   69  190 1    
   137   70   71 1    
   138   70   72 1    
   139   70  191 1    
   140   71  192 1    
   141   71  193 1    
   142   71  194 1    
   143   72   73 2    
   144   72   74 am   BACKBONE|DICT|INTERRES
   145   74   75 1    
   146   74  195 1    
   147   75   76 1    
   148   75   77 1    
   149   75  196 1    
   150   76  197 1    
   151   76  198 1    
   152   76  199 1    
   153   77   78 2    
   154   77   79 am   BACKBONE|DICT|INTERRES
   155   79   80 1    
   156   79  200 1    
   157   80   81 1    
   158   80   82 1    
   159   80  201 1    
   160   81  202 1    
   161   81  203 1    
   162   81  204 1    
   163   82   83 2    
   164   82   84 am   BACKBONE|DICT|INTERRES
   165   84   85 1    
   166   84  205 1    
   167   85   86 1    
   168   85   87 1    
   169   85  206 1    
   170   86  207 1    
   171   86  208 1    
   172   86  209 1    
   173   87   88 2    
   174   87   89 am   BACKBONE|DICT|INTERRES
   175   89   90 1    
   176   89  210 1    
   177   90   91 1    
   178   90   92 1    
   179   90  211 1    
   180   91  212 1    
   181   91  213 1    
   182   91  214 1    
   183   92   93 2    
   184   92   94 am   BACKBONE|DICT|INTERRES
   185   94   95 1    
   186   94  215 1    
   187   95   96 1    
   188   95   97 1    
   189   95  216 1    
   190   96  217 1    
   191   96  218 1    
   192   96  219 1    
   193   97   98 2    
   194   97   99 am   BACKBONE|DICT|INTERRES
   195   99  100 1    
   196   99  220 1    
   197  100  101 1    
   198  100  102 1    
   199  100  221 1    
   200  101  222 1    
   201  101  223 1    
   202  101  224 1    
   203  102  103 2    
   204  102  104 am   BACKBONE|DICT|INTERRES
   205  104  105 1    
   206  104  225 1    
   207  105  106 1    
   208  105  107 1    
   209  105  226 1    
   210  106  227 1    
   211  106  228 1    
   212  106  229 1    
   213  107  108 2    
   214  107  109 am   BACKBONE|DICT|INTERRES
   215  109  110 1    
   216  109  230 1    
   217  110  111 1    
   218  110  112 1    
   219  110  231 1    
   220  111  232 1    
   221  111  233 1    
   222  111  234 1    
   223  112  113 2    
   224  112  114 am   BACKBONE|DICT|INTERRES
   225  114  115 1    
   226  114  235 1    
   227  115  116 1    
   228  115  117 1    
   229  115  236 1    
   230  116  237 1    
   231  116  238 1    
   232  116  239 1    
   233  117  118 2    
   234  117  119 am   BACKBONE|DICT|INTERRES
   235  119  120 1    
   236  119  240 1    
   237  120  121 1    
   238  120  124 1    
   239  120  241 1    
   240  121  122 am   BACKBONE|DICT|INTERRES
   241  121  123 2    
   242  122  242 1    
   243  122  243 1    
   244  124  125 1    
   245  124  244 1    
   246  124  245 1    
   247  125  126 1    
   248  126  246 1    
   249  126  247 1    
@<TRIPOS>SUBSTRUCTURE
     1 UNK         1 GROUP             0       ****    0 ROOT    
