@<TRIPOS>MOLECULE
3R540
247   249    1
SMALL
USER_CHARGES


@<TRIPOS>ATOM
      1 CA          0.1377  -15.0213  -52.9545 C.3       0 UNK        -0.1800 
      2 C           1.3098  -15.4642  -52.0912 C.2       0 UNK         0.5000 
      3 O           1.1120  -16.2104  -51.1357 O.2       0 UNK        -0.5000 
      4 N           2.5249  -15.0007  -52.4139 N.am      1 UNK        -0.5000 
      5 CA          3.8146  -15.3072  -51.7676 C.3       1 UNK         0.1400 
      6 C6          4.1737  -16.8194  -51.6990 C.3       23 UNK        -0.0398 
      7 S7          3.8704  -17.7523  -53.2491 S.3       23 UNK        -0.2404 
      8 C8          3.7566  -19.4951  -52.6939 C.3       23 UNK        -0.0205 
      9 C9          2.9571  -19.6592  -51.4083 C.ar      23 UNK        -0.0193 
     10 C10         1.5828  -19.4164  -51.3911 C.ar      23 UNK        -0.1150 
     11 C11         0.8626  -19.4274  -50.1900 C.ar      23 UNK        -0.0193 
     12 C12         1.5450  -19.7033  -48.9956 C.ar      23 UNK        -0.1150 
     13 C13         2.9242  -19.9480  -49.0025 C.ar      23 UNK        -0.0193 
     14 C14         3.6167  -19.9478  -50.2138 C.ar      23 UNK        -0.1150 
     15 C15         3.7070  -20.1138  -47.7089 C.3       23 UNK        -0.0205 
     16 S16         3.7839  -21.8464  -47.1561 S.3       23 UNK        -0.2404 
     17 C17         2.6356  -21.8104  -45.7412 C.3       23 UNK        -0.0398 
     18 CA          1.6374  -22.9866  -45.7026 C.3       11 UNK         0.1400 
     19 N           0.8988  -23.0013  -44.4412 N.am      11 UNK        -0.5000 
     20 C           0.2154  -24.0486  -43.9621 C.2       10 UNK         0.5000 
     21 O           0.2245  -25.1668  -44.4759 O.2       10 UNK        -0.5000 
     22 CA         -0.6484  -23.7854  -42.7131 C.3       10 UNK         0.1400 
     23 CB          0.1520  -24.0686  -41.4333 C.3       10 UNK        -0.1800 
     24 N          -1.1673  -22.4145  -42.6645 N.am      10 UNK        -0.5000 
     25 C          -2.0852  -21.9250  -43.5107 C.2       9 UNK         0.5000 
     26 O          -2.6206  -22.5947  -44.3933 O.2       9 UNK        -0.5000 
     27 CA         -2.4211  -20.4269  -43.3836 C.3       9 UNK         0.1400 
     28 CB         -3.5558  -20.2027  -42.3746 C.3       9 UNK        -0.1800 
     29 N          -1.2679  -19.6058  -43.0068 N.am      9 UNK        -0.5000 
     30 C          -0.1953  -19.3921  -43.7800 C.2       8 UNK         0.5000 
     31 O          -0.0603  -19.9048  -44.8920 O.2       8 UNK        -0.5000 
     32 CA          0.8927  -18.4551  -43.2129 C.3       8 UNK         0.1400 
     33 CB          1.9734  -18.0908  -44.2485 C.3       8 UNK        -0.1800 
     34 N           0.3120  -17.2230  -42.6743 N.am      8 UNK        -0.5000 
     35 C          -0.1651  -17.0768  -41.4297 C.2       7 UNK         0.5000 
     36 O          -0.2003  -18.0054  -40.6209 O.2       7 UNK        -0.5000 
     37 CA         -0.7564  -15.7083  -41.0292 C.3       7 UNK         0.1400 
     38 CB         -0.3802  -15.3025  -39.5890 C.3       7 UNK        -0.1800 
     39 N          -0.4826  -14.6260  -41.9810 N.am      7 UNK        -0.5000 
     40 C           0.6905  -14.0338  -42.2561 C.2       6 UNK         0.5000 
     41 O           1.7466  -14.3198  -41.6911 O.2       6 UNK        -0.5000 
     42 CA          0.6898  -12.9583  -43.3644 C.3       6 UNK         0.1400 
     43 CB          1.9158  -13.1078  -44.2802 C.3       6 UNK        -0.1800 
     44 N          -0.5185  -13.0397  -44.1878 N.am      6 UNK        -0.5000 
     45 C          -1.5802  -12.2254  -44.1064 C.2       5 UNK         0.5000 
     46 O          -1.6284  -11.2362  -43.3752 O.2       5 UNK        -0.5000 
     47 CA         -2.8183  -12.6021  -44.9506 C.3       5 UNK         0.1400 
     48 CB         -2.7841  -11.8846  -46.3083 C.3       5 UNK        -0.1800 
     49 N          -2.9445  -14.0424  -45.1843 N.am      5 UNK        -0.5000 
     50 C          -3.1091  -14.9742  -44.2340 C.2       4 UNK         0.5000 
     51 O          -3.2984  -14.7074  -43.0483 O.2       4 UNK        -0.5000 
     52 CA         -2.9634  -16.4505  -44.6602 C.3       4 UNK         0.1400 
     53 CB         -4.3404  -17.1227  -44.7381 C.3       4 UNK        -0.1800 
     54 N          -2.2408  -16.6332  -45.9273 N.am      4 UNK        -0.5000 
     55 C          -0.9665  -16.2644  -46.1321 C.2       3 UNK         0.5000 
     56 O          -0.2589  -15.7908  -45.2391 O.2       3 UNK        -0.5000 
     57 CA         -0.4248  -16.4365  -47.5659 C.3       3 UNK         0.1400 
     58 CB         -1.3511  -15.7750  -48.6100 C.3       3 UNK        -0.1800 
     59 N           0.9483  -15.9588  -47.7579 N.am      3 UNK        -0.5000 
     60 C           1.3930  -14.6941  -47.6820 C.2       2 UNK         0.5000 
     61 O           0.7002  -13.7247  -47.3711 O.2       2 UNK        -0.5000 
     62 CA          2.8489  -14.4796  -48.1170 C.3       2 UNK         0.1400 
     63 CB          3.8437  -15.1918  -47.1797 C.3       2 UNK        -0.1800 
     64 N           2.9857  -14.9669  -49.4855 N.am      2 UNK        -0.5000 
     65 C           3.9442  -14.6639  -50.3662 C.2       1 UNK         0.5000 
     66 O           4.8905  -13.9146  -50.1205 O.2       1 UNK        -0.5000 
     67 C           0.6519  -22.9580  -46.8854 C.2       11 UNK         0.5000 
     68 O           0.7750  -23.7778  -47.7946 O.2       11 UNK        -0.5000 
     69 N          -0.3443  -22.0604  -46.8179 N.am      12 UNK        -0.5000 
     70 CA         -1.4029  -21.9011  -47.8163 C.3       12 UNK         0.1400 
     71 CB         -2.3607  -20.7869  -47.3819 C.3       12 UNK        -0.1800 
     72 C          -2.1901  -23.1927  -48.0864 C.2       12 UNK         0.5000 
     73 O          -2.4761  -23.4948  -49.2456 O.2       12 UNK        -0.5000 
     74 N          -2.4760  -23.9470  -47.0153 N.am      13 UNK        -0.5000 
     75 CA         -3.1175  -25.2627  -47.0334 C.3       13 UNK         0.1400 
     76 CB         -3.2866  -25.7604  -45.5903 C.3       13 UNK        -0.1800 
     77 C          -2.3744  -26.3126  -47.8823 C.2       13 UNK         0.5000 
     78 O          -3.0249  -27.1600  -48.4940 O.2       13 UNK        -0.5000 
     79 N          -1.0383  -26.2305  -47.9160 N.am      14 UNK        -0.5000 
     80 CA         -0.1833  -27.0808  -48.7404 C.3       14 UNK         0.1400 
     81 CB          1.1622  -27.2865  -48.0265 C.3       14 UNK        -0.1800 
     82 C           0.0312  -26.4827  -50.1419 C.2       14 UNK         0.5000 
     83 O           0.0570  -27.2314  -51.1194 O.2       14 UNK        -0.5000 
     84 N           0.2003  -25.1548  -50.2133 N.am      15 UNK        -0.5000 
     85 CA          0.5268  -24.4148  -51.4315 C.3       15 UNK         0.1400 
     86 CB          0.9258  -22.9765  -51.0684 C.3       15 UNK        -0.1800 
     87 C          -0.5963  -24.4124  -52.4831 C.2       15 UNK         0.5000 
     88 O          -0.3014  -24.5810  -53.6677 O.2       15 UNK        -0.5000 
     89 N          -1.8495  -24.2193  -52.0487 N.am      16 UNK        -0.5000 
     90 CA         -3.0055  -24.1273  -52.9479 C.3       16 UNK         0.1400 
     91 CB         -3.0817  -22.7134  -53.5570 C.3       16 UNK        -0.1800 
     92 C          -4.3479  -24.4826  -52.2880 C.2       16 UNK         0.5000 
     93 O          -5.2971  -24.7805  -53.0137 O.2       16 UNK        -0.5000 
     94 N          -4.4305  -24.4066  -50.9506 N.am      17 UNK        -0.5000 
     95 CA         -5.6509  -24.4987  -50.1379 C.3       17 UNK         0.1400 
     96 CB         -6.3015  -25.8939  -50.2378 C.3       17 UNK        -0.1800 
     97 C          -6.6298  -23.3349  -50.4035 C.2       17 UNK         0.5000 
     98 O          -7.8446  -23.5027  -50.2871 O.2       17 UNK        -0.5000 
     99 N          -6.0657  -22.1696  -50.7476 N.am      18 UNK        -0.5000 
    100 CA        -6.7815  -20.9499  -51.1242 C.3       18 UNK         0.1400 
    101 CB        -6.2796  -20.5127  -52.5067 C.3       18 UNK        -0.1800 
    102 C         -6.6159  -19.8247  -50.0827 C.2       18 UNK         0.5000 
    103 O         -6.9986  -18.6865  -50.3593 O.2       18 UNK        -0.5000 
    104 N         -6.0597  -20.1598  -48.9080 N.am      19 UNK        -0.5000 
    105 CA        -5.8703  -19.3161  -47.7244 C.3       19 UNK         0.1400 
    106 CB        -7.2255  -19.0341  -47.0410 C.3       19 UNK        -0.1800 
    107 C         -5.0600  -18.0362  -48.0092 C.2       19 UNK         0.5000 
    108 O         -3.8329  -18.0647  -47.9289 O.2       19 UNK        -0.5000 
    109 N         -5.7516  -16.9266  -48.2867 N.am      20 UNK        -0.5000 
    110 CA        -5.1552  -15.6206  -48.5582 C.3       20 UNK         0.1400 
    111 CB        -6.1065  -14.5337  -48.0335 C.3       20 UNK        -0.1800 
    112 C         -4.8455  -15.3952  -50.0518 C.2       20 UNK         0.5000 
    113 O         -4.1835  -14.4082  -50.3730 O.2       20 UNK        -0.5000 
    114 N         -5.3436  -16.2704  -50.9367 N.am      21 UNK        -0.5000 
    115 CA        -5.3775  -16.0527  -52.3819 C.3       21 UNK         0.1400 
    116 CB        -6.8320  -15.7523  -52.7924 C.3       21 UNK        -0.1800 
    117 C         -4.7693  -17.2316  -53.1620 C.2       21 UNK         0.5000 
    118 O         -5.4052  -17.7457  -54.0835 O.2       21 UNK        -0.5000 
    119 N         -3.5347  -17.6257  -52.8149 N.am      22 UNK        -0.5000 
    120 CA        -2.7453  -18.6134  -53.5835 C.3       22 UNK         0.1400 
    121 C         -2.3821  -18.1736  -55.0366 C.2       22 UNK         0.5000 
    122 N         -2.4170  -16.8904  -55.3774 N.am      22 UNK        -0.7600 
    123 O         -2.0603  -19.0163  -55.8694 O.2       22 UNK        -0.5000 
    124 C124       -1.4497  -19.0467  -52.8533 C.3       23 UNK        -0.0398 
    125 S125       -1.7142  -19.9304  -51.2786 S.3       23 UNK        -0.2404 
    126 C126       -0.6119  -19.0152  -50.1508 C.3       23 UNK        -0.0205 
    127 H127        0.4239  -14.2361  -53.6543 H         1 UNK         0.0600 
    128 H128       -0.6684  -14.6412  -52.3267 H         1 UNK         0.0600 
    129 H129       -0.2431  -15.8667  -53.5267 H         1 UNK         0.0600 
    130 H130        2.5983  -14.3720  -53.2011 H         1 UNK         0.3000 
    131 H131        4.5659  -14.8311  -52.3995 H         1 UNK         0.0600 
    132 H132        5.2235  -16.9448  -51.4292 H         1 UNK         0.0800 
    133 H133        3.6039  -17.2730  -50.8908 H         1 UNK         0.0800 
    134 H134        3.2956  -20.0902  -53.4832 H         1 UNK         0.0800 
    135 H135        4.7668  -19.8875  -52.5677 H         1 UNK         0.0800 
    136 H136        1.1039  -19.1516  -52.3176 H         1 UNK         0.1150 
    137 H137        1.0157  -19.6822  -48.0533 H         1 UNK         0.1150 
    138 H138        4.6856  -20.1087  -50.2179 H         1 UNK         0.1150 
    139 H139        4.7301  -19.7640  -47.8550 H         1 UNK         0.0800 
    140 H140        3.2949  -19.4626  -46.9377 H         1 UNK         0.0800 
    141 H141        3.2428  -21.8129  -44.8350 H         1 UNK         0.0800 
    142 H142        2.0937  -20.8679  -45.7352 H         1 UNK         0.0800 
    143 H143        2.2089  -23.9153  -45.7682 H         1 UNK         0.0600 
    144 H144        0.8010  -22.1159  -43.9682 H         1 UNK         0.3000 
    145 H145       -1.4971  -24.4721  -42.7465 H         1 UNK         0.0600 
    146 H146       -0.4702  -23.9536  -40.5455 H         1 UNK         0.0600 
    147 H147        0.5342  -25.0903  -41.4305 H         1 UNK         0.0600 
    148 H148        1.0066  -23.3981  -41.3345 H         1 UNK         0.0600 
    149 H149       -0.7821  -21.8021  -41.9606 H         1 UNK         0.3000 
    150 H150       -2.7666  -20.0840  -44.3604 H         1 UNK         0.0600 
    151 H151       -4.4409  -20.7784  -42.6486 H         1 UNK         0.0600 
    152 H152       -3.8499  -19.1537  -42.3387 H         1 UNK         0.0600 
    153 H153       -3.2653  -20.5044  -41.3675 H         1 UNK         0.0600 
    154 H154       -1.2838  -19.1751  -42.0904 H         1 UNK         0.3000 
    155 H155        1.3906  -18.9951  -42.4050 H         1 UNK         0.0600 
    156 H156        2.6557  -17.3349  -43.8592 H         1 UNK         0.0600 
    157 H157        1.5458  -17.7068  -45.1742 H         1 UNK         0.0600 
    158 H158        2.5757  -18.9618  -44.5028 H         1 UNK         0.0600 
    159 H159        0.2446  -16.4477  -43.3246 H         1 UNK         0.3000 
    160 H160       -1.8381  -15.8455  -41.0477 H         1 UNK         0.0600 
    161 H161        0.6993  -15.2379  -39.4518 H         1 UNK         0.0600 
    162 H162       -0.7541  -16.0301  -38.8678 H         1 UNK         0.0600 
    163 H163       -0.8118  -14.3370  -39.3253 H         1 UNK         0.0600 
    164 H164       -1.2944  -14.3146  -42.5007 H         1 UNK         0.3000 
    165 H165        0.7491  -11.9857  -42.8724 H         1 UNK         0.0600 
    166 H166        1.9553  -14.1028  -44.7235 H         1 UNK         0.0600 
    167 H167        1.8966  -12.3788  -45.0905 H         1 UNK         0.0600 
    168 H168        2.8440  -12.9554  -43.7283 H         1 UNK         0.0600 
    169 H169       -0.5573  -13.8416  -44.8096 H         1 UNK         0.3000 
    170 H170       -3.7049  -12.2710  -44.4060 H         1 UNK         0.0600 
    171 H171       -2.7187  -10.8037  -46.1773 H         1 UNK         0.0600 
    172 H172       -1.9250  -12.1957  -46.9050 H         1 UNK         0.0600 
    173 H173       -3.6861  -12.0874  -46.8861 H         1 UNK         0.0600 
    174 H174       -2.7791  -14.3567  -46.1277 H         1 UNK         0.3000 
    175 H175       -2.3891  -16.9559  -43.8819 H         1 UNK         0.0600 
    176 H176       -4.9914  -16.6194  -45.4527 H         1 UNK         0.0600 
    177 H177       -4.2565  -18.1700  -45.0269 H         1 UNK         0.0600 
    178 H178       -4.8412  -17.0944  -43.7695 H         1 UNK         0.0600 
    179 H179       -2.7587  -17.0721  -46.6851 H         1 UNK         0.3000 
    180 H180       -0.3908  -17.5080  -47.7500 H         1 UNK         0.0600 
    181 H181       -0.8502  -15.6344  -49.5660 H         1 UNK         0.0600 
    182 H182       -1.7021  -14.7946  -48.2854 H         1 UNK         0.0600 
    183 H183       -2.2194  -16.3942  -48.8136 H         1 UNK         0.0600 
    184 H184        1.6160  -16.6722  -48.0099 H         1 UNK         0.3000 
    185 H185        3.0515  -13.4067  -48.1016 H         1 UNK         0.0600 
    186 H186        4.8742  -14.9679  -47.4554 H         1 UNK         0.0600 
    187 H187        3.7104  -14.8681  -46.1476 H         1 UNK         0.0600 
    188 H188        3.7227  -16.2754  -47.2033 H         1 UNK         0.0600 
    189 H189        2.2074  -15.5248  -49.8369 H         1 UNK         0.3000 
    190 H190       -0.3540  -21.4004  -46.0456 H         1 UNK         0.3000 
    191 H191       -0.9228  -21.6000  -48.7468 H         1 UNK         0.0600 
    192 H192       -1.8276  -19.8793  -47.0992 H         1 UNK         0.0600 
    193 H193       -3.0314  -20.5345  -48.2031 H         1 UNK         0.0600 
    194 H194       -2.9798  -21.0841  -46.5367 H         1 UNK         0.0600 
    195 H195       -2.2565  -23.5694  -46.0984 H         1 UNK         0.3000 
    196 H196       -4.1127  -25.1408  -47.4569 H         1 UNK         0.0600 
    197 H197       -3.7937  -26.7258  -45.5661 H         1 UNK         0.0600 
    198 H198       -3.8840  -25.0652  -45.0001 H         1 UNK         0.0600 
    199 H199       -2.3249  -25.8822  -45.0917 H         1 UNK         0.0600 
    200 H200       -0.5813  -25.4769  -47.4181 H         1 UNK         0.3000 
    201 H201       -0.6489  -28.0614  -48.8608 H         1 UNK         0.0600 
    202 H202        1.0220  -27.7496  -47.0497 H         1 UNK         0.0600 
    203 H203        1.6907  -26.3445  -47.8760 H         1 UNK         0.0600 
    204 H204        1.8151  -27.9400  -48.6064 H         1 UNK         0.0600 
    205 H205        0.2252  -24.6238  -49.3463 H         1 UNK         0.3000 
    206 H206        1.3972  -24.8966  -51.8815 H         1 UNK         0.0600 
    207 H207        1.7591  -22.9558  -50.3654 H         1 UNK         0.0600 
    208 H208        1.2348  -22.4205  -51.9542 H         1 UNK         0.0600 
    209 H209        0.0960  -22.4332  -50.6189 H         1 UNK         0.0600 
    210 H210       -2.0041  -24.0775  -51.0561 H         1 UNK         0.3000 
    211 H211       -2.8725  -24.8459  -53.7595 H         1 UNK         0.0600 
    212 H212       -3.2348  -21.9591  -52.7859 H         1 UNK         0.0600 
    213 H213       -3.9109  -22.6320  -54.2609 H         1 UNK         0.0600 
    214 H214       -2.1723  -22.4571  -54.1003 H         1 UNK         0.0600 
    215 H215       -3.6063  -24.1313  -50.4209 H         1 UNK         0.3000 
    216 H216       -5.3333  -24.3635  -49.1063 H         1 UNK         0.0600 
    217 H217       -5.5742  -26.6807  -50.0369 H         1 UNK         0.0600 
    218 H218       -6.7312  -26.0754  -51.2229 H         1 UNK         0.0600 
    219 H219       -7.1048  -26.0023  -49.5083 H         1 UNK         0.0600 
    220 H220       -5.0588  -22.1324  -50.8149 H         1 UNK         0.3000 
    221 H221       -7.8522  -21.1470  -51.2031 H         1 UNK         0.0600 
    222 H222       -5.2295  -20.2246  -52.4740 H         1 UNK         0.0600 
    223 H223       -6.3848  -21.3138  -53.2386 H         1 UNK         0.0600 
    224 H224       -6.8499  -19.6607  -52.8775 H         1 UNK         0.0600 
    225 H225       -5.7676  -21.1199  -48.8040 H         1 UNK         0.3000 
    226 H226       -5.2738  -19.9001  -47.0222 H         1 UNK         0.0600 
    227 H227       -7.6896  -19.9615  -46.7050 H         1 UNK         0.0600 
    228 H228       -7.0979  -18.4023  -46.1608 H         1 UNK         0.0600 
    229 H229       -7.9325  -18.5378  -47.7063 H         1 UNK         0.0600 
    230 H230       -6.7558  -16.9956  -48.3734 H         1 UNK         0.3000 
    231 H231       -4.2196  -15.5238  -48.0067 H         1 UNK         0.0600 
    232 H232       -5.6848  -13.5384  -48.1803 H         1 UNK         0.0600 
    233 H233       -6.2879  -14.6519  -46.9649 H         1 UNK         0.0600 
    234 H234       -7.0699  -14.5614  -48.5439 H         1 UNK         0.0600 
    235 H235       -5.8548  -17.0820  -50.6002 H         1 UNK         0.3000 
    236 H236       -4.7774  -15.1824  -52.6542 H         1 UNK         0.0600 
    237 H237       -6.9068  -15.5431  -53.8602 H         1 UNK         0.0600 
    238 H238       -7.4909  -16.5934  -52.5719 H         1 UNK         0.0600 
    239 H239       -7.2173  -14.8791  -52.2656 H         1 UNK         0.0600 
    240 H240       -3.0763  -17.1826  -52.0327 H         1 UNK         0.3000 
    241 H241       -3.3671  -19.5026  -53.6956 H         1 UNK         0.0600 
    242 H242       -2.6833  -16.1838  -54.7123 H         1 UNK         0.3800 
    243 H243       -2.1840  -16.6257  -56.3216 H         1 UNK         0.3800 
    244 H244       -0.8291  -18.1660  -52.6844 H         1 UNK         0.0800 
    245 H245       -0.8639  -19.7195  -53.4829 H         1 UNK         0.0800 
    246 H246       -0.6892  -17.9493  -50.3584 H         1 UNK         0.0800 
    247 H247       -1.0084  -19.1501  -49.1482 H         1 UNK         0.0800 
@<TRIPOS>BOND
     1    1    2 1    
     2    1  127 1    
     3    1  128 1    
     4    1  129 1    
     5    2    3 2    
     6    2    4 am   BACKBONE|DICT|INTERRES
     7    4    5 1    
     8    4  130 1    
     9    5    6 1    
    10    5   65 1    
    11    5  131 1    
    12    6    7 1    
    13    6  132 1    
    14    6  133 1    
    15    7    8 1    
    16    8    9 1    
    17    8  134 1    
    18    8  135 1    
    19    9   10 ar   
    20    9   14 ar   
    21   10   11 ar   
    22   10  136 1    
    23   11   12 ar   
    24   11  126 1    
    25   12   13 ar   
    26   12  137 1    
    27   13   14 ar   
    28   13   15 1    
    29   14  138 1    
    30   15   16 1    
    31   15  139 1    
    32   15  140 1    
    33   16   17 1    
    34   17   18 1    
    35   17  141 1    
    36   17  142 1    
    37   18   19 1    
    38   18   67 1    
    39   18  143 1    
    40   19   20 am   BACKBONE|DICT|INTERRES
    41   19  144 1    
    42   20   21 2    
    43   20   22 1    
    44   22   23 1    
    45   22   24 1    
    46   22  145 1    
    47   23  146 1    
    48   23  147 1    
    49   23  148 1    
    50   24   25 am   BACKBONE|DICT|INTERRES
    51   24  149 1    
    52   25   26 2    
    53   25   27 1    
    54   27   28 1    
    55   27   29 1    
    56   27  150 1    
    57   28  151 1    
    58   28  152 1    
    59   28  153 1    
    60   29   30 am   BACKBONE|DICT|INTERRES
    61   29  154 1    
    62   30   31 2    
    63   30   32 1    
    64   32   33 1    
    65   32   34 1    
    66   32  155 1    
    67   33  156 1    
    68   33  157 1    
    69   33  158 1    
    70   34   35 am   BACKBONE|DICT|INTERRES
    71   34  159 1    
    72   35   36 2    
    73   35   37 1    
    74   37   38 1    
    75   37   39 1    
    76   37  160 1    
    77   38  161 1    
    78   38  162 1    
    79   38  163 1    
    80   39   40 am   BACKBONE|DICT|INTERRES
    81   39  164 1    
    82   40   41 2    
    83   40   42 1    
    84   42   43 1    
    85   42   44 1    
    86   42  165 1    
    87   43  166 1    
    88   43  167 1    
    89   43  168 1    
    90   44   45 am   BACKBONE|DICT|INTERRES
    91   44  169 1    
    92   45   46 2    
    93   45   47 1    
    94   47   48 1    
    95   47   49 1    
    96   47  170 1    
    97   48  171 1    
    98   48  172 1    
    99   48  173 1    
   100   49   50 am   BACKBONE|DICT|INTERRES
   101   49  174 1    
   102   50   51 2    
   103   50   52 1    
   104   52   53 1    
   105   52   54 1    
   106   52  175 1    
   107   53  176 1    
   108   53  177 1    
   109   53  178 1    
   110   54   55 am   BACKBONE|DICT|INTERRES
   111   54  179 1    
   112   55   56 2    
   113   55   57 1    
   114   57   58 1    
   115   57   59 1    
   116   57  180 1    
   117   58  181 1    
   118   58  182 1    
   119   58  183 1    
   120   59   60 am   BACKBONE|DICT|INTERRES
   121   59  184 1    
   122   60   61 2    
   123   60   62 1    
   124   62   63 1    
   125   62   64 1    
   126   62  185 1    
   127   63  186 1    
   128   63  187 1    
   129   63  188 1    
   130   64   65 am   BACKBONE|DICT|INTERRES
   131   64  189 1    
   132   65   66 2    
   133   67   68 2    
   134   67   69 am   BACKBONE|DICT|INTERRES
   135   69   70 1    
   136   69  190 1    
   137   70   71 1    
   138   70   72 1    
   139   70  191 1    
   140   71  192 1    
   141   71  193 1    
   142   71  194 1    
   143   72   73 2    
   144   72   74 am   BACKBONE|DICT|INTERRES
   145   74   75 1    
   146   74  195 1    
   147   75   76 1    
   148   75   77 1    
   149   75  196 1    
   150   76  197 1    
   151   76  198 1    
   152   76  199 1    
   153   77   78 2    
   154   77   79 am   BACKBONE|DICT|INTERRES
   155   79   80 1    
   156   79  200 1    
   157   80   81 1    
   158   80   82 1    
   159   80  201 1    
   160   81  202 1    
   161   81  203 1    
   162   81  204 1    
   163   82   83 2    
   164   82   84 am   BACKBONE|DICT|INTERRES
   165   84   85 1    
   166   84  205 1    
   167   85   86 1    
   168   85   87 1    
   169   85  206 1    
   170   86  207 1    
   171   86  208 1    
   172   86  209 1    
   173   87   88 2    
   174   87   89 am   BACKBONE|DICT|INTERRES
   175   89   90 1    
   176   89  210 1    
   177   90   91 1    
   178   90   92 1    
   179   90  211 1    
   180   91  212 1    
   181   91  213 1    
   182   91  214 1    
   183   92   93 2    
   184   92   94 am   BACKBONE|DICT|INTERRES
   185   94   95 1    
   186   94  215 1    
   187   95   96 1    
   188   95   97 1    
   189   95  216 1    
   190   96  217 1    
   191   96  218 1    
   192   96  219 1    
   193   97   98 2    
   194   97   99 am   BACKBONE|DICT|INTERRES
   195   99  100 1    
   196   99  220 1    
   197  100  101 1    
   198  100  102 1    
   199  100  221 1    
   200  101  222 1    
   201  101  223 1    
   202  101  224 1    
   203  102  103 2    
   204  102  104 am   BACKBONE|DICT|INTERRES
   205  104  105 1    
   206  104  225 1    
   207  105  106 1    
   208  105  107 1    
   209  105  226 1    
   210  106  227 1    
   211  106  228 1    
   212  106  229 1    
   213  107  108 2    
   214  107  109 am   BACKBONE|DICT|INTERRES
   215  109  110 1    
   216  109  230 1    
   217  110  111 1    
   218  110  112 1    
   219  110  231 1    
   220  111  232 1    
   221  111  233 1    
   222  111  234 1    
   223  112  113 2    
   224  112  114 am   BACKBONE|DICT|INTERRES
   225  114  115 1    
   226  114  235 1    
   227  115  116 1    
   228  115  117 1    
   229  115  236 1    
   230  116  237 1    
   231  116  238 1    
   232  116  239 1    
   233  117  118 2    
   234  117  119 am   BACKBONE|DICT|INTERRES
   235  119  120 1    
   236  119  240 1    
   237  120  121 1    
   238  120  124 1    
   239  120  241 1    
   240  121  122 am   BACKBONE|DICT|INTERRES
   241  121  123 2    
   242  122  242 1    
   243  122  243 1    
   244  124  125 1    
   245  124  244 1    
   246  124  245 1    
   247  125  126 1    
   248  126  246 1    
   249  126  247 1    
@<TRIPOS>SUBSTRUCTURE
     1 UNK         1 GROUP             0       ****    0 ROOT    
