@<TRIPOS>MOLECULE
3R540
247   249    1
SMALL
USER_CHARGES


@<TRIPOS>ATOM
      1 CA          0.6711  -10.4391  -49.9110 C.3       0 UNK        -0.1800 
      2 C          -0.3983  -11.0005  -50.8462 C.2       0 UNK         0.5000 
      3 O          -1.0994  -10.2256  -51.4927 O.2       0 UNK        -0.5000 
      4 N          -0.5608  -12.3261  -50.9664 N.am      1 UNK        -0.5000 
      5 CA          0.1616  -13.3768  -50.2351 C.3       1 UNK         0.1400 
      6 C6          0.1362  -14.7234  -51.0114 C.3       23 UNK        -0.0398 
      7 S7          1.7335  -15.6117  -51.0021 S.3       23 UNK        -0.2404 
      8 C8          1.7076  -16.5760  -49.4543 C.3       23 UNK        -0.0205 
      9 C9          0.7004  -17.7146  -49.4735 C.ar      23 UNK        -0.0193 
     10 C10        -0.6147  -17.5025  -49.0518 C.ar      23 UNK        -0.1150 
     11 C11        -1.5353  -18.5525  -49.0363 C.ar      23 UNK        -0.0193 
     12 C12        -1.1187  -19.8349  -49.4037 C.ar      23 UNK        -0.1150 
     13 C13         0.1953  -20.0627  -49.8214 C.ar      23 UNK        -0.0193 
     14 C14         1.0954  -18.9942  -49.8721 C.ar      23 UNK        -0.1150 
     15 C15         0.6469  -21.4722  -50.1783 C.3       23 UNK        -0.0205 
     16 S16         2.0113  -22.0738  -49.1238 S.3       23 UNK        -0.2404 
     17 C17         1.4306  -21.6841  -47.4339 C.3       23 UNK        -0.0398 
     18 CA          0.8073  -22.8797  -46.6838 C.3       11 UNK         0.1400 
     19 N           0.6980  -22.5981  -45.2508 N.am      11 UNK        -0.5000 
     20 C           0.3586  -23.4933  -44.3140 C.2       10 UNK         0.5000 
     21 O           0.1136  -24.6744  -44.5543 O.2       10 UNK        -0.5000 
     22 CA          0.2177  -22.9677  -42.8752 C.3       10 UNK         0.1400 
     23 CB          1.5957  -22.7525  -42.2321 C.3       10 UNK        -0.1800 
     24 N          -0.5594  -21.7295  -42.8150 N.am      10 UNK        -0.5000 
     25 C          -1.8533  -21.6359  -43.1550 C.2       9 UNK         0.5000 
     26 O          -2.5422  -22.6015  -43.4870 O.2       9 UNK        -0.5000 
     27 CA         -2.4706  -20.2246  -43.1655 C.3       9 UNK         0.1400 
     28 CB         -2.8798  -19.7962  -41.7486 C.3       9 UNK        -0.1800 
     29 N          -1.5813  -19.2149  -43.7425 N.am      9 UNK        -0.5000 
     30 C          -1.1438  -19.2146  -45.0092 C.2       8 UNK         0.5000 
     31 O          -1.4637  -20.0592  -45.8423 O.2       8 UNK        -0.5000 
     32 CA         -0.1339  -18.1201  -45.3938 C.3       8 UNK         0.1400 
     33 CB         -0.8374  -16.7768  -45.6531 C.3       8 UNK        -0.1800 
     34 N           0.9083  -17.9618  -44.3785 N.am      8 UNK        -0.5000 
     35 C           1.8187  -18.9015  -44.0821 C.2       7 UNK         0.5000 
     36 O           1.9185  -19.9704  -44.6837 O.2       7 UNK        -0.5000 
     37 CA          2.7319  -18.6301  -42.8738 C.3       7 UNK         0.1400 
     38 CB          3.9723  -17.8251  -43.2824 C.3       7 UNK        -0.1800 
     39 N           2.0259  -17.9387  -41.7952 N.am      7 UNK        -0.5000 
     40 C           1.1036  -18.5261  -41.0191 C.2       6 UNK         0.5000 
     41 O           0.7845  -19.7107  -41.1183 O.2       6 UNK        -0.5000 
     42 CA          0.3811  -17.6338  -39.9932 C.3       6 UNK         0.1400 
     43 CB          1.1766  -17.5653  -38.6814 C.3       6 UNK        -0.1800 
     44 N           0.1319  -16.2761  -40.4800 N.am      6 UNK        -0.5000 
     45 C          -0.6127  -15.9715  -41.5513 C.2       5 UNK         0.5000 
     46 O          -1.1793  -16.8169  -42.2428 O.2       5 UNK        -0.5000 
     47 CA         -0.7412  -14.4846  -41.9307 C.3       5 UNK         0.1400 
     48 CB         -0.4315  -13.5173  -40.7670 C.3       5 UNK        -0.1800 
     49 N           0.0556  -14.1232  -43.1066 N.am      5 UNK        -0.5000 
     50 C           1.3829  -14.2513  -43.2754 C.2       4 UNK         0.5000 
     51 O           2.1096  -14.8808  -42.5051 O.2       4 UNK        -0.5000 
     52 CA          2.0217  -13.5392  -44.4924 C.3       4 UNK         0.1400 
     53 CB          2.5925  -14.5468  -45.5021 C.3       4 UNK        -0.1800 
     54 N           1.1069  -12.6297  -45.1883 N.am      4 UNK        -0.5000 
     55 C           0.6746  -11.4560  -44.6984 C.2       3 UNK         0.5000 
     56 O           1.0978  -10.9637  -43.6520 O.2       3 UNK        -0.5000 
     57 CA         -0.4385  -10.7170  -45.4744 C.3       3 UNK         0.1400 
     58 CB          0.1358   -9.4888  -46.1975 C.3       3 UNK        -0.1800 
     59 N          -1.1571  -11.5501  -46.4434 N.am      3 UNK        -0.5000 
     60 C          -1.8770  -12.6448  -46.1563 C.2       2 UNK         0.5000 
     61 O          -2.0637  -13.0546  -45.0100 O.2       2 UNK        -0.5000 
     62 CA         -2.4282  -13.4518  -47.3505 C.3       2 UNK         0.1400 
     63 CB         -3.9080  -13.1185  -47.5891 C.3       2 UNK        -0.1800 
     64 N          -1.6911  -13.2765  -48.6095 N.am      2 UNK        -0.5000 
     65 C          -0.3898  -13.5466  -48.8004 C.2       1 UNK         0.5000 
     66 O           0.3681  -13.8732  -47.8886 O.2       1 UNK        -0.5000 
     67 C          -0.5407  -23.3174  -47.2966 C.2       11 UNK         0.5000 
     68 O          -0.5623  -24.2673  -48.0806 O.2       11 UNK        -0.5000 
     69 N          -1.6441  -22.6679  -46.8953 N.am      12 UNK        -0.5000 
     70 CA         -3.0106  -23.0115  -47.2968 C.3       12 UNK         0.1400 
     71 CB         -4.0083  -22.0164  -46.6876 C.3       12 UNK        -0.1800 
     72 C          -3.4082  -24.4516  -46.9229 C.2       12 UNK         0.5000 
     73 O          -4.0766  -25.1215  -47.7094 O.2       12 UNK        -0.5000 
     74 N          -2.9724  -24.9038  -45.7403 N.am      13 UNK        -0.5000 
     75 CA         -3.1710  -26.2689  -45.2633 C.3       13 UNK         0.1400 
     76 CB         -3.0139  -26.2988  -43.7347 C.3       13 UNK        -0.1800 
     77 C          -2.2102  -27.2677  -45.9345 C.2       13 UNK         0.5000 
     78 O          -2.6455  -28.3445  -46.3444 O.2       13 UNK        -0.5000 
     79 N          -0.9215  -26.9089  -46.0072 N.am      14 UNK        -0.5000 
     80 CA          0.1557  -27.7903  -46.4553 C.3       14 UNK         0.1400 
     81 CB          1.5023  -27.2351  -45.9649 C.3       14 UNK        -0.1800 
     82 C           0.1963  -28.0146  -47.9764 C.2       14 UNK         0.5000 
     83 O           0.4021  -29.1504  -48.4074 O.2       14 UNK        -0.5000 
     84 N           0.0435  -26.9369  -48.7551 N.am      15 UNK        -0.5000 
     85 CA          0.2506  -26.9291  -50.2052 C.3       15 UNK         0.1400 
     86 CB          1.4776  -26.0575  -50.5215 C.3       15 UNK        -0.1800 
     87 C          -0.9686  -26.4138  -50.9835 C.2       15 UNK         0.5000 
     88 O          -1.1657  -26.8365  -52.1240 O.2       15 UNK        -0.5000 
     89 N          -1.7434  -25.5020  -50.3788 N.am      16 UNK        -0.5000 
     90 CA         -2.8570  -24.7386  -50.9539 C.3       16 UNK         0.1400 
     91 CB         -3.9855  -25.6429  -51.4901 C.3       16 UNK        -0.1800 
     92 C          -2.3736  -23.7091  -51.9900 C.2       16 UNK         0.5000 
     93 O          -2.4339  -22.5105  -51.7190 O.2       16 UNK        -0.5000 
     94 N          -1.8644  -24.2039  -53.1272 N.am      17 UNK        -0.5000 
     95 CA         -1.3528  -23.4570  -54.2801 C.3       17 UNK         0.1400 
     96 CB         -0.0735  -22.6832  -53.8862 C.3       17 UNK        -0.1800 
     97 C          -2.4275  -22.5591  -54.9359 C.2       17 UNK         0.5000 
     98 O          -3.6246  -22.8172  -54.7883 O.2       17 UNK        -0.5000 
     99 N          -1.9803  -21.5369  -55.6751 N.am      18 UNK        -0.5000 
    100 CA        -2.8204  -20.4522  -56.1751 C.3       18 UNK         0.1400 
    101 CB        -2.3031  -19.9810  -57.5465 C.3       18 UNK        -0.1800 
    102 C         -2.8235  -19.3313  -55.1255 C.2       18 UNK         0.5000 
    103 O         -3.8141  -19.1690  -54.4122 O.2       18 UNK        -0.5000 
    104 N         -1.6895  -18.6212  -55.0197 N.am      19 UNK        -0.5000 
    105 CA        -1.3910  -17.5710  -54.0423 C.3       19 UNK         0.1400 
    106 CB        -1.1405  -18.2075  -52.6605 C.3       19 UNK        -0.1800 
    107 C         -2.4525  -16.4489  -54.0459 C.2       19 UNK         0.5000 
    108 O         -2.6949  -15.8601  -55.1005 O.2       19 UNK        -0.5000 
    109 N         -3.0828  -16.1878  -52.8943 N.am      20 UNK        -0.5000 
    110 CA        -4.1655  -15.2179  -52.7188 C.3       20 UNK         0.1400 
    111 CB        -3.9490  -14.4818  -51.3831 C.3       20 UNK        -0.1800 
    112 C         -5.5463  -15.9047  -52.8081 C.2       20 UNK         0.5000 
    113 O         -6.4316  -15.6077  -52.0046 O.2       20 UNK        -0.5000 
    114 N         -5.6918  -16.8266  -53.7736 N.am      21 UNK        -0.5000 
    115 CA        -6.8218  -17.7439  -53.9749 C.3       21 UNK         0.1400 
    116 CB        -8.1179  -16.9796  -54.3182 C.3       21 UNK        -0.1800 
    117 C         -6.9718  -18.7166  -52.7864 C.2       21 UNK         0.5000 
    118 O         -8.0643  -18.8848  -52.2405 O.2       21 UNK        -0.5000 
    119 N         -5.8400  -19.3100  -52.3951 N.am      22 UNK        -0.5000 
    120 CA        -5.6826  -20.1542  -51.2012 C.3       22 UNK         0.1400 
    121 C         -5.9138  -21.6714  -51.4582 C.2       22 UNK         0.5000 
    122 N         -6.1411  -22.1120  -52.6891 N.am      22 UNK        -0.7600 
    123 O         -5.9108  -22.4616  -50.5185 O.2       22 UNK        -0.5000 
    124 C124       -4.3135  -19.9031  -50.5225 C.3       23 UNK        -0.0398 
    125 S125       -4.0864  -18.1559  -50.0378 S.3       23 UNK        -0.2404 
    126 C126       -2.9723  -18.2978  -48.6098 C.3       23 UNK        -0.0205 
    127 H127        0.4981   -9.3783  -49.7279 H         1 UNK         0.0600 
    128 H128        1.6578  -10.5452  -50.3619 H         1 UNK         0.0600 
    129 H129        0.6762  -10.9409  -48.9458 H         1 UNK         0.0600 
    130 H130       -1.2518  -12.6528  -51.6259 H         1 UNK         0.3000 
    131 H131        1.2016  -13.0573  -50.1444 H         1 UNK         0.0600 
    132 H132       -0.6790  -15.3735  -50.6976 H         1 UNK         0.0800 
    133 H133       -0.0659  -14.5341  -52.0668 H         1 UNK         0.0800 
    134 H134        1.5275  -15.9286  -48.5994 H         1 UNK         0.0800 
    135 H135        2.7070  -16.9838  -49.2960 H         1 UNK         0.0800 
    136 H136       -0.9233  -16.5185  -48.7314 H         1 UNK         0.1150 
    137 H137       -1.8163  -20.6586  -49.3618 H         1 UNK         0.1150 
    138 H138        2.1138  -19.1689  -50.1891 H         1 UNK         0.1150 
    139 H139       -0.1851  -22.1746  -50.1113 H         1 UNK         0.0800 
    140 H140        0.9746  -21.4859  -51.2178 H         1 UNK         0.0800 
    141 H141        0.7560  -20.8287  -47.4215 H         1 UNK         0.0800 
    142 H142        2.3174  -21.3509  -46.8939 H         1 UNK         0.0800 
    143 H143        1.4915  -23.7250  -46.7820 H         1 UNK         0.0600 
    144 H144        0.9070  -21.6461  -44.9650 H         1 UNK         0.3000 
    145 H145       -0.3126  -23.7257  -42.2948 H         1 UNK         0.0600 
    146 H146        1.5000  -22.4582  -41.1869 H         1 UNK         0.0600 
    147 H147        2.1655  -21.9782  -42.7460 H         1 UNK         0.0600 
    148 H148        2.1866  -23.6689  -42.2593 H         1 UNK         0.0600 
    149 H149       -0.0746  -20.9003  -42.4871 H         1 UNK         0.3000 
    150 H150       -3.3705  -20.2621  -43.7827 H         1 UNK         0.0600 
    151 H151       -3.5761  -20.5121  -41.3102 H         1 UNK         0.0600 
    152 H152       -3.3734  -18.8242  -41.7578 H         1 UNK         0.0600 
    153 H153       -2.0181  -19.7268  -41.0845 H         1 UNK         0.0600 
    154 H154       -1.3077  -18.4457  -43.1355 H         1 UNK         0.3000 
    155 H155        0.3425  -18.4339  -46.3253 H         1 UNK         0.0600 
    156 H156       -1.7380  -16.9156  -46.2480 H         1 UNK         0.0600 
    157 H157       -0.1965  -16.0936  -46.2068 H         1 UNK         0.0600 
    158 H158       -1.1413  -16.2800  -44.7339 H         1 UNK         0.0600 
    159 H159        0.8521  -17.1442  -43.7897 H         1 UNK         0.3000 
    160 H160        3.0735  -19.5967  -42.4971 H         1 UNK         0.0600 
    161 H161        3.7092  -16.8205  -43.6075 H         1 UNK         0.0600 
    162 H162        4.5027  -18.3105  -44.1027 H         1 UNK         0.0600 
    163 H163        4.6715  -17.7332  -42.4513 H         1 UNK         0.0600 
    164 H164        2.1965  -16.9447  -41.6940 H         1 UNK         0.3000 
    165 H165       -0.5867  -18.0927  -39.7815 H         1 UNK         0.0600 
    166 H166        0.6323  -17.0085  -37.9184 H         1 UNK         0.0600 
    167 H167        1.3604  -18.5644  -38.2840 H         1 UNK         0.0600 
    168 H168        2.1453  -17.0843  -38.8224 H         1 UNK         0.0600 
    169 H169        0.5877  -15.5243  -39.9838 H         1 UNK         0.3000 
    170 H170       -1.7847  -14.3343  -42.2119 H         1 UNK         0.0600 
    171 H171       -1.0361  -13.7493  -39.8892 H         1 UNK         0.0600 
    172 H172        0.6172  -13.5479  -40.4693 H         1 UNK         0.0600 
    173 H173       -0.6594  -12.4893  -41.0496 H         1 UNK         0.0600 
    174 H174       -0.4676  -13.6477  -43.8340 H         1 UNK         0.3000 
    175 H175        2.8549  -12.9453  -44.1113 H         1 UNK         0.0600 
    176 H176        1.8418  -15.2591  -45.8385 H         1 UNK         0.0600 
    177 H177        2.9891  -14.0420  -46.3833 H         1 UNK         0.0600 
    178 H178        3.4129  -15.1138  -45.0650 H         1 UNK         0.0600 
    179 H179        0.7304  -12.9637  -46.0696 H         1 UNK         0.3000 
    180 H180       -1.1676  -10.3702  -44.7394 H         1 UNK         0.0600 
    181 H181       -0.6388   -8.9469  -46.7405 H         1 UNK         0.0600 
    182 H182        0.9164   -9.7663  -46.9058 H         1 UNK         0.0600 
    183 H183        0.5786   -8.7914  -45.4852 H         1 UNK         0.0600 
    184 H184       -1.0606  -11.2946  -47.4138 H         1 UNK         0.3000 
    185 H185       -2.3587  -14.5069  -47.0790 H         1 UNK         0.0600 
    186 H186       -4.0402  -12.0855  -47.9133 H         1 UNK         0.0600 
    187 H187       -4.3421  -13.7685  -48.3489 H         1 UNK         0.0600 
    188 H188       -4.4921  -13.2544  -46.6778 H         1 UNK         0.0600 
    189 H189       -2.2325  -12.9573  -49.3991 H         1 UNK         0.3000 
    190 H190       -1.5421  -21.8472  -46.3017 H         1 UNK         0.3000 
    191 H191       -3.0603  -22.9047  -48.3793 H         1 UNK         0.0600 
    192 H192       -4.0323  -22.0793  -45.6003 H         1 UNK         0.0600 
    193 H193       -5.0188  -22.2098  -47.0497 H         1 UNK         0.0600 
    194 H194       -3.7606  -20.9929  -46.9544 H         1 UNK         0.0600 
    195 H195       -2.4439  -24.2790  -45.1441 H         1 UNK         0.3000 
    196 H196       -4.1922  -26.5760  -45.4993 H         1 UNK         0.0600 
    197 H197       -3.7381  -25.6418  -43.2526 H         1 UNK         0.0600 
    198 H198       -2.0185  -25.9815  -43.4223 H         1 UNK         0.0600 
    199 H199       -3.1759  -27.3046  -43.3452 H         1 UNK         0.0600 
    200 H200       -0.6375  -26.0182  -45.6058 H         1 UNK         0.3000 
    201 H201        0.0104  -28.7649  -45.9842 H         1 UNK         0.0600 
    202 H202        1.5252  -27.1609  -44.8775 H         1 UNK         0.0600 
    203 H203        1.7006  -26.2428  -46.3716 H         1 UNK         0.0600 
    204 H204        2.3266  -27.8840  -46.2637 H         1 UNK         0.0600 
    205 H205       -0.1457  -26.0362  -48.3219 H         1 UNK         0.3000 
    206 H206        0.4520  -27.9376  -50.5718 H         1 UNK         0.0600 
    207 H207        1.3388  -25.0301  -50.1819 H         1 UNK         0.0600 
    208 H208        2.3737  -26.4500  -50.0408 H         1 UNK         0.0600 
    209 H209        1.6710  -26.0255  -51.5946 H         1 UNK         0.0600 
    210 H210       -1.4397  -25.1732  -49.4666 H         1 UNK         0.3000 
    211 H211       -3.2899  -24.1701  -50.1348 H         1 UNK         0.0600 
    212 H212       -3.6768  -26.2439  -52.3449 H         1 UNK         0.0600 
    213 H213       -4.8361  -25.0402  -51.8103 H         1 UNK         0.0600 
    214 H214       -4.3427  -26.3202  -50.7144 H         1 UNK         0.0600 
    215 H215       -1.8207  -25.2144  -53.2009 H         1 UNK         0.3000 
    216 H216       -1.0778  -24.2050  -55.0247 H         1 UNK         0.0600 
    217 H217        0.4716  -22.3387  -54.7653 H         1 UNK         0.0600 
    218 H218        0.6097  -23.3147  -53.3177 H         1 UNK         0.0600 
    219 H219       -0.3038  -21.8090  -53.2758 H         1 UNK         0.0600 
    220 H220       -0.9826  -21.4018  -55.7458 H         1 UNK         0.3000 
    221 H221       -3.8499  -20.7923  -56.3060 H         1 UNK         0.0600 
    222 H222       -1.2491  -19.7031  -57.5223 H         1 UNK         0.0600 
    223 H223       -2.4177  -20.7668  -58.2933 H         1 UNK         0.0600 
    224 H224       -2.8662  -19.1157  -57.8991 H         1 UNK         0.0600 
    225 H225       -0.9513  -18.8113  -55.6811 H         1 UNK         0.3000 
    226 H226       -0.4585  -17.1034  -54.3613 H         1 UNK         0.0600 
    227 H227       -0.3376  -18.9430  -52.7093 H         1 UNK         0.0600 
    228 H228       -0.8375  -17.4587  -51.9309 H         1 UNK         0.0600 
    229 H229       -2.0232  -18.7161  -52.2756 H         1 UNK         0.0600 
    230 H230       -2.8829  -16.7726  -52.0943 H         1 UNK         0.3000 
    231 H231       -4.1315  -14.4711  -53.5146 H         1 UNK         0.0600 
    232 H232       -4.7015  -13.7066  -51.2337 H         1 UNK         0.0600 
    233 H233       -2.9758  -13.9948  -51.3599 H         1 UNK         0.0600 
    234 H234       -4.0035  -15.1621  -50.5329 H         1 UNK         0.0600 
    235 H235       -4.8815  -17.0214  -54.3469 H         1 UNK         0.3000 
    236 H236       -6.5667  -18.3569  -54.8406 H         1 UNK         0.0600 
    237 H237       -8.4799  -16.3871  -53.4778 H         1 UNK         0.0600 
    238 H238       -7.9670  -16.3075  -55.1627 H         1 UNK         0.0600 
    239 H239       -8.9142  -17.6723  -54.5928 H         1 UNK         0.0600 
    240 H240       -5.0019  -19.1606  -52.9514 H         1 UNK         0.3000 
    241 H241       -6.4500  -19.8672  -50.4798 H         1 UNK         0.0600 
    242 H242       -6.2886  -23.0949  -52.8484 H         1 UNK         0.3800 
    243 H243       -6.1039  -21.4779  -53.4706 H         1 UNK         0.3800 
    244 H244       -3.5023  -20.1853  -51.1937 H         1 UNK         0.0800 
    245 H245       -4.2139  -20.5291  -49.6344 H         1 UNK         0.0800 
    246 H246       -3.0403  -17.3661  -48.0489 H         1 UNK         0.0800 
    247 H247       -3.3126  -19.0792  -47.9342 H         1 UNK         0.0800 
@<TRIPOS>BOND
     1    1    2 1    
     2    1  127 1    
     3    1  128 1    
     4    1  129 1    
     5    2    3 2    
     6    2    4 am   BACKBONE|DICT|INTERRES
     7    4    5 1    
     8    4  130 1    
     9    5    6 1    
    10    5   65 1    
    11    5  131 1    
    12    6    7 1    
    13    6  132 1    
    14    6  133 1    
    15    7    8 1    
    16    8    9 1    
    17    8  134 1    
    18    8  135 1    
    19    9   10 ar   
    20    9   14 ar   
    21   10   11 ar   
    22   10  136 1    
    23   11   12 ar   
    24   11  126 1    
    25   12   13 ar   
    26   12  137 1    
    27   13   14 ar   
    28   13   15 1    
    29   14  138 1    
    30   15   16 1    
    31   15  139 1    
    32   15  140 1    
    33   16   17 1    
    34   17   18 1    
    35   17  141 1    
    36   17  142 1    
    37   18   19 1    
    38   18   67 1    
    39   18  143 1    
    40   19   20 am   BACKBONE|DICT|INTERRES
    41   19  144 1    
    42   20   21 2    
    43   20   22 1    
    44   22   23 1    
    45   22   24 1    
    46   22  145 1    
    47   23  146 1    
    48   23  147 1    
    49   23  148 1    
    50   24   25 am   BACKBONE|DICT|INTERRES
    51   24  149 1    
    52   25   26 2    
    53   25   27 1    
    54   27   28 1    
    55   27   29 1    
    56   27  150 1    
    57   28  151 1    
    58   28  152 1    
    59   28  153 1    
    60   29   30 am   BACKBONE|DICT|INTERRES
    61   29  154 1    
    62   30   31 2    
    63   30   32 1    
    64   32   33 1    
    65   32   34 1    
    66   32  155 1    
    67   33  156 1    
    68   33  157 1    
    69   33  158 1    
    70   34   35 am   BACKBONE|DICT|INTERRES
    71   34  159 1    
    72   35   36 2    
    73   35   37 1    
    74   37   38 1    
    75   37   39 1    
    76   37  160 1    
    77   38  161 1    
    78   38  162 1    
    79   38  163 1    
    80   39   40 am   BACKBONE|DICT|INTERRES
    81   39  164 1    
    82   40   41 2    
    83   40   42 1    
    84   42   43 1    
    85   42   44 1    
    86   42  165 1    
    87   43  166 1    
    88   43  167 1    
    89   43  168 1    
    90   44   45 am   BACKBONE|DICT|INTERRES
    91   44  169 1    
    92   45   46 2    
    93   45   47 1    
    94   47   48 1    
    95   47   49 1    
    96   47  170 1    
    97   48  171 1    
    98   48  172 1    
    99   48  173 1    
   100   49   50 am   BACKBONE|DICT|INTERRES
   101   49  174 1    
   102   50   51 2    
   103   50   52 1    
   104   52   53 1    
   105   52   54 1    
   106   52  175 1    
   107   53  176 1    
   108   53  177 1    
   109   53  178 1    
   110   54   55 am   BACKBONE|DICT|INTERRES
   111   54  179 1    
   112   55   56 2    
   113   55   57 1    
   114   57   58 1    
   115   57   59 1    
   116   57  180 1    
   117   58  181 1    
   118   58  182 1    
   119   58  183 1    
   120   59   60 am   BACKBONE|DICT|INTERRES
   121   59  184 1    
   122   60   61 2    
   123   60   62 1    
   124   62   63 1    
   125   62   64 1    
   126   62  185 1    
   127   63  186 1    
   128   63  187 1    
   129   63  188 1    
   130   64   65 am   BACKBONE|DICT|INTERRES
   131   64  189 1    
   132   65   66 2    
   133   67   68 2    
   134   67   69 am   BACKBONE|DICT|INTERRES
   135   69   70 1    
   136   69  190 1    
   137   70   71 1    
   138   70   72 1    
   139   70  191 1    
   140   71  192 1    
   141   71  193 1    
   142   71  194 1    
   143   72   73 2    
   144   72   74 am   BACKBONE|DICT|INTERRES
   145   74   75 1    
   146   74  195 1    
   147   75   76 1    
   148   75   77 1    
   149   75  196 1    
   150   76  197 1    
   151   76  198 1    
   152   76  199 1    
   153   77   78 2    
   154   77   79 am   BACKBONE|DICT|INTERRES
   155   79   80 1    
   156   79  200 1    
   157   80   81 1    
   158   80   82 1    
   159   80  201 1    
   160   81  202 1    
   161   81  203 1    
   162   81  204 1    
   163   82   83 2    
   164   82   84 am   BACKBONE|DICT|INTERRES
   165   84   85 1    
   166   84  205 1    
   167   85   86 1    
   168   85   87 1    
   169   85  206 1    
   170   86  207 1    
   171   86  208 1    
   172   86  209 1    
   173   87   88 2    
   174   87   89 am   BACKBONE|DICT|INTERRES
   175   89   90 1    
   176   89  210 1    
   177   90   91 1    
   178   90   92 1    
   179   90  211 1    
   180   91  212 1    
   181   91  213 1    
   182   91  214 1    
   183   92   93 2    
   184   92   94 am   BACKBONE|DICT|INTERRES
   185   94   95 1    
   186   94  215 1    
   187   95   96 1    
   188   95   97 1    
   189   95  216 1    
   190   96  217 1    
   191   96  218 1    
   192   96  219 1    
   193   97   98 2    
   194   97   99 am   BACKBONE|DICT|INTERRES
   195   99  100 1    
   196   99  220 1    
   197  100  101 1    
   198  100  102 1    
   199  100  221 1    
   200  101  222 1    
   201  101  223 1    
   202  101  224 1    
   203  102  103 2    
   204  102  104 am   BACKBONE|DICT|INTERRES
   205  104  105 1    
   206  104  225 1    
   207  105  106 1    
   208  105  107 1    
   209  105  226 1    
   210  106  227 1    
   211  106  228 1    
   212  106  229 1    
   213  107  108 2    
   214  107  109 am   BACKBONE|DICT|INTERRES
   215  109  110 1    
   216  109  230 1    
   217  110  111 1    
   218  110  112 1    
   219  110  231 1    
   220  111  232 1    
   221  111  233 1    
   222  111  234 1    
   223  112  113 2    
   224  112  114 am   BACKBONE|DICT|INTERRES
   225  114  115 1    
   226  114  235 1    
   227  115  116 1    
   228  115  117 1    
   229  115  236 1    
   230  116  237 1    
   231  116  238 1    
   232  116  239 1    
   233  117  118 2    
   234  117  119 am   BACKBONE|DICT|INTERRES
   235  119  120 1    
   236  119  240 1    
   237  120  121 1    
   238  120  124 1    
   239  120  241 1    
   240  121  122 am   BACKBONE|DICT|INTERRES
   241  121  123 2    
   242  122  242 1    
   243  122  243 1    
   244  124  125 1    
   245  124  244 1    
   246  124  245 1    
   247  125  126 1    
   248  126  246 1    
   249  126  247 1    
@<TRIPOS>SUBSTRUCTURE
     1 UNK         1 GROUP             0       ****    0 ROOT    
