@<TRIPOS>MOLECULE
3R540
247   249    1
SMALL
USER_CHARGES


@<TRIPOS>ATOM
      1 CA          5.5271  -14.3928  -46.4619 C.3       0 UNK        -0.1800 
      2 C           4.0810  -14.1154  -46.8425 C.2       0 UNK         0.5000 
      3 O           3.1798  -14.3561  -46.0405 O.2       0 UNK        -0.5000 
      4 N           3.8532  -13.5935  -48.0564 N.am      1 UNK        -0.5000 
      5 CA          2.5247  -13.3198  -48.6270 C.3       1 UNK         0.1400 
      6 C6          2.6042  -12.8598  -50.1048 C.3       23 UNK        -0.0398 
      7 S7          3.4557  -13.9464  -51.3158 S.3       23 UNK        -0.2404 
      8 C8          3.4937  -15.6443  -50.6264 C.3       23 UNK        -0.0205 
      9 C9          2.2043  -16.4601  -50.7319 C.ar      23 UNK        -0.0193 
     10 C10         0.9503  -15.8866  -50.9812 C.ar      23 UNK        -0.1150 
     11 C11        -0.1981  -16.6806  -51.0400 C.ar      23 UNK        -0.0193 
     12 C12        -0.0938  -18.0579  -50.8377 C.ar      23 UNK        -0.1150 
     13 C13         1.1467  -18.6492  -50.5924 C.ar      23 UNK        -0.0193 
     14 C14         2.2888  -17.8449  -50.5477 C.ar      23 UNK        -0.1150 
     15 C15         1.2517  -20.1573  -50.4212 C.3       23 UNK        -0.0205 
     16 S16         1.9594  -20.6584  -48.8170 S.3       23 UNK        -0.2404 
     17 C17         2.0755  -22.4658  -49.0819 C.3       23 UNK        -0.0398 
     18 CA          1.4589  -23.3513  -47.9704 C.3       11 UNK         0.1400 
     19 N           2.2474  -23.3239  -46.7350 N.am      11 UNK        -0.5000 
     20 C           2.2174  -24.2732  -45.7873 C.2       10 UNK         0.5000 
     21 O           1.5192  -25.2850  -45.8624 O.2       10 UNK        -0.5000 
     22 CA          3.0913  -24.0483  -44.5361 C.3       10 UNK         0.1400 
     23 CB          4.4044  -24.8373  -44.6509 C.3       10 UNK        -0.1800 
     24 N           3.4025  -22.6390  -44.2772 N.am      10 UNK        -0.5000 
     25 C           2.4971  -21.7072  -43.9533 C.2       9 UNK         0.5000 
     26 O           1.2927  -21.9423  -43.8393 O.2       9 UNK        -0.5000 
     27 CA          3.0344  -20.2756  -43.7943 C.3       9 UNK         0.1400 
     28 CB          3.3298  -19.6657  -45.1735 C.3       9 UNK        -0.1800 
     29 N           2.0779  -19.4204  -43.0931 N.am      9 UNK        -0.5000 
     30 C           2.0034  -19.3059  -41.7595 C.2       8 UNK         0.5000 
     31 O           2.7431  -19.9171  -40.9865 O.2       8 UNK        -0.5000 
     32 CA          0.9663  -18.3240  -41.1747 C.3       8 UNK         0.1400 
     33 CB          1.6723  -17.0730  -40.6285 C.3       8 UNK        -0.1800 
     34 N          -0.0409  -17.8981  -42.1451 N.am      8 UNK        -0.5000 
     35 C          -1.1328  -18.6008  -42.4742 C.2       7 UNK         0.5000 
     36 O          -1.4512  -19.6621  -41.9382 O.2       7 UNK        -0.5000 
     37 CA         -2.0120  -18.0210  -43.6005 C.3       7 UNK         0.1400 
     38 CB         -3.1860  -17.2288  -43.0084 C.3       7 UNK        -0.1800 
     39 N          -1.2678  -17.1617  -44.5250 N.am      7 UNK        -0.5000 
     40 C          -0.2979  -17.5881  -45.3449 C.2       6 UNK         0.5000 
     41 O           0.0490  -18.7667  -45.4142 O.2       6 UNK        -0.5000 
     42 CA          0.4393  -16.5150  -46.1719 C.3       6 UNK         0.1400 
     43 CB          1.2346  -17.1187  -47.3416 C.3       6 UNK        -0.1800 
     44 N          -0.4278  -15.4283  -46.6370 N.am      6 UNK        -0.5000 
     45 C          -1.5009  -15.5226  -47.4369 C.2       5 UNK         0.5000 
     46 O          -1.9092  -16.5735  -47.9274 O.2       5 UNK        -0.5000 
     47 CA         -2.2419  -14.1980  -47.7167 C.3       5 UNK         0.1400 
     48 CB         -3.6379  -14.3953  -48.3473 C.3       5 UNK        -0.1800 
     49 N          -2.3052  -13.3409  -46.5245 N.am      5 UNK        -0.5000 
     50 C          -2.9546  -13.6099  -45.3808 C.2       4 UNK         0.5000 
     51 O          -3.6581  -14.6049  -45.2060 O.2       4 UNK        -0.5000 
     52 CA         -2.7358  -12.6063  -44.2303 C.3       4 UNK         0.1400 
     53 CB         -3.4847  -12.9932  -42.9380 C.3       4 UNK        -0.1800 
     54 N          -1.3148  -12.3818  -43.9450 N.am      4 UNK        -0.5000 
     55 C          -0.3879  -13.2924  -43.6141 C.2       3 UNK         0.5000 
     56 O          -0.6092  -14.5018  -43.5310 O.2       3 UNK        -0.5000 
     57 CA          1.0343  -12.7468  -43.3689 C.3       3 UNK         0.1400 
     58 CB          2.0146  -13.8371  -42.9017 C.3       3 UNK        -0.1800 
     59 N           1.5757  -12.0919  -44.5625 N.am      3 UNK        -0.5000 
     60 C           1.2570  -10.8539  -44.9715 C.2       2 UNK         0.5000 
     61 O           0.4619  -10.1315  -44.3680 O.2       2 UNK        -0.5000 
     62 CA          1.9050  -10.3251  -46.2668 C.3       2 UNK         0.1400 
     63 CB          3.0258   -9.3281  -45.9349 C.3       2 UNK        -0.1800 
     64 N           2.4478  -11.3683  -47.1359 N.am      2 UNK        -0.5000 
     65 C           1.7285  -12.2847  -47.7991 C.2       1 UNK         0.5000 
     66 O           0.5001  -12.3500  -47.7537 O.2       1 UNK        -0.5000 
     67 C          -0.0474  -23.0811  -47.7514 C.2       11 UNK         0.5000 
     68 O          -0.8274  -23.3049  -48.6765 O.2       11 UNK        -0.5000 
     69 N          -0.4436  -22.6521  -46.5404 N.am      12 UNK        -0.5000 
     70 CA         -1.8258  -22.3663  -46.1426 C.3       12 UNK         0.1400 
     71 CB         -1.8477  -21.8781  -44.6889 C.3       12 UNK        -0.1800 
     72 C          -2.8022  -23.5435  -46.3204 C.2       12 UNK         0.5000 
     73 O          -3.9921  -23.3146  -46.5354 O.2       12 UNK        -0.5000 
     74 N          -2.2798  -24.7759  -46.2656 N.am      13 UNK        -0.5000 
     75 CA         -3.0182  -26.0165  -46.4941 C.3       13 UNK         0.1400 
     76 CB         -2.1007  -27.2037  -46.1662 C.3       13 UNK        -0.1800 
     77 C          -3.5906  -26.1580  -47.9195 C.2       13 UNK         0.5000 
     78 O          -4.5644  -26.8913  -48.0956 O.2       13 UNK        -0.5000 
     79 N          -3.0046  -25.4601  -48.9049 N.am      14 UNK        -0.5000 
     80 CA         -3.4322  -25.4533  -50.3042 C.3       14 UNK         0.1400 
     81 CB         -2.3920  -24.6897  -51.1361 C.3       14 UNK        -0.1800 
     82 C          -4.8392  -24.8435  -50.4480 C.2       14 UNK         0.5000 
     83 O          -4.9964  -23.6293  -50.3185 O.2       14 UNK        -0.5000 
     84 N          -5.8418  -25.7113  -50.6454 N.am      15 UNK        -0.5000 
     85 CA         -7.2831  -25.4172  -50.6309 C.3       15 UNK         0.1400 
     86 CB         -7.6721  -24.4738  -51.7891 C.3       15 UNK        -0.1800 
     87 C          -7.8008  -24.9180  -49.2612 C.2       15 UNK         0.5000 
     88 O          -8.8689  -24.3083  -49.1986 O.2       15 UNK        -0.5000 
     89 N          -7.0314  -25.1820  -48.1924 N.am      16 UNK        -0.5000 
     90 CA         -7.2558  -24.7975  -46.7931 C.3       16 UNK         0.1400 
     91 CB         -8.4757  -25.5476  -46.2199 C.3       16 UNK        -0.1800 
     92 C          -7.3305  -23.2733  -46.5386 C.2       16 UNK         0.5000 
     93 O          -7.8053  -22.8613  -45.4783 O.2       16 UNK        -0.5000 
     94 N          -6.8596  -22.4614  -47.4936 N.am      17 UNK        -0.5000 
     95 CA         -6.8769  -20.9997  -47.4340 C.3       17 UNK         0.1400 
     96 CB         -8.2635  -20.4834  -47.8694 C.3       17 UNK        -0.1800 
     97 C          -5.7369  -20.3840  -48.2660 C.2       17 UNK         0.5000 
     98 O          -5.8568  -19.2395  -48.7022 O.2       17 UNK        -0.5000 
     99 N          -4.6732  -21.1616  -48.5181 N.am      18 UNK        -0.5000 
    100 CA        -3.4725  -20.8610  -49.3176 C.3       18 UNK         0.1400 
    101 CB        -2.7151  -19.6568  -48.7238 C.3       18 UNK        -0.1800 
    102 C         -3.7038  -20.6456  -50.8313 C.2       18 UNK         0.5000 
    103 O         -2.7406  -20.6989  -51.5968 O.2       18 UNK        -0.5000 
    104 N         -4.9539  -20.3954  -51.2393 N.am      19 UNK        -0.5000 
    105 CA        -5.3958  -19.9341  -52.5553 C.3       19 UNK         0.1400 
    106 CB        -6.9301  -19.8562  -52.5553 C.3       19 UNK        -0.1800 
    107 C         -4.9052  -20.7562  -53.7592 C.2       19 UNK         0.5000 
    108 O         -4.6473  -20.1722  -54.8114 O.2       19 UNK        -0.5000 
    109 N         -4.7730  -22.0790  -53.5928 N.am      20 UNK        -0.5000 
    110 CA        -4.3017  -22.9768  -54.6510 C.3       20 UNK         0.1400 
    111 CB        -4.7873  -24.4074  -54.3735 C.3       20 UNK        -0.1800 
    112 C         -2.7760  -22.9267  -54.8725 C.2       20 UNK         0.5000 
    113 O         -2.3212  -23.3027  -55.9537 O.2       20 UNK        -0.5000 
    114 N         -2.0167  -22.4639  -53.8699 N.am      21 UNK        -0.5000 
    115 CA        -0.5675  -22.2621  -53.9540 C.3       21 UNK         0.1400 
    116 CB         0.0866  -22.7764  -52.6630 C.3       21 UNK        -0.1800 
    117 C         -0.2010  -20.7883  -54.2165 C.2       21 UNK         0.5000 
    118 O          0.8998  -20.5209  -54.6997 O.2       21 UNK        -0.5000 
    119 N         -1.1206  -19.8670  -53.9030 N.am      22 UNK        -0.5000 
    120 CA        -1.0289  -18.4242  -54.1647 C.3       22 UNK         0.1400 
    121 C         -0.8793  -18.0786  -55.6751 C.2       22 UNK         0.5000 
    122 N         -0.0805  -17.0755  -56.0135 N.am      22 UNK        -0.7600 
    123 O         -1.5065  -18.6873  -56.5393 O.2       22 UNK        -0.5000 
    124 C124       -2.2398  -17.6869  -53.5325 C.3       23 UNK        -0.0398 
    125 S125       -1.8853  -15.9457  -53.1122 S.3       23 UNK        -0.2404 
    126 C126       -1.5517  -16.0498  -51.3245 C.3       23 UNK        -0.0205 
    127 H127        5.6574  -15.4517  -46.2392 H         1 UNK         0.0600 
    128 H128        5.7969  -13.8206  -45.5744 H         1 UNK         0.0600 
    129 H129        6.2160  -14.1256  -47.2636 H         1 UNK         0.0600 
    130 H130        4.6351  -13.4074  -48.6687 H         1 UNK         0.3000 
    131 H131        1.9505  -14.2449  -48.5940 H         1 UNK         0.0600 
    132 H132        1.5971  -12.6896  -50.4900 H         1 UNK         0.0800 
    133 H133        3.0990  -11.8882  -50.1594 H         1 UNK         0.0800 
    134 H134        3.8310  -15.6456  -49.5925 H         1 UNK         0.0800 
    135 H135        4.2679  -16.1780  -51.1795 H         1 UNK         0.0800 
    136 H136        0.8515  -14.8240  -51.1363 H         1 UNK         0.1150 
    137 H137       -0.9801  -18.6723  -50.8925 H         1 UNK         0.1150 
    138 H138        3.2491  -18.3032  -50.3569 H         1 UNK         0.1150 
    139 H139        0.2656  -20.6126  -50.5147 H         1 UNK         0.0800 
    140 H140        1.8648  -20.5544  -51.2311 H         1 UNK         0.0800 
    141 H141        3.1293  -22.7179  -49.2074 H         1 UNK         0.0800 
    142 H142        1.6086  -22.7212  -50.0342 H         1 UNK         0.0800 
    143 H143        1.5101  -24.3766  -48.3440 H         1 UNK         0.0600 
    144 H144        2.8326  -22.5136  -46.5946 H         1 UNK         0.3000 
    145 H145        2.5354  -24.4324  -43.6782 H         1 UNK         0.0600 
    146 H146        4.9953  -24.7558  -43.7384 H         1 UNK         0.0600 
    147 H147        4.2101  -25.8980  -44.8161 H         1 UNK         0.0600 
    148 H148        5.0160  -24.4826  -45.4814 H         1 UNK         0.0600 
    149 H149        4.3729  -22.3721  -44.3625 H         1 UNK         0.3000 
    150 H150        3.9676  -20.3126  -43.2281 H         1 UNK         0.0600 
    151 H151        4.1625  -20.1754  -45.6590 H         1 UNK         0.0600 
    152 H152        3.5965  -18.6115  -45.0962 H         1 UNK         0.0600 
    153 H153        2.4698  -19.7502  -45.8375 H         1 UNK         0.0600 
    154 H154        1.3652  -18.9885  -43.6673 H         1 UNK         0.3000 
    155 H155        0.4683  -18.8251  -40.3420 H         1 UNK         0.0600 
    156 H156        2.2364  -16.5604  -41.4083 H         1 UNK         0.0600 
    157 H157        2.3749  -17.3356  -39.8366 H         1 UNK         0.0600 
    158 H158        0.9581  -16.3656  -40.2066 H         1 UNK         0.0600 
    159 H159        0.1203  -17.0203  -42.6192 H         1 UNK         0.3000 
    160 H160       -2.4175  -18.8588  -44.1707 H         1 UNK         0.0600 
    161 H161       -2.8407  -16.3476  -42.4671 H         1 UNK         0.0600 
    162 H162       -3.7609  -17.8402  -42.3117 H         1 UNK         0.0600 
    163 H163       -3.8708  -16.8982  -43.7891 H         1 UNK         0.0600 
    164 H164       -1.4460  -16.1648  -44.4650 H         1 UNK         0.3000 
    165 H165        1.1565  -16.0567  -45.4909 H         1 UNK         0.0600 
    166 H166        0.5837  -17.6680  -48.0208 H         1 UNK         0.0600 
    167 H167        1.7504  -16.3502  -47.9107 H         1 UNK         0.0600 
    168 H168        1.9966  -17.8113  -46.9896 H         1 UNK         0.0600 
    169 H169       -0.2024  -14.5125  -46.2770 H         1 UNK         0.3000 
    170 H170       -1.6373  -13.6647  -48.4506 H         1 UNK         0.0600 
    171 H171       -3.5628  -14.8967  -49.3123 H         1 UNK         0.0600 
    172 H172       -4.2882  -15.0050  -47.7198 H         1 UNK         0.0600 
    173 H173       -4.1331  -13.4395  -48.5172 H         1 UNK         0.0600 
    174 H174       -1.7225  -12.5149  -46.5627 H         1 UNK         0.3000 
    175 H175       -3.1410  -11.6529  -44.5723 H         1 UNK         0.0600 
    176 H176       -3.1329  -13.9422  -42.5335 H         1 UNK         0.0600 
    177 H177       -3.3561  -12.2338  -42.1669 H         1 UNK         0.0600 
    178 H178       -4.5554  -13.0917  -43.1205 H         1 UNK         0.0600 
    179 H179       -0.9940  -11.4212  -44.0253 H         1 UNK         0.3000 
    180 H180        0.9631  -12.0100  -42.5661 H         1 UNK         0.0600 
    181 H181        2.0996  -14.6475  -43.6257 H         1 UNK         0.0600 
    182 H182        1.6827  -14.2717  -41.9587 H         1 UNK         0.0600 
    183 H183        3.0119  -13.4291  -42.7374 H         1 UNK         0.0600 
    184 H184        2.2004  -12.6516  -45.1317 H         1 UNK         0.3000 
    185 H185        1.1292   -9.7952  -46.8233 H         1 UNK         0.0600 
    186 H186        3.4382   -8.8816  -46.8399 H         1 UNK         0.0600 
    187 H187        2.6535   -8.5124  -45.3136 H         1 UNK         0.0600 
    188 H188        3.8424   -9.8070  -45.3931 H         1 UNK         0.0600 
    189 H189        3.4535  -11.4080  -47.2166 H         1 UNK         0.3000 
    190 H190        0.2611  -22.4879  -45.8323 H         1 UNK         0.3000 
    191 H191       -2.1790  -21.5566  -46.7753 H         1 UNK         0.0600 
    192 H192       -2.8561  -21.5976  -44.3819 H         1 UNK         0.0600 
    193 H193       -1.2139  -21.0015  -44.5606 H         1 UNK         0.0600 
    194 H194       -1.4937  -22.6465  -44.0007 H         1 UNK         0.0600 
    195 H195       -1.2880  -24.8645  -46.0940 H         1 UNK         0.3000 
    196 H196       -3.8624  -26.0335  -45.8019 H         1 UNK         0.0600 
    197 H197       -1.2188  -27.2187  -46.8083 H         1 UNK         0.0600 
    198 H198       -1.7609  -27.1660  -45.1310 H         1 UNK         0.0600 
    199 H199       -2.6227  -28.1520  -46.3013 H         1 UNK         0.0600 
    200 H200       -2.2424  -24.8322  -48.6733 H         1 UNK         0.3000 
    201 H201       -3.4507  -26.4868  -50.6559 H         1 UNK         0.0600 
    202 H202       -2.3822  -23.6256  -50.8988 H         1 UNK         0.0600 
    203 H203       -2.5876  -24.7898  -52.2022 H         1 UNK         0.0600 
    204 H204       -1.3886  -25.0769  -50.9592 H         1 UNK         0.0600 
    205 H205       -5.6097  -26.6941  -50.6946 H         1 UNK         0.3000 
    206 H206       -7.7860  -26.3695  -50.8046 H         1 UNK         0.0600 
    207 H207       -7.3505  -24.8803  -52.7462 H         1 UNK         0.0600 
    208 H208       -8.7536  -24.3469  -51.8464 H         1 UNK         0.0600 
    209 H209       -7.2354  -23.4813  -51.6770 H         1 UNK         0.0600 
    210 H210       -6.1835  -25.7163  -48.3532 H         1 UNK         0.3000 
    211 H211       -6.3752  -25.1408  -46.2486 H         1 UNK         0.0600 
    212 H212       -8.5624  -25.3944  -45.1436 H         1 UNK         0.0600 
    213 H213       -8.3915  -26.6216  -46.3856 H         1 UNK         0.0600 
    214 H214       -9.4077  -25.2095  -46.6739 H         1 UNK         0.0600 
    215 H215       -6.4849  -22.8749  -48.3375 H         1 UNK         0.3000 
    216 H216       -6.6970  -20.6842  -46.4043 H         1 UNK         0.0600 
    217 H217       -8.4821  -20.7552  -48.9029 H         1 UNK         0.0600 
    218 H218       -8.3255  -19.3973  -47.7919 H         1 UNK         0.0600 
    219 H219       -9.0552  -20.8933  -47.2423 H         1 UNK         0.0600 
    220 H220       -4.6651  -22.0804  -48.0880 H         1 UNK         0.3000 
    221 H221       -2.8389  -21.7422  -49.2244 H         1 UNK         0.0600 
    222 H222       -2.7972  -19.6026  -47.6390 H         1 UNK         0.0600 
    223 H223       -3.0923  -18.7117  -49.1168 H         1 UNK         0.0600 
    224 H224       -1.6531  -19.7131  -48.9609 H         1 UNK         0.0600 
    225 H225       -5.6445  -20.3321  -50.5042 H         1 UNK         0.3000 
    226 H226       -5.0078  -18.9216  -52.6788 H         1 UNK         0.0600 
    227 H227       -7.3808  -20.8340  -52.3801 H         1 UNK         0.0600 
    228 H228       -7.2909  -19.1776  -51.7819 H         1 UNK         0.0600 
    229 H229       -7.3052  -19.4868  -53.5107 H         1 UNK         0.0600 
    230 H230       -4.9819  -22.4816  -52.6888 H         1 UNK         0.3000 
    231 H231       -4.7570  -22.6651  -55.5938 H         1 UNK         0.0600 
    232 H232       -4.5336  -24.7411  -53.3701 H         1 UNK         0.0600 
    233 H233       -4.3519  -25.1175  -55.0778 H         1 UNK         0.0600 
    234 H234       -5.8688  -24.4732  -54.4845 H         1 UNK         0.0600 
    235 H235       -2.4660  -22.1301  -53.0243 H         1 UNK         0.3000 
    236 H236       -0.1514  -22.8401  -54.7817 H         1 UNK         0.0600 
    237 H237        0.0200  -23.8621  -52.6025 H         1 UNK         0.0600 
    238 H238        1.1454  -22.5185  -52.6239 H         1 UNK         0.0600 
    239 H239       -0.3943  -22.3652  -51.7764 H         1 UNK         0.0600 
    240 H240       -1.9685  -20.1839  -53.4520 H         1 UNK         0.3000 
    241 H241       -0.1188  -18.0944  -53.6609 H         1 UNK         0.0600 
    242 H242        0.0169  -16.8314  -56.9868 H         1 UNK         0.3800 
    243 H243        0.4195  -16.5450  -55.3168 H         1 UNK         0.3800 
    244 H244       -2.5585  -18.1891  -52.6194 H         1 UNK         0.0800 
    245 H245       -3.1074  -17.7219  -54.1941 H         1 UNK         0.0800 
    246 H246       -1.5799  -15.0436  -50.9045 H         1 UNK         0.0800 
    247 H247       -2.3457  -16.6075  -50.8247 H         1 UNK         0.0800 
@<TRIPOS>BOND
     1    1    2 1    
     2    1  127 1    
     3    1  128 1    
     4    1  129 1    
     5    2    3 2    
     6    2    4 am   BACKBONE|DICT|INTERRES
     7    4    5 1    
     8    4  130 1    
     9    5    6 1    
    10    5   65 1    
    11    5  131 1    
    12    6    7 1    
    13    6  132 1    
    14    6  133 1    
    15    7    8 1    
    16    8    9 1    
    17    8  134 1    
    18    8  135 1    
    19    9   10 ar   
    20    9   14 ar   
    21   10   11 ar   
    22   10  136 1    
    23   11   12 ar   
    24   11  126 1    
    25   12   13 ar   
    26   12  137 1    
    27   13   14 ar   
    28   13   15 1    
    29   14  138 1    
    30   15   16 1    
    31   15  139 1    
    32   15  140 1    
    33   16   17 1    
    34   17   18 1    
    35   17  141 1    
    36   17  142 1    
    37   18   19 1    
    38   18   67 1    
    39   18  143 1    
    40   19   20 am   BACKBONE|DICT|INTERRES
    41   19  144 1    
    42   20   21 2    
    43   20   22 1    
    44   22   23 1    
    45   22   24 1    
    46   22  145 1    
    47   23  146 1    
    48   23  147 1    
    49   23  148 1    
    50   24   25 am   BACKBONE|DICT|INTERRES
    51   24  149 1    
    52   25   26 2    
    53   25   27 1    
    54   27   28 1    
    55   27   29 1    
    56   27  150 1    
    57   28  151 1    
    58   28  152 1    
    59   28  153 1    
    60   29   30 am   BACKBONE|DICT|INTERRES
    61   29  154 1    
    62   30   31 2    
    63   30   32 1    
    64   32   33 1    
    65   32   34 1    
    66   32  155 1    
    67   33  156 1    
    68   33  157 1    
    69   33  158 1    
    70   34   35 am   BACKBONE|DICT|INTERRES
    71   34  159 1    
    72   35   36 2    
    73   35   37 1    
    74   37   38 1    
    75   37   39 1    
    76   37  160 1    
    77   38  161 1    
    78   38  162 1    
    79   38  163 1    
    80   39   40 am   BACKBONE|DICT|INTERRES
    81   39  164 1    
    82   40   41 2    
    83   40   42 1    
    84   42   43 1    
    85   42   44 1    
    86   42  165 1    
    87   43  166 1    
    88   43  167 1    
    89   43  168 1    
    90   44   45 am   BACKBONE|DICT|INTERRES
    91   44  169 1    
    92   45   46 2    
    93   45   47 1    
    94   47   48 1    
    95   47   49 1    
    96   47  170 1    
    97   48  171 1    
    98   48  172 1    
    99   48  173 1    
   100   49   50 am   BACKBONE|DICT|INTERRES
   101   49  174 1    
   102   50   51 2    
   103   50   52 1    
   104   52   53 1    
   105   52   54 1    
   106   52  175 1    
   107   53  176 1    
   108   53  177 1    
   109   53  178 1    
   110   54   55 am   BACKBONE|DICT|INTERRES
   111   54  179 1    
   112   55   56 2    
   113   55   57 1    
   114   57   58 1    
   115   57   59 1    
   116   57  180 1    
   117   58  181 1    
   118   58  182 1    
   119   58  183 1    
   120   59   60 am   BACKBONE|DICT|INTERRES
   121   59  184 1    
   122   60   61 2    
   123   60   62 1    
   124   62   63 1    
   125   62   64 1    
   126   62  185 1    
   127   63  186 1    
   128   63  187 1    
   129   63  188 1    
   130   64   65 am   BACKBONE|DICT|INTERRES
   131   64  189 1    
   132   65   66 2    
   133   67   68 2    
   134   67   69 am   BACKBONE|DICT|INTERRES
   135   69   70 1    
   136   69  190 1    
   137   70   71 1    
   138   70   72 1    
   139   70  191 1    
   140   71  192 1    
   141   71  193 1    
   142   71  194 1    
   143   72   73 2    
   144   72   74 am   BACKBONE|DICT|INTERRES
   145   74   75 1    
   146   74  195 1    
   147   75   76 1    
   148   75   77 1    
   149   75  196 1    
   150   76  197 1    
   151   76  198 1    
   152   76  199 1    
   153   77   78 2    
   154   77   79 am   BACKBONE|DICT|INTERRES
   155   79   80 1    
   156   79  200 1    
   157   80   81 1    
   158   80   82 1    
   159   80  201 1    
   160   81  202 1    
   161   81  203 1    
   162   81  204 1    
   163   82   83 2    
   164   82   84 am   BACKBONE|DICT|INTERRES
   165   84   85 1    
   166   84  205 1    
   167   85   86 1    
   168   85   87 1    
   169   85  206 1    
   170   86  207 1    
   171   86  208 1    
   172   86  209 1    
   173   87   88 2    
   174   87   89 am   BACKBONE|DICT|INTERRES
   175   89   90 1    
   176   89  210 1    
   177   90   91 1    
   178   90   92 1    
   179   90  211 1    
   180   91  212 1    
   181   91  213 1    
   182   91  214 1    
   183   92   93 2    
   184   92   94 am   BACKBONE|DICT|INTERRES
   185   94   95 1    
   186   94  215 1    
   187   95   96 1    
   188   95   97 1    
   189   95  216 1    
   190   96  217 1    
   191   96  218 1    
   192   96  219 1    
   193   97   98 2    
   194   97   99 am   BACKBONE|DICT|INTERRES
   195   99  100 1    
   196   99  220 1    
   197  100  101 1    
   198  100  102 1    
   199  100  221 1    
   200  101  222 1    
   201  101  223 1    
   202  101  224 1    
   203  102  103 2    
   204  102  104 am   BACKBONE|DICT|INTERRES
   205  104  105 1    
   206  104  225 1    
   207  105  106 1    
   208  105  107 1    
   209  105  226 1    
   210  106  227 1    
   211  106  228 1    
   212  106  229 1    
   213  107  108 2    
   214  107  109 am   BACKBONE|DICT|INTERRES
   215  109  110 1    
   216  109  230 1    
   217  110  111 1    
   218  110  112 1    
   219  110  231 1    
   220  111  232 1    
   221  111  233 1    
   222  111  234 1    
   223  112  113 2    
   224  112  114 am   BACKBONE|DICT|INTERRES
   225  114  115 1    
   226  114  235 1    
   227  115  116 1    
   228  115  117 1    
   229  115  236 1    
   230  116  237 1    
   231  116  238 1    
   232  116  239 1    
   233  117  118 2    
   234  117  119 am   BACKBONE|DICT|INTERRES
   235  119  120 1    
   236  119  240 1    
   237  120  121 1    
   238  120  124 1    
   239  120  241 1    
   240  121  122 am   BACKBONE|DICT|INTERRES
   241  121  123 2    
   242  122  242 1    
   243  122  243 1    
   244  124  125 1    
   245  124  244 1    
   246  124  245 1    
   247  125  126 1    
   248  126  246 1    
   249  126  247 1    
@<TRIPOS>SUBSTRUCTURE
     1 UNK         1 GROUP             0       ****    0 ROOT    
