@<TRIPOS>MOLECULE
3R540
247   249    1
SMALL
USER_CHARGES


@<TRIPOS>ATOM
      1 CA         -1.6773   -9.8054  -49.7121 C.3       0 UNK        -0.1800 
      2 C          -1.9732  -10.9154  -48.7153 C.2       0 UNK         0.5000 
      3 O          -1.2733  -11.0361  -47.7105 O.2       0 UNK        -0.5000 
      4 N          -3.0219  -11.7081  -48.9736 N.am      1 UNK        -0.5000 
      5 CA         -3.4554  -12.9000  -48.2216 C.3       1 UNK         0.1400 
      6 C6         -4.6152  -13.6202  -48.9527 C.3       23 UNK        -0.0398 
      7 S7         -4.0439  -14.4350  -50.4819 S.3       23 UNK        -0.2404 
      8 C8         -4.1173  -16.1905  -50.0006 C.3       23 UNK        -0.0205 
      9 C9         -3.0292  -16.5709  -49.0051 C.ar      23 UNK        -0.0193 
     10 C10        -1.7750  -16.9813  -49.4618 C.ar      23 UNK        -0.1150 
     11 C11        -0.7943  -17.4078  -48.5636 C.ar      23 UNK        -0.0193 
     12 C12        -1.0520  -17.3695  -47.1922 C.ar      23 UNK        -0.1150 
     13 C13        -2.2964  -16.9447  -46.7193 C.ar      23 UNK        -0.0193 
     14 C14        -3.2843  -16.5599  -47.6305 C.ar      23 UNK        -0.1150 
     15 C15        -2.5831  -16.9061  -45.2274 C.3       23 UNK        -0.0205 
     16 S16        -3.3177  -18.4660  -44.6426 S.3       23 UNK        -0.2404 
     17 C17        -1.8621  -19.5638  -44.5481 C.3       23 UNK        -0.0398 
     18 CA         -1.8416  -20.6956  -45.6053 C.3       11 UNK         0.1400 
     19 N          -0.5227  -21.3319  -45.6552 N.am      11 UNK        -0.5000 
     20 C          -0.1520  -22.2917  -46.5140 C.2       10 UNK         0.5000 
     21 O          -0.8618  -22.7139  -47.4255 O.2       10 UNK        -0.5000 
     22 CA          1.2352  -22.9184  -46.2865 C.3       10 UNK         0.1400 
     23 CB          2.3273  -22.0957  -46.9856 C.3       10 UNK        -0.1800 
     24 N           1.5890  -23.0825  -44.8741 N.am      10 UNK        -0.5000 
     25 C           0.9245  -23.8284  -43.9772 C.2       9 UNK         0.5000 
     26 O          -0.1335  -24.4053  -44.2217 O.2       9 UNK        -0.5000 
     27 CA          1.5423  -23.9606  -42.5709 C.3       9 UNK         0.1400 
     28 CB          2.2812  -25.3007  -42.4387 C.3       9 UNK        -0.1800 
     29 N           2.4743  -22.8709  -42.2804 N.am      9 UNK        -0.5000 
     30 C           2.0986  -21.6630  -41.8436 C.2       8 UNK         0.5000 
     31 O           0.9584  -21.4112  -41.4457 O.2       8 UNK        -0.5000 
     32 CA          3.1618  -20.5394  -41.8827 C.3       8 UNK         0.1400 
     33 CB          4.3758  -20.8589  -42.7847 C.3       8 UNK        -0.1800 
     34 N           2.5988  -19.2423  -42.2739 N.am      8 UNK        -0.5000 
     35 C           1.8313  -18.9782  -43.3440 C.2       7 UNK         0.5000 
     36 O           1.4751  -19.8157  -44.1750 O.2       7 UNK        -0.5000 
     37 CA          1.4234  -17.5069  -43.5237 C.3       7 UNK         0.1400 
     38 CB          0.4231  -17.0593  -42.4459 C.3       7 UNK        -0.1800 
     39 N           2.5939  -16.6304  -43.5133 N.am      7 UNK        -0.5000 
     40 C           3.4418  -16.5326  -44.5432 C.2       6 UNK         0.5000 
     41 O           3.3042  -17.1455  -45.6064 O.2       6 UNK        -0.5000 
     42 CA          4.6412  -15.5914  -44.3765 C.3       6 UNK         0.1400 
     43 CB          5.8945  -16.3606  -43.9222 C.3       6 UNK        -0.1800 
     44 N           4.8490  -14.9807  -45.6788 N.am      6 UNK        -0.5000 
     45 C           5.5472  -13.8797  -45.9690 C.2       5 UNK         0.5000 
     46 O           6.2741  -13.2848  -45.1727 O.2       5 UNK        -0.5000 
     47 CA          5.3295  -13.3247  -47.3910 C.3       5 UNK         0.1400 
     48 CB          6.1735  -14.0939  -48.4193 C.3       5 UNK        -0.1800 
     49 N           3.9115  -13.3992  -47.7631 N.am      5 UNK        -0.5000 
     50 C           2.9637  -12.6242  -47.2166 C.2       4 UNK         0.5000 
     51 O           3.2235  -11.6270  -46.5374 O.2       4 UNK        -0.5000 
     52 CA          1.4884  -13.0157  -47.4673 C.3       4 UNK         0.1400 
     53 CB          1.2722  -14.5205  -47.7396 C.3       4 UNK        -0.1800 
     54 N           0.6067  -12.5577  -46.3873 N.am      4 UNK        -0.5000 
     55 C           0.6785  -12.8796  -45.0855 C.2       3 UNK         0.5000 
     56 O           1.4528  -13.7220  -44.6302 O.2       3 UNK        -0.5000 
     57 CA         -0.2490  -12.1324  -44.1109 C.3       3 UNK         0.1400 
     58 CB          0.4914  -10.9459  -43.4673 C.3       3 UNK        -0.1800 
     59 N          -1.4947  -11.6675  -44.7273 N.am      3 UNK        -0.5000 
     60 C          -2.6416  -11.4762  -44.0568 C.2       2 UNK         0.5000 
     61 O          -2.7562  -11.6445  -42.8418 O.2       2 UNK        -0.5000 
     62 CA         -3.8790  -11.0271  -44.8661 C.3       2 UNK         0.1400 
     63 CB         -4.0613   -9.5049  -44.7671 C.3       2 UNK        -0.1800 
     64 N          -3.8146  -11.4038  -46.2781 N.am      2 UNK        -0.5000 
     65 C          -3.8107  -12.6631  -46.7335 C.2       1 UNK         0.5000 
     66 O          -4.0435  -13.6329  -46.0117 O.2       1 UNK        -0.5000 
     67 C          -2.9598  -21.7295  -45.3467 C.2       11 UNK         0.5000 
     68 O          -3.9712  -21.7297  -46.0493 O.2       11 UNK        -0.5000 
     69 N          -2.7411  -22.6082  -44.3588 N.am      12 UNK        -0.5000 
     70 CA         -3.6818  -23.6544  -43.9665 C.3       12 UNK         0.1400 
     71 CB         -3.3108  -24.1767  -42.5700 C.3       12 UNK        -0.1800 
     72 C          -3.7411  -24.8055  -44.9841 C.2       12 UNK         0.5000 
     73 O          -4.8377  -25.2743  -45.2922 O.2       12 UNK        -0.5000 
     74 N          -2.5679  -25.2285  -45.4797 N.am      13 UNK        -0.5000 
     75 CA         -2.3517  -26.3329  -46.4169 C.3       13 UNK         0.1400 
     76 CB         -0.8538  -26.4305  -46.7490 C.3       13 UNK        -0.1800 
     77 C          -3.1961  -26.2065  -47.6971 C.2       13 UNK         0.5000 
     78 O          -2.8424  -25.4465  -48.6004 O.2       13 UNK        -0.5000 
     79 N          -4.3247  -26.9294  -47.7156 N.am      14 UNK        -0.5000 
     80 CA         -5.3435  -26.9639  -48.7683 C.3       14 UNK         0.1400 
     81 CB         -4.7893  -27.6760  -50.0213 C.3       14 UNK        -0.1800 
     82 C          -5.9535  -25.5831  -49.0968 C.2       14 UNK         0.5000 
     83 O          -6.4011  -25.3876  -50.2241 O.2       14 UNK        -0.5000 
     84 N          -5.9495  -24.6537  -48.1270 N.am      15 UNK        -0.5000 
     85 CA         -6.3374  -23.2434  -48.2557 C.3       15 UNK         0.1400 
     86 CB         -7.8504  -23.1075  -48.5254 C.3       15 UNK        -0.1800 
     87 C          -5.4791  -22.5141  -49.3119 C.2       15 UNK         0.5000 
     88 O          -5.9021  -22.3536  -50.4595 O.2       15 UNK        -0.5000 
     89 N          -4.2644  -22.1242  -48.9035 N.am      16 UNK        -0.5000 
     90 CA         -3.2402  -21.4431  -49.7037 C.3       16 UNK         0.1400 
     91 CB         -3.6773  -20.0000  -50.0238 C.3       16 UNK        -0.1800 
     92 C          -2.8278  -22.2373  -50.9612 C.2       16 UNK         0.5000 
     93 O          -2.7003  -21.6571  -52.0437 O.2       16 UNK        -0.5000 
     94 N          -2.6410  -23.5545  -50.7895 N.am      17 UNK        -0.5000 
     95 CA         -2.2840  -24.5394  -51.8127 C.3       17 UNK         0.1400 
     96 CB         -0.8632  -24.2714  -52.3539 C.3       17 UNK        -0.1800 
     97 C          -3.3489  -24.6504  -52.9234 C.2       17 UNK         0.5000 
     98 O          -3.0149  -24.5639  -54.1045 O.2       17 UNK        -0.5000 
     99 N          -4.6162  -24.8298  -52.5204 N.am      18 UNK        -0.5000 
    100 CA        -5.8080  -24.9131  -53.3741 C.3       18 UNK         0.1400 
    101 CB        -5.7491  -26.1430  -54.3053 C.3       18 UNK        -0.1800 
    102 C         -6.0841  -23.5891  -54.1106 C.2       18 UNK         0.5000 
    103 O         -6.3494  -23.5892  -55.3143 O.2       18 UNK        -0.5000 
    104 N         -6.0035  -22.4818  -53.3568 N.am      19 UNK        -0.5000 
    105 CA        -6.1917  -21.0945  -53.7913 C.3       19 UNK         0.1400 
    106 CB        -7.6600  -20.8427  -54.1919 C.3       19 UNK        -0.1800 
    107 C         -5.1856  -20.6374  -54.8710 C.2       19 UNK         0.5000 
    108 O         -5.4986  -19.7542  -55.6708 O.2       19 UNK        -0.5000 
    109 N         -3.9795  -21.2205  -54.8560 N.am      20 UNK        -0.5000 
    110 CA        -2.8659  -20.8830  -55.7469 C.3       20 UNK         0.1400 
    111 CB        -2.0538  -22.1566  -56.0299 C.3       20 UNK        -0.1800 
    112 C         -1.9639  -19.7784  -55.1613 C.2       20 UNK         0.5000 
    113 O         -0.8821  -19.5332  -55.6976 O.2       20 UNK        -0.5000 
    114 N         -2.3965  -19.1656  -54.0490 N.am      21 UNK        -0.5000 
    115 CA        -1.6942  -18.1543  -53.2557 C.3       21 UNK         0.1400 
    116 CB        -1.5885  -16.8238  -54.0278 C.3       21 UNK        -0.1800 
    117 C         -0.3371  -18.6667  -52.7301 C.2       21 UNK         0.5000 
    118 O          0.6545  -17.9363  -52.7502 O.2       21 UNK        -0.5000 
    119 N         -0.3294  -19.9346  -52.2986 N.am      22 UNK        -0.5000 
    120 CA         0.8415  -20.7045  -51.8454 C.3       22 UNK         0.1400 
    121 C          1.8304  -21.1097  -52.9818 C.2       22 UNK         0.5000 
    122 N          1.5246  -20.8876  -54.2557 N.am      22 UNK        -0.7600 
    123 O          2.8873  -21.6714  -52.7078 O.2       22 UNK        -0.5000 
    124 C124        1.5741  -20.0828  -50.6205 C.3       23 UNK        -0.0398 
    125 S125        0.4487  -19.7577  -49.2204 S.3       23 UNK        -0.2404 
    126 C126        0.5274  -17.9451  -49.0801 C.3       23 UNK        -0.0205 
    127 H127       -0.6728   -9.9261  -50.1174 H         1 UNK         0.0600 
    128 H128       -1.7330   -8.8348  -49.2194 H         1 UNK         0.0600 
    129 H129       -2.3827   -9.8073  -50.5434 H         1 UNK         0.0600 
    130 H130       -3.5518  -11.5336  -49.8158 H         1 UNK         0.3000 
    131 H131       -2.5990  -13.5778  -48.1972 H         1 UNK         0.0600 
    132 H132       -5.0956  -14.3665  -48.3191 H         1 UNK         0.0800 
    133 H133       -5.4033  -12.9101  -49.2081 H         1 UNK         0.0800 
    134 H134       -5.1031  -16.4216  -49.5938 H         1 UNK         0.0800 
    135 H135       -4.0179  -16.8011  -50.8990 H         1 UNK         0.0800 
    136 H136       -1.5684  -16.9940  -50.5200 H         1 UNK         0.1150 
    137 H137       -0.2869  -17.6905  -46.5012 H         1 UNK         0.1150 
    138 H138       -4.2535  -16.2551  -47.2629 H         1 UNK         0.1150 
    139 H139       -1.6757  -16.6785  -44.6667 H         1 UNK         0.0800 
    140 H140       -3.2778  -16.0930  -45.0116 H         1 UNK         0.0800 
    141 H141       -1.8017  -19.9733  -43.5381 H         1 UNK         0.0800 
    142 H142       -0.9715  -18.9506  -44.6626 H         1 UNK         0.0800 
    143 H143       -2.0176  -20.2523  -46.5882 H         1 UNK         0.0600 
    144 H144        0.1683  -20.9999  -44.9875 H         1 UNK         0.3000 
    145 H145        1.2247  -23.9132  -46.7350 H         1 UNK         0.0600 
    146 H146        3.3088  -22.5546  -46.8659 H         1 UNK         0.0600 
    147 H147        2.1324  -22.0263  -48.0559 H         1 UNK         0.0600 
    148 H148        2.3797  -21.0788  -46.5934 H         1 UNK         0.0600 
    149 H149        2.4192  -22.5998  -44.5680 H         1 UNK         0.3000 
    150 H150        0.7256  -23.9503  -41.8458 H         1 UNK         0.0600 
    151 H151        1.6076  -26.1376  -42.6283 H         1 UNK         0.0600 
    152 H152        2.6844  -25.4308  -41.4342 H         1 UNK         0.0600 
    153 H153        3.1080  -25.3783  -43.1458 H         1 UNK         0.0600 
    154 H154        3.4368  -23.0127  -42.5511 H         1 UNK         0.3000 
    155 H155        3.5233  -20.4261  -40.8598 H         1 UNK         0.0600 
    156 H156        4.9220  -21.7338  -42.4308 H         1 UNK         0.0600 
    157 H157        5.0833  -20.0294  -42.7905 H         1 UNK         0.0600 
    158 H158        4.0777  -21.0398  -43.8183 H         1 UNK         0.0600 
    159 H159        2.8090  -18.4770  -41.6503 H         1 UNK         0.3000 
    160 H160        0.9299  -17.4112  -44.4926 H         1 UNK         0.0600 
    161 H161        0.8621  -17.0763  -41.4479 H         1 UNK         0.0600 
    162 H162       -0.4523  -17.7097  -42.4299 H         1 UNK         0.0600 
    163 H163        0.0704  -16.0456  -42.6383 H         1 UNK         0.0600 
    164 H164        2.7509  -16.0779  -42.6832 H         1 UNK         0.3000 
    165 H165        4.3945  -14.8122  -43.6523 H         1 UNK         0.0600 
    166 H166        6.7484  -15.6945  -43.7989 H         1 UNK         0.0600 
    167 H167        5.7238  -16.8504  -42.9627 H         1 UNK         0.0600 
    168 H168        6.1727  -17.1327  -44.6407 H         1 UNK         0.0600 
    169 H169        4.2797  -15.4047  -46.4002 H         1 UNK         0.3000 
    170 H170        5.6456  -12.2793  -47.4022 H         1 UNK         0.0600 
    171 H171        6.0577  -13.6720  -49.4178 H         1 UNK         0.0600 
    172 H172        7.2335  -14.0441  -48.1668 H         1 UNK         0.0600 
    173 H173        5.8964  -15.1478  -48.4659 H         1 UNK         0.0600 
    174 H174        3.6320  -14.1761  -48.3436 H         1 UNK         0.3000 
    175 H175        1.1782  -12.4703  -48.3595 H         1 UNK         0.0600 
    176 H176        1.6453  -15.1429  -46.9256 H         1 UNK         0.0600 
    177 H177        0.2112  -14.7387  -47.8617 H         1 UNK         0.0600 
    178 H178        1.7665  -14.8387  -48.6577 H         1 UNK         0.0600 
    179 H179       -0.0506  -11.8428  -46.6869 H         1 UNK         0.3000 
    180 H180       -0.4972  -12.8491  -43.3248 H         1 UNK         0.0600 
    181 H181        0.7294  -10.1782  -44.2045 H         1 UNK         0.0600 
    182 H182        1.4298  -11.2687  -43.0143 H         1 UNK         0.0600 
    183 H183       -0.1046  -10.4833  -42.6806 H         1 UNK         0.0600 
    184 H184       -1.4879  -11.5111  -45.7287 H         1 UNK         0.3000 
    185 H185       -4.7546  -11.5084  -44.4256 H         1 UNK         0.0600 
    186 H186       -4.1412   -9.1879  -43.7264 H         1 UNK         0.0600 
    187 H187       -3.2200   -8.9698  -45.2097 H         1 UNK         0.0600 
    188 H188       -4.9705   -9.1820  -45.2746 H         1 UNK         0.0600 
    189 H189       -3.5977  -10.6670  -46.9334 H         1 UNK         0.3000 
    190 H190       -1.8523  -22.5945  -43.8799 H         1 UNK         0.3000 
    191 H191       -4.6789  -23.2127  -43.9056 H         1 UNK         0.0600 
    192 H192       -3.3358  -23.3762  -41.8304 H         1 UNK         0.0600 
    193 H193       -4.0137  -24.9436  -42.2419 H         1 UNK         0.0600 
    194 H194       -2.3136  -24.6177  -42.5528 H         1 UNK         0.0600 
    195 H195       -1.7225  -24.7819  -45.1331 H         1 UNK         0.3000 
    196 H196       -2.6359  -27.2539  -45.9045 H         1 UNK         0.0600 
    197 H197       -0.6596  -27.2511  -47.4406 H         1 UNK         0.0600 
    198 H198       -0.2597  -26.6131  -45.8536 H         1 UNK         0.0600 
    199 H199       -0.4879  -25.5160  -47.2155 H         1 UNK         0.0600 
    200 H200       -4.5487  -27.4659  -46.8888 H         1 UNK         0.3000 
    201 H201       -6.1645  -27.5682  -48.3804 H         1 UNK         0.0600 
    202 H202       -4.3900  -28.6587  -49.7711 H         1 UNK         0.0600 
    203 H203       -3.9922  -27.1022  -50.4936 H         1 UNK         0.0600 
    204 H204       -5.5695  -27.8273  -50.7683 H         1 UNK         0.0600 
    205 H205       -5.5526  -24.9168  -47.2308 H         1 UNK         0.3000 
    206 H206       -6.1382  -22.7764  -47.2903 H         1 UNK         0.0600 
    207 H207       -8.4341  -23.5929  -47.7434 H         1 UNK         0.0600 
    208 H208       -8.1447  -22.0578  -48.5481 H         1 UNK         0.0600 
    209 H209       -8.1417  -23.5452  -49.4806 H         1 UNK         0.0600 
    210 H210       -4.0236  -22.2666  -47.9267 H         1 UNK         0.3000 
    211 H211       -2.3500  -21.3779  -49.0789 H         1 UNK         0.0600 
    212 H212       -4.5394  -19.9718  -50.6904 H         1 UNK         0.0600 
    213 H213       -2.8686  -19.4520  -50.5060 H         1 UNK         0.0600 
    214 H214       -3.9353  -19.4580  -49.1139 H         1 UNK         0.0600 
    215 H215       -2.7715  -23.9456  -49.8594 H         1 UNK         0.3000 
    216 H216       -2.2624  -25.5078  -51.3119 H         1 UNK         0.0600 
    217 H217       -0.5463  -25.0694  -53.0261 H         1 UNK         0.0600 
    218 H218       -0.1361  -24.2227  -51.5434 H         1 UNK         0.0600 
    219 H219       -0.8077  -23.3367  -52.9120 H         1 UNK         0.0600 
    220 H220       -4.8180  -24.8584  -51.5277 H         1 UNK         0.3000 
    221 H221       -6.6611  -25.0594  -52.7126 H         1 UNK         0.0600 
    222 H222       -4.9678  -26.0502  -55.0598 H         1 UNK         0.0600 
    223 H223       -5.5638  -27.0557  -53.7390 H         1 UNK         0.0600 
    224 H224       -6.6944  -26.2752  -54.8327 H         1 UNK         0.0600 
    225 H225       -5.8110  -22.5917  -52.3630 H         1 UNK         0.3000 
    226 H226       -5.9838  -20.4813  -52.9133 H         1 UNK         0.0600 
    227 H227       -8.3427  -21.1599  -53.4036 H         1 UNK         0.0600 
    228 H228       -7.8422  -19.7821  -54.3684 H         1 UNK         0.0600 
    229 H229       -7.9284  -21.3764  -55.1040 H         1 UNK         0.0600 
    230 H230       -3.7846  -21.9114  -54.1415 H         1 UNK         0.3000 
    231 H231       -3.2566  -20.5149  -56.6975 H         1 UNK         0.0600 
    232 H232       -1.5590  -22.5228  -55.1299 H         1 UNK         0.0600 
    233 H233       -1.2806  -21.9738  -56.7770 H         1 UNK         0.0600 
    234 H234       -2.6905  -22.9546  -56.4124 H         1 UNK         0.0600 
    235 H235       -3.2697  -19.4956  -53.6649 H         1 UNK         0.3000 
    236 H236       -2.3209  -17.9778  -52.3829 H         1 UNK         0.0600 
    237 H237       -2.5674  -16.4889  -54.3710 H         1 UNK         0.0600 
    238 H238       -1.1816  -16.0361  -53.3926 H         1 UNK         0.0600 
    239 H239       -0.9387  -16.9110  -54.8990 H         1 UNK         0.0600 
    240 H240       -1.1978  -20.4608  -52.3387 H         1 UNK         0.3000 
    241 H241        0.4253  -21.6529  -51.5055 H         1 UNK         0.0600 
    242 H242        2.1751  -21.1699  -54.9713 H         1 UNK         0.3800 
    243 H243        0.6753  -20.4044  -54.5191 H         1 UNK         0.3800 
    244 H244        2.3443  -20.7651  -50.2581 H         1 UNK         0.0800 
    245 H245        2.1002  -19.1712  -50.9049 H         1 UNK         0.0800 
    246 H246        1.3410  -17.6682  -48.4077 H         1 UNK         0.0800 
    247 H247        0.7545  -17.4927  -50.0458 H         1 UNK         0.0800 
@<TRIPOS>BOND
     1    1    2 1    
     2    1  127 1    
     3    1  128 1    
     4    1  129 1    
     5    2    3 2    
     6    2    4 am   BACKBONE|DICT|INTERRES
     7    4    5 1    
     8    4  130 1    
     9    5    6 1    
    10    5   65 1    
    11    5  131 1    
    12    6    7 1    
    13    6  132 1    
    14    6  133 1    
    15    7    8 1    
    16    8    9 1    
    17    8  134 1    
    18    8  135 1    
    19    9   10 ar   
    20    9   14 ar   
    21   10   11 ar   
    22   10  136 1    
    23   11   12 ar   
    24   11  126 1    
    25   12   13 ar   
    26   12  137 1    
    27   13   14 ar   
    28   13   15 1    
    29   14  138 1    
    30   15   16 1    
    31   15  139 1    
    32   15  140 1    
    33   16   17 1    
    34   17   18 1    
    35   17  141 1    
    36   17  142 1    
    37   18   19 1    
    38   18   67 1    
    39   18  143 1    
    40   19   20 am   BACKBONE|DICT|INTERRES
    41   19  144 1    
    42   20   21 2    
    43   20   22 1    
    44   22   23 1    
    45   22   24 1    
    46   22  145 1    
    47   23  146 1    
    48   23  147 1    
    49   23  148 1    
    50   24   25 am   BACKBONE|DICT|INTERRES
    51   24  149 1    
    52   25   26 2    
    53   25   27 1    
    54   27   28 1    
    55   27   29 1    
    56   27  150 1    
    57   28  151 1    
    58   28  152 1    
    59   28  153 1    
    60   29   30 am   BACKBONE|DICT|INTERRES
    61   29  154 1    
    62   30   31 2    
    63   30   32 1    
    64   32   33 1    
    65   32   34 1    
    66   32  155 1    
    67   33  156 1    
    68   33  157 1    
    69   33  158 1    
    70   34   35 am   BACKBONE|DICT|INTERRES
    71   34  159 1    
    72   35   36 2    
    73   35   37 1    
    74   37   38 1    
    75   37   39 1    
    76   37  160 1    
    77   38  161 1    
    78   38  162 1    
    79   38  163 1    
    80   39   40 am   BACKBONE|DICT|INTERRES
    81   39  164 1    
    82   40   41 2    
    83   40   42 1    
    84   42   43 1    
    85   42   44 1    
    86   42  165 1    
    87   43  166 1    
    88   43  167 1    
    89   43  168 1    
    90   44   45 am   BACKBONE|DICT|INTERRES
    91   44  169 1    
    92   45   46 2    
    93   45   47 1    
    94   47   48 1    
    95   47   49 1    
    96   47  170 1    
    97   48  171 1    
    98   48  172 1    
    99   48  173 1    
   100   49   50 am   BACKBONE|DICT|INTERRES
   101   49  174 1    
   102   50   51 2    
   103   50   52 1    
   104   52   53 1    
   105   52   54 1    
   106   52  175 1    
   107   53  176 1    
   108   53  177 1    
   109   53  178 1    
   110   54   55 am   BACKBONE|DICT|INTERRES
   111   54  179 1    
   112   55   56 2    
   113   55   57 1    
   114   57   58 1    
   115   57   59 1    
   116   57  180 1    
   117   58  181 1    
   118   58  182 1    
   119   58  183 1    
   120   59   60 am   BACKBONE|DICT|INTERRES
   121   59  184 1    
   122   60   61 2    
   123   60   62 1    
   124   62   63 1    
   125   62   64 1    
   126   62  185 1    
   127   63  186 1    
   128   63  187 1    
   129   63  188 1    
   130   64   65 am   BACKBONE|DICT|INTERRES
   131   64  189 1    
   132   65   66 2    
   133   67   68 2    
   134   67   69 am   BACKBONE|DICT|INTERRES
   135   69   70 1    
   136   69  190 1    
   137   70   71 1    
   138   70   72 1    
   139   70  191 1    
   140   71  192 1    
   141   71  193 1    
   142   71  194 1    
   143   72   73 2    
   144   72   74 am   BACKBONE|DICT|INTERRES
   145   74   75 1    
   146   74  195 1    
   147   75   76 1    
   148   75   77 1    
   149   75  196 1    
   150   76  197 1    
   151   76  198 1    
   152   76  199 1    
   153   77   78 2    
   154   77   79 am   BACKBONE|DICT|INTERRES
   155   79   80 1    
   156   79  200 1    
   157   80   81 1    
   158   80   82 1    
   159   80  201 1    
   160   81  202 1    
   161   81  203 1    
   162   81  204 1    
   163   82   83 2    
   164   82   84 am   BACKBONE|DICT|INTERRES
   165   84   85 1    
   166   84  205 1    
   167   85   86 1    
   168   85   87 1    
   169   85  206 1    
   170   86  207 1    
   171   86  208 1    
   172   86  209 1    
   173   87   88 2    
   174   87   89 am   BACKBONE|DICT|INTERRES
   175   89   90 1    
   176   89  210 1    
   177   90   91 1    
   178   90   92 1    
   179   90  211 1    
   180   91  212 1    
   181   91  213 1    
   182   91  214 1    
   183   92   93 2    
   184   92   94 am   BACKBONE|DICT|INTERRES
   185   94   95 1    
   186   94  215 1    
   187   95   96 1    
   188   95   97 1    
   189   95  216 1    
   190   96  217 1    
   191   96  218 1    
   192   96  219 1    
   193   97   98 2    
   194   97   99 am   BACKBONE|DICT|INTERRES
   195   99  100 1    
   196   99  220 1    
   197  100  101 1    
   198  100  102 1    
   199  100  221 1    
   200  101  222 1    
   201  101  223 1    
   202  101  224 1    
   203  102  103 2    
   204  102  104 am   BACKBONE|DICT|INTERRES
   205  104  105 1    
   206  104  225 1    
   207  105  106 1    
   208  105  107 1    
   209  105  226 1    
   210  106  227 1    
   211  106  228 1    
   212  106  229 1    
   213  107  108 2    
   214  107  109 am   BACKBONE|DICT|INTERRES
   215  109  110 1    
   216  109  230 1    
   217  110  111 1    
   218  110  112 1    
   219  110  231 1    
   220  111  232 1    
   221  111  233 1    
   222  111  234 1    
   223  112  113 2    
   224  112  114 am   BACKBONE|DICT|INTERRES
   225  114  115 1    
   226  114  235 1    
   227  115  116 1    
   228  115  117 1    
   229  115  236 1    
   230  116  237 1    
   231  116  238 1    
   232  116  239 1    
   233  117  118 2    
   234  117  119 am   BACKBONE|DICT|INTERRES
   235  119  120 1    
   236  119  240 1    
   237  120  121 1    
   238  120  124 1    
   239  120  241 1    
   240  121  122 am   BACKBONE|DICT|INTERRES
   241  121  123 2    
   242  122  242 1    
   243  122  243 1    
   244  124  125 1    
   245  124  244 1    
   246  124  245 1    
   247  125  126 1    
   248  126  246 1    
   249  126  247 1    
@<TRIPOS>SUBSTRUCTURE
     1 UNK         1 GROUP             0       ****    0 ROOT    
