@<TRIPOS>MOLECULE
3R540
247   249    1
SMALL
USER_CHARGES


@<TRIPOS>ATOM
      1 CA         -1.8862  -12.7960  -45.3975 C.3       0 UNK        -0.1800 
      2 C          -0.9359  -13.3229  -46.4629 C.2       0 UNK         0.5000 
      3 O          -0.6082  -14.5092  -46.4596 O.2       0 UNK        -0.5000 
      4 N          -0.4816  -12.4436  -47.3665 N.am      1 UNK        -0.5000 
      5 CA          0.4373  -12.6953  -48.4886 C.3       1 UNK         0.1400 
      6 C6         -0.0581  -13.8109  -49.4483 C.3       23 UNK        -0.0398 
      7 S7          0.4369  -13.5332  -51.1837 S.3       23 UNK        -0.2404 
      8 C8          1.7006  -14.8260  -51.4445 C.3       23 UNK        -0.0205 
      9 C9          1.1903  -16.2465  -51.2154 C.ar      23 UNK        -0.0193 
     10 C10        -0.0461  -16.6638  -51.7215 C.ar      23 UNK        -0.1150 
     11 C11        -0.5239  -17.9528  -51.4668 C.ar      23 UNK        -0.0193 
     12 C12         0.2625  -18.8437  -50.7322 C.ar      23 UNK        -0.1150 
     13 C13         1.5089  -18.4467  -50.2368 C.ar      23 UNK        -0.0193 
     14 C14         1.9659  -17.1490  -50.4820 C.ar      23 UNK        -0.1150 
     15 C15         2.3549  -19.4115  -49.4185 C.3       23 UNK        -0.0205 
     16 S16         2.3558  -18.9981  -47.6424 S.3       23 UNK        -0.2404 
     17 C17         0.5951  -19.2098  -47.2223 C.3       23 UNK        -0.0398 
     18 CA          0.2578  -20.6683  -46.8338 C.3       11 UNK         0.1400 
     19 N           0.6298  -20.9784  -45.4512 N.am      11 UNK        -0.5000 
     20 C           0.5545  -22.1875  -44.8794 C.2       10 UNK         0.5000 
     21 O           0.2203  -23.2063  -45.4815 O.2       10 UNK        -0.5000 
     22 CA          0.8430  -22.2642  -43.3682 C.3       10 UNK         0.1400 
     23 CB          2.3531  -22.2976  -43.0905 C.3       10 UNK        -0.1800 
     24 N           0.2209  -21.1668  -42.6244 N.am      10 UNK        -0.5000 
     25 C          -1.1040  -20.9831  -42.5229 C.2       9 UNK         0.5000 
     26 O          -1.9378  -21.7556  -42.9969 O.2       9 UNK        -0.5000 
     27 CA         -1.5788  -19.6973  -41.8204 C.3       9 UNK         0.1400 
     28 CB         -1.5374  -19.8559  -40.2934 C.3       9 UNK        -0.1800 
     29 N          -0.8017  -18.5220  -42.2156 N.am      9 UNK        -0.5000 
     30 C          -0.7612  -18.0226  -43.4592 C.2       8 UNK         0.5000 
     31 O          -1.4289  -18.4639  -44.3938 O.2       8 UNK        -0.5000 
     32 CA          0.2348  -16.8778  -43.7152 C.3       8 UNK         0.1400 
     33 CB         -0.3520  -15.5309  -43.2712 C.3       8 UNK        -0.1800 
     34 N           1.5231  -17.1015  -43.0571 N.am      8 UNK        -0.5000 
     35 C           2.3524  -18.1196  -43.3276 C.2       7 UNK         0.5000 
     36 O           2.1313  -18.9632  -44.1918 O.2       7 UNK        -0.5000 
     37 CA          3.6069  -18.2586  -42.4482 C.3       7 UNK         0.1400 
     38 CB          4.7530  -17.3676  -42.9477 C.3       7 UNK        -0.1800 
     39 N           3.3213  -17.9553  -41.0486 N.am      7 UNK        -0.5000 
     40 C           2.5800  -18.7320  -40.2470 C.2       6 UNK         0.5000 
     41 O           2.1061  -19.8159  -40.5893 O.2       6 UNK        -0.5000 
     42 CA          2.2835  -18.1730  -38.8438 C.3       6 UNK         0.1400 
     43 CB          3.4449  -18.4697  -37.8836 C.3       6 UNK        -0.1800 
     44 N           2.0266  -16.7308  -38.8671 N.am      6 UNK        -0.5000 
     45 C           0.9517  -16.1696  -39.4385 C.2       5 UNK         0.5000 
     46 O           0.0461  -16.8152  -39.9655 O.2       5 UNK        -0.5000 
     47 CA          0.9014  -14.6304  -39.4614 C.3       5 UNK         0.1400 
     48 CB          0.2884  -14.0923  -38.1601 C.3       5 UNK        -0.1800 
     49 N           2.2098  -14.0044  -39.6783 N.am      5 UNK        -0.5000 
     50 C           2.9418  -14.1317  -40.7927 C.2       4 UNK         0.5000 
     51 O           2.6179  -14.8366  -41.7503 O.2       4 UNK        -0.5000 
     52 CA          4.2785  -13.3831  -40.8235 C.3       4 UNK         0.1400 
     53 CB          5.3766  -14.2080  -40.1307 C.3       4 UNK        -0.1800 
     54 N           4.6669  -13.1311  -42.2096 N.am      4 UNK        -0.5000 
     55 C           5.3017  -12.0347  -42.6409 C.2       3 UNK         0.5000 
     56 O           5.6247  -11.1063  -41.8977 O.2       3 UNK        -0.5000 
     57 CA          5.6683  -11.9469  -44.1380 C.3       3 UNK         0.1400 
     58 CB          7.1923  -12.0421  -44.3195 C.3       3 UNK        -0.1800 
     59 N           5.0401  -12.9612  -44.9892 N.am      3 UNK        -0.5000 
     60 C           3.7679  -12.9367  -45.4036 C.2       2 UNK         0.5000 
     61 O           2.9458  -12.0932  -45.0368 O.2       2 UNK        -0.5000 
     62 CA          3.3617  -14.0629  -46.3758 C.3       2 UNK         0.1400 
     63 CB          3.2371  -15.3965  -45.6304 C.3       2 UNK        -0.1800 
     64 N           2.0891  -13.7872  -47.0338 N.am      2 UNK        -0.5000 
     65 C           1.8977  -12.9239  -48.0364 C.2       1 UNK         0.5000 
     66 O           2.8110  -12.3048  -48.5851 O.2       1 UNK        -0.5000 
     67 C          -1.2243  -20.9739  -47.1195 C.2       11 UNK         0.5000 
     68 O          -1.5188  -21.5895  -48.1427 O.2       11 UNK        -0.5000 
     69 N          -2.1249  -20.5753  -46.2105 N.am      12 UNK        -0.5000 
     70 CA         -3.5582  -20.8599  -46.2940 C.3       12 UNK         0.1400 
     71 CB         -4.3040  -20.1062  -45.1830 C.3       12 UNK        -0.1800 
     72 C          -3.8647  -22.3675  -46.2418 C.2       12 UNK         0.5000 
     73 O          -4.6738  -22.8490  -47.0358 O.2       12 UNK        -0.5000 
     74 N          -3.1796  -23.0908  -45.3449 N.am      13 UNK        -0.5000 
     75 CA         -3.2579  -24.5469  -45.2227 C.3       13 UNK         0.1400 
     76 CB         -2.5183  -24.9970  -43.9538 C.3       13 UNK        -0.1800 
     77 C          -2.7200  -25.2839  -46.4645 C.2       13 UNK         0.5000 
     78 O          -3.3140  -26.2800  -46.8768 O.2       13 UNK        -0.5000 
     79 N          -1.6250  -24.7751  -47.0465 N.am      14 UNK        -0.5000 
     80 CA         -1.0212  -25.2865  -48.2771 C.3       14 UNK         0.1400 
     81 CB          0.3769  -24.6755  -48.4601 C.3       14 UNK        -0.1800 
     82 C          -1.8954  -25.0312  -49.5183 C.2       14 UNK         0.5000 
     83 O          -2.0334  -25.9265  -50.3529 O.2       14 UNK        -0.5000 
     84 N          -2.4741  -23.8252  -49.6147 N.am      15 UNK        -0.5000 
     85 CA         -3.3936  -23.4262  -50.6816 C.3       15 UNK         0.1400 
     86 CB         -3.6271  -21.9088  -50.6236 C.3       15 UNK        -0.1800 
     87 C          -4.7305  -24.1853  -50.6219 C.2       15 UNK         0.5000 
     88 O          -5.2763  -24.5279  -51.6703 O.2       15 UNK        -0.5000 
     89 N          -5.2311  -24.4307  -49.4004 N.am      16 UNK        -0.5000 
     90 CA         -6.3882  -25.2690  -49.0557 C.3       16 UNK         0.1400 
     91 CB         -6.0551  -26.7512  -49.3239 C.3       16 UNK        -0.1800 
     92 C          -7.7156  -24.8448  -49.7246 C.2       16 UNK         0.5000 
     93 O          -8.6137  -25.6739  -49.8807 O.2       16 UNK        -0.5000 
     94 N          -7.8028  -23.5683  -50.1293 N.am      17 UNK        -0.5000 
     95 CA         -8.8724  -22.9559  -50.9263 C.3       17 UNK         0.1400 
     96 CB        -10.1967  -22.9150  -50.1349 C.3       17 UNK        -0.1800 
     97 C          -9.0343  -23.5761  -52.3354 C.2       17 UNK         0.5000 
     98 O         -10.1096  -23.4691  -52.9276 O.2       17 UNK        -0.5000 
     99 N          -7.9664  -24.1936  -52.8659 N.am      18 UNK        -0.5000 
    100 CA        -7.9391  -24.8211  -54.1915 C.3       18 UNK         0.1400 
    101 CB        -6.8172  -25.8711  -54.2253 C.3       18 UNK        -0.1800 
    102 C         -7.7668  -23.8111  -55.3447 C.2       18 UNK         0.5000 
    103 O         -7.9430  -24.1911  -56.5031 O.2       18 UNK        -0.5000 
    104 N         -7.4286  -22.5565  -55.0108 N.am      19 UNK        -0.5000 
    105 CA        -7.1692  -21.4320  -55.9107 C.3       19 UNK         0.1400 
    106 CB        -8.4424  -21.0303  -56.6898 C.3       19 UNK        -0.1800 
    107 C         -5.9303  -21.6907  -56.7907 C.2       19 UNK         0.5000 
    108 O         -4.8286  -21.7804  -56.2448 O.2       19 UNK        -0.5000 
    109 N         -6.1138  -21.7683  -58.1177 N.am      20 UNK        -0.5000 
    110 CA        -5.0727  -21.8706  -59.1459 C.3       20 UNK         0.1400 
    111 CB        -4.3504  -23.2352  -59.0672 C.3       20 UNK        -0.1800 
    112 C         -4.1383  -20.6455  -59.0797 C.2       20 UNK         0.5000 
    113 O         -4.6111  -19.5266  -59.2903 O.2       20 UNK        -0.5000 
    114 N         -2.8619  -20.8514  -58.7272 N.am      21 UNK        -0.5000 
    115 CA        -1.8733  -19.7939  -58.4874 C.3       21 UNK         0.1400 
    116 CB        -0.5031  -20.4404  -58.2330 C.3       21 UNK        -0.1800 
    117 C         -2.2457  -18.8444  -57.3276 C.2       21 UNK         0.5000 
    118 O         -1.8304  -17.6850  -57.3399 O.2       21 UNK        -0.5000 
    119 N         -3.0390  -19.3440  -56.3725 N.am      22 UNK        -0.5000 
    120 CA        -3.6312  -18.5812  -55.2641 C.3       22 UNK         0.1400 
    121 C         -5.0694  -18.0648  -55.5728 C.2       22 UNK         0.5000 
    122 N         -5.5915  -18.1921  -56.7882 N.am      22 UNK        -0.7600 
    123 O         -5.7282  -17.5165  -54.6941 O.2       22 UNK        -0.5000 
    124 C124       -3.5672  -19.3894  -53.9405 C.3       23 UNK        -0.0398 
    125 S125       -1.8510  -19.5305  -53.3322 S.3       23 UNK        -0.2404 
    126 C126       -1.9104  -18.3604  -51.9405 C.3       23 UNK        -0.0205 
    127 H127       -1.3974  -12.8033  -44.4234 H         1 UNK         0.0600 
    128 H128       -2.2081  -11.7764  -45.6102 H         1 UNK         0.0600 
    129 H129       -2.7733  -13.4269  -45.3404 H         1 UNK         0.0600 
    130 H130       -0.7731  -11.4797  -47.2788 H         1 UNK         0.3000 
    131 H131        0.4342  -11.7551  -49.0428 H         1 UNK         0.0600 
    132 H132        0.2494  -14.7998  -49.1043 H         1 UNK         0.0800 
    133 H133       -1.1485  -13.8360  -49.4502 H         1 UNK         0.0800 
    134 H134        2.0720  -14.7514  -52.4671 H         1 UNK         0.0800 
    135 H135        2.5488  -14.6123  -50.7919 H         1 UNK         0.0800 
    136 H136       -0.6516  -15.9723  -52.2903 H         1 UNK         0.1150 
    137 H137       -0.1073  -19.8401  -50.5316 H         1 UNK         0.1150 
    138 H138        2.9233  -16.8406  -50.0854 H         1 UNK         0.1150 
    139 H139        2.0076  -20.4374  -49.5509 H         1 UNK         0.0800 
    140 H140        3.3818  -19.3888  -49.7857 H         1 UNK         0.0800 
    141 H141       -0.0121  -18.8598  -48.0564 H         1 UNK         0.0800 
    142 H142        0.3575  -18.5327  -46.4031 H         1 UNK         0.0800 
    143 H143        0.8334  -21.3387  -47.4753 H         1 UNK         0.0600 
    144 H144        0.9972  -20.2036  -44.9023 H         1 UNK         0.3000 
    145 H145        0.4146  -23.1978  -42.9979 H         1 UNK         0.0600 
    146 H146        2.5557  -22.3946  -42.0237 H         1 UNK         0.0600 
    147 H147        2.8206  -23.1469  -43.5900 H         1 UNK         0.0600 
    148 H148        2.8520  -21.3961  -43.4443 H         1 UNK         0.0600 
    149 H149        0.8440  -20.5036  -42.1781 H         1 UNK         0.3000 
    150 H150       -2.6160  -19.5235  -42.1141 H         1 UNK         0.0600 
    151 H151       -1.9408  -18.9740  -39.7954 H         1 UNK         0.0600 
    152 H152       -2.1330  -20.7119  -39.9739 H         1 UNK         0.0600 
    153 H153       -0.5212  -20.0081  -39.9297 H         1 UNK         0.0600 
    154 H154       -0.2659  -18.0603  -41.4872 H         1 UNK         0.3000 
    155 H155        0.4166  -16.8230  -44.7899 H         1 UNK         0.0600 
    156 H156       -0.5619  -15.5114  -42.2032 H         1 UNK         0.0600 
    157 H157       -1.2899  -15.3306  -43.7900 H         1 UNK         0.0600 
    158 H158        0.3280  -14.7093  -43.4976 H         1 UNK         0.0600 
    159 H159        1.8147  -16.4030  -42.3788 H         1 UNK         0.3000 
    160 H160        3.9410  -19.2965  -42.5092 H         1 UNK         0.0600 
    161 H161        4.4938  -16.3102  -42.9104 H         1 UNK         0.0600 
    162 H162        5.0096  -17.6113  -43.9792 H         1 UNK         0.0600 
    163 H163        5.6525  -17.5116  -42.3489 H         1 UNK         0.0600 
    164 H164        3.6316  -17.0600  -40.7038 H         1 UNK         0.3000 
    165 H165        1.3899  -18.6750  -38.4665 H         1 UNK         0.0600 
    166 H166        3.2126  -18.1400  -36.8708 H         1 UNK         0.0600 
    167 H167        3.6479  -19.5405  -37.8372 H         1 UNK         0.0600 
    168 H168        4.3651  -17.9741  -38.1957 H         1 UNK         0.0600 
    169 H169        2.7226  -16.1312  -38.4495 H         1 UNK         0.3000 
    170 H170        0.2521  -14.3341  -40.2872 H         1 UNK         0.0600 
    171 H171       -0.6968  -14.5267  -37.9841 H         1 UNK         0.0600 
    172 H172        0.9093  -14.3254  -37.2943 H         1 UNK         0.0600 
    173 H173        0.1615  -13.0104  -38.2016 H         1 UNK         0.0600 
    174 H174        2.5534  -13.4171  -38.9319 H         1 UNK         0.3000 
    175 H175        4.1449  -12.4377  -40.2934 H         1 UNK         0.0600 
    176 H176        5.5393  -15.1629  -40.6322 H         1 UNK         0.0600 
    177 H177        6.3250  -13.6706  -40.1227 H         1 UNK         0.0600 
    178 H178        5.1166  -14.4198  -39.0929 H         1 UNK         0.0600 
    179 H179        4.3545  -13.8228  -42.8769 H         1 UNK         0.3000 
    180 H180        5.3489  -10.9625  -44.4870 H         1 UNK         0.0600 
    181 H181        7.5761  -13.0096  -43.9929 H         1 UNK         0.0600 
    182 H182        7.7065  -11.2735  -43.7409 H         1 UNK         0.0600 
    183 H183        7.4758  -11.9018  -45.3628 H         1 UNK         0.0600 
    184 H184        5.6469  -13.6980  -45.3193 H         1 UNK         0.3000 
    185 H185        4.1334  -14.1590  -47.1425 H         1 UNK         0.0600 
    186 H186        4.2083  -15.7271  -45.2653 H         1 UNK         0.0600 
    187 H187        2.5712  -15.3038  -44.7732 H         1 UNK         0.0600 
    188 H188        2.8494  -16.1852  -46.2759 H         1 UNK         0.0600 
    189 H189        1.2614  -14.2175  -46.6315 H         1 UNK         0.3000 
    190 H190       -1.8149  -20.0164  -45.4195 H         1 UNK         0.3000 
    191 H191       -3.9148  -20.4837  -47.2551 H         1 UNK         0.0600 
    192 H192       -4.1456  -19.0306  -45.2627 H         1 UNK         0.0600 
    193 H193       -5.3785  -20.2830  -45.2450 H         1 UNK         0.0600 
    194 H194       -3.9763  -20.4187  -44.1916 H         1 UNK         0.0600 
    195 H195       -2.5618  -22.6101  -44.6978 H         1 UNK         0.3000 
    196 H196       -4.3109  -24.8137  -45.1117 H         1 UNK         0.0600 
    197 H197       -2.5909  -26.0772  -43.8220 H         1 UNK         0.0600 
    198 H198       -2.9425  -24.5307  -43.0644 H         1 UNK         0.0600 
    199 H199       -1.4594  -24.7411  -43.9913 H         1 UNK         0.0600 
    200 H200       -1.1506  -23.9972  -46.5967 H         1 UNK         0.3000 
    201 H201       -0.9041  -26.3669  -48.1698 H         1 UNK         0.0600 
    202 H202        1.0253  -24.9170  -47.6177 H         1 UNK         0.0600 
    203 H203        0.3349  -23.5899  -48.5485 H         1 UNK         0.0600 
    204 H204        0.8565  -25.0602  -49.3609 H         1 UNK         0.0600 
    205 H205       -2.2489  -23.1159  -48.9208 H         1 UNK         0.3000 
    206 H206       -2.9221  -23.6598  -51.6385 H         1 UNK         0.0600 
    207 H207       -2.6899  -21.3644  -50.7408 H         1 UNK         0.0600 
    208 H208       -4.2932  -21.5830  -51.4235 H         1 UNK         0.0600 
    209 H209       -4.0727  -21.6052  -49.6756 H         1 UNK         0.0600 
    210 H210       -4.7559  -24.0164  -48.6032 H         1 UNK         0.3000 
    211 H211       -6.5371  -25.1500  -47.9816 H         1 UNK         0.0600 
    212 H212       -5.9595  -26.9549  -50.3911 H         1 UNK         0.0600 
    213 H213       -6.8321  -27.4083  -48.9319 H         1 UNK         0.0600 
    214 H214       -5.1192  -27.0380  -48.8447 H         1 UNK         0.0600 
    215 H215       -7.0044  -22.9780  -49.9436 H         1 UNK         0.3000 
    216 H216       -8.5637  -21.9232  -51.0938 H         1 UNK         0.0600 
    217 H217      -10.9442  -22.3132  -50.6530 H         1 UNK         0.0600 
    218 H218      -10.0538  -22.4720  -49.1493 H         1 UNK         0.0600 
    219 H219      -10.6194  -23.9105  -49.9977 H         1 UNK         0.0600 
    220 H220       -7.1073  -24.2570  -52.3260 H         1 UNK         0.3000 
    221 H221       -8.8874  -25.3388  -54.3500 H         1 UNK         0.0600 
    222 H222       -5.8324  -25.4094  -54.1459 H         1 UNK         0.0600 
    223 H223       -6.9195  -26.5870  -53.4094 H         1 UNK         0.0600 
    224 H224       -6.8383  -26.4352  -55.1584 H         1 UNK         0.0600 
    225 H225       -7.2705  -22.3748  -54.0307 H         1 UNK         0.3000 
    226 H226       -6.9076  -20.5885  -55.2704 H         1 UNK         0.0600 
    227 H227       -9.2568  -20.7958  -56.0041 H         1 UNK         0.0600 
    228 H228       -8.2668  -20.1382  -57.2924 H         1 UNK         0.0600 
    229 H229       -8.7928  -21.8185  -57.3563 H         1 UNK         0.0600 
    230 H230       -7.0569  -21.6674  -58.4651 H         1 UNK         0.3000 
    231 H231       -5.5782  -21.8193  -60.1113 H         1 UNK         0.0600 
    232 H232       -3.8276  -23.3800  -58.1215 H         1 UNK         0.0600 
    233 H233       -3.6205  -23.3394  -59.8710 H         1 UNK         0.0600 
    234 H234       -5.0618  -24.0542  -59.1741 H         1 UNK         0.0600 
    235 H235       -2.5637  -21.7980  -58.5413 H         1 UNK         0.3000 
    236 H236       -1.8051  -19.1905  -59.3948 H         1 UNK         0.0600 
    237 H237       -0.1899  -21.0504  -59.0805 H         1 UNK         0.0600 
    238 H238        0.2647  -19.6808  -58.0794 H         1 UNK         0.0600 
    239 H239       -0.5174  -21.0759  -57.3466 H         1 UNK         0.0600 
    240 H240       -3.3604  -20.3021  -56.4561 H         1 UNK         0.3000 
    241 H241       -3.0484  -17.6709  -55.1121 H         1 UNK         0.0600 
    242 H242       -5.0691  -18.6029  -57.5536 H         1 UNK         0.3800 
    243 H243       -6.5116  -17.8207  -56.9626 H         1 UNK         0.3800 
    244 H244       -4.1779  -18.9309  -53.1611 H         1 UNK         0.0800 
    245 H245       -3.9732  -20.3919  -54.0809 H         1 UNK         0.0800 
    246 H246       -2.4755  -17.4751  -52.2370 H         1 UNK         0.0800 
    247 H247       -2.4599  -18.8123  -51.1133 H         1 UNK         0.0800 
@<TRIPOS>BOND
     1    1    2 1    
     2    1  127 1    
     3    1  128 1    
     4    1  129 1    
     5    2    3 2    
     6    2    4 am   BACKBONE|DICT|INTERRES
     7    4    5 1    
     8    4  130 1    
     9    5    6 1    
    10    5   65 1    
    11    5  131 1    
    12    6    7 1    
    13    6  132 1    
    14    6  133 1    
    15    7    8 1    
    16    8    9 1    
    17    8  134 1    
    18    8  135 1    
    19    9   10 ar   
    20    9   14 ar   
    21   10   11 ar   
    22   10  136 1    
    23   11   12 ar   
    24   11  126 1    
    25   12   13 ar   
    26   12  137 1    
    27   13   14 ar   
    28   13   15 1    
    29   14  138 1    
    30   15   16 1    
    31   15  139 1    
    32   15  140 1    
    33   16   17 1    
    34   17   18 1    
    35   17  141 1    
    36   17  142 1    
    37   18   19 1    
    38   18   67 1    
    39   18  143 1    
    40   19   20 am   BACKBONE|DICT|INTERRES
    41   19  144 1    
    42   20   21 2    
    43   20   22 1    
    44   22   23 1    
    45   22   24 1    
    46   22  145 1    
    47   23  146 1    
    48   23  147 1    
    49   23  148 1    
    50   24   25 am   BACKBONE|DICT|INTERRES
    51   24  149 1    
    52   25   26 2    
    53   25   27 1    
    54   27   28 1    
    55   27   29 1    
    56   27  150 1    
    57   28  151 1    
    58   28  152 1    
    59   28  153 1    
    60   29   30 am   BACKBONE|DICT|INTERRES
    61   29  154 1    
    62   30   31 2    
    63   30   32 1    
    64   32   33 1    
    65   32   34 1    
    66   32  155 1    
    67   33  156 1    
    68   33  157 1    
    69   33  158 1    
    70   34   35 am   BACKBONE|DICT|INTERRES
    71   34  159 1    
    72   35   36 2    
    73   35   37 1    
    74   37   38 1    
    75   37   39 1    
    76   37  160 1    
    77   38  161 1    
    78   38  162 1    
    79   38  163 1    
    80   39   40 am   BACKBONE|DICT|INTERRES
    81   39  164 1    
    82   40   41 2    
    83   40   42 1    
    84   42   43 1    
    85   42   44 1    
    86   42  165 1    
    87   43  166 1    
    88   43  167 1    
    89   43  168 1    
    90   44   45 am   BACKBONE|DICT|INTERRES
    91   44  169 1    
    92   45   46 2    
    93   45   47 1    
    94   47   48 1    
    95   47   49 1    
    96   47  170 1    
    97   48  171 1    
    98   48  172 1    
    99   48  173 1    
   100   49   50 am   BACKBONE|DICT|INTERRES
   101   49  174 1    
   102   50   51 2    
   103   50   52 1    
   104   52   53 1    
   105   52   54 1    
   106   52  175 1    
   107   53  176 1    
   108   53  177 1    
   109   53  178 1    
   110   54   55 am   BACKBONE|DICT|INTERRES
   111   54  179 1    
   112   55   56 2    
   113   55   57 1    
   114   57   58 1    
   115   57   59 1    
   116   57  180 1    
   117   58  181 1    
   118   58  182 1    
   119   58  183 1    
   120   59   60 am   BACKBONE|DICT|INTERRES
   121   59  184 1    
   122   60   61 2    
   123   60   62 1    
   124   62   63 1    
   125   62   64 1    
   126   62  185 1    
   127   63  186 1    
   128   63  187 1    
   129   63  188 1    
   130   64   65 am   BACKBONE|DICT|INTERRES
   131   64  189 1    
   132   65   66 2    
   133   67   68 2    
   134   67   69 am   BACKBONE|DICT|INTERRES
   135   69   70 1    
   136   69  190 1    
   137   70   71 1    
   138   70   72 1    
   139   70  191 1    
   140   71  192 1    
   141   71  193 1    
   142   71  194 1    
   143   72   73 2    
   144   72   74 am   BACKBONE|DICT|INTERRES
   145   74   75 1    
   146   74  195 1    
   147   75   76 1    
   148   75   77 1    
   149   75  196 1    
   150   76  197 1    
   151   76  198 1    
   152   76  199 1    
   153   77   78 2    
   154   77   79 am   BACKBONE|DICT|INTERRES
   155   79   80 1    
   156   79  200 1    
   157   80   81 1    
   158   80   82 1    
   159   80  201 1    
   160   81  202 1    
   161   81  203 1    
   162   81  204 1    
   163   82   83 2    
   164   82   84 am   BACKBONE|DICT|INTERRES
   165   84   85 1    
   166   84  205 1    
   167   85   86 1    
   168   85   87 1    
   169   85  206 1    
   170   86  207 1    
   171   86  208 1    
   172   86  209 1    
   173   87   88 2    
   174   87   89 am   BACKBONE|DICT|INTERRES
   175   89   90 1    
   176   89  210 1    
   177   90   91 1    
   178   90   92 1    
   179   90  211 1    
   180   91  212 1    
   181   91  213 1    
   182   91  214 1    
   183   92   93 2    
   184   92   94 am   BACKBONE|DICT|INTERRES
   185   94   95 1    
   186   94  215 1    
   187   95   96 1    
   188   95   97 1    
   189   95  216 1    
   190   96  217 1    
   191   96  218 1    
   192   96  219 1    
   193   97   98 2    
   194   97   99 am   BACKBONE|DICT|INTERRES
   195   99  100 1    
   196   99  220 1    
   197  100  101 1    
   198  100  102 1    
   199  100  221 1    
   200  101  222 1    
   201  101  223 1    
   202  101  224 1    
   203  102  103 2    
   204  102  104 am   BACKBONE|DICT|INTERRES
   205  104  105 1    
   206  104  225 1    
   207  105  106 1    
   208  105  107 1    
   209  105  226 1    
   210  106  227 1    
   211  106  228 1    
   212  106  229 1    
   213  107  108 2    
   214  107  109 am   BACKBONE|DICT|INTERRES
   215  109  110 1    
   216  109  230 1    
   217  110  111 1    
   218  110  112 1    
   219  110  231 1    
   220  111  232 1    
   221  111  233 1    
   222  111  234 1    
   223  112  113 2    
   224  112  114 am   BACKBONE|DICT|INTERRES
   225  114  115 1    
   226  114  235 1    
   227  115  116 1    
   228  115  117 1    
   229  115  236 1    
   230  116  237 1    
   231  116  238 1    
   232  116  239 1    
   233  117  118 2    
   234  117  119 am   BACKBONE|DICT|INTERRES
   235  119  120 1    
   236  119  240 1    
   237  120  121 1    
   238  120  124 1    
   239  120  241 1    
   240  121  122 am   BACKBONE|DICT|INTERRES
   241  121  123 2    
   242  122  242 1    
   243  122  243 1    
   244  124  125 1    
   245  124  244 1    
   246  124  245 1    
   247  125  126 1    
   248  126  246 1    
   249  126  247 1    
@<TRIPOS>SUBSTRUCTURE
     1 UNK         1 GROUP             0       ****    0 ROOT    
