@<TRIPOS>MOLECULE
3R540
247   249    1
SMALL
USER_CHARGES


@<TRIPOS>ATOM
      1 CA          2.3505  -16.0968  -47.9228 C.3       0 UNK        -0.1800 
      2 C           1.8616  -14.7234  -47.4875 C.2       0 UNK         0.5000 
      3 O           2.2880  -14.2184  -46.4512 O.2       0 UNK        -0.5000 
      4 N           0.9958  -14.0988  -48.2969 N.am      1 UNK        -0.5000 
      5 CA          0.3682  -12.7903  -48.0436 C.3       1 UNK         0.1400 
      6 C6         -0.7753  -12.4939  -49.0445 C.3       23 UNK        -0.0398 
      7 S7         -2.0957  -13.7516  -48.9885 S.3       23 UNK        -0.2404 
      8 C8         -1.8027  -14.7018  -50.5164 C.3       23 UNK        -0.0205 
      9 C9         -1.7308  -16.1948  -50.2359 C.ar      23 UNK        -0.0193 
     10 C10        -2.8544  -16.8715  -49.7570 C.ar      23 UNK        -0.1150 
     11 C11        -2.8009  -18.2427  -49.4932 C.ar      23 UNK        -0.0193 
     12 C12        -1.6116  -18.9382  -49.7318 C.ar      23 UNK        -0.1150 
     13 C13        -0.4687  -18.2753  -50.2007 C.ar      23 UNK        -0.0193 
     14 C14        -0.5447  -16.9018  -50.4521 C.ar      23 UNK        -0.1150 
     15 C15         0.8714  -18.9754  -50.4526 C.3       23 UNK        -0.0205 
     16 S16         1.0108  -20.7219  -49.9319 S.3       23 UNK        -0.2404 
     17 C17         0.9267  -20.5834  -48.1138 C.3       23 UNK        -0.0398 
     18 CA          0.6606  -21.9261  -47.3881 C.3       11 UNK         0.1400 
     19 N           0.6894  -21.7558  -45.9347 N.am      11 UNK        -0.5000 
     20 C           0.6400  -22.7476  -45.0346 C.2       10 UNK         0.5000 
     21 O           0.6318  -23.9422  -45.3285 O.2       10 UNK        -0.5000 
     22 CA          0.5215  -22.3315  -43.5579 C.3       10 UNK         0.1400 
     23 CB          1.8907  -21.9305  -42.9899 C.3       10 UNK        -0.1800 
     24 N          -0.4388  -21.2429  -43.3651 N.am      10 UNK        -0.5000 
     25 C          -1.7520  -21.3450  -43.6184 C.2       9 UNK         0.5000 
     26 O          -2.2956  -22.3920  -43.9720 O.2       9 UNK        -0.5000 
     27 CA         -2.5915  -20.0582  -43.5001 C.3       9 UNK         0.1400 
     28 CB         -2.9546  -19.7751  -42.0353 C.3       9 UNK        -0.1800 
     29 N          -1.9280  -18.8872  -44.0781 N.am      9 UNK        -0.5000 
     30 C          -1.6188  -18.7522  -45.3757 C.2       8 UNK         0.5000 
     31 O          -1.8976  -19.5905  -46.2298 O.2       8 UNK        -0.5000 
     32 CA         -0.8000  -17.5120  -45.7782 C.3       8 UNK         0.1400 
     33 CB         -1.6913  -16.2727  -45.9428 C.3       8 UNK        -0.1800 
     34 N           0.2742  -17.2372  -44.8227 N.am      8 UNK        -0.5000 
     35 C           1.3210  -18.0503  -44.6183 C.2       7 UNK         0.5000 
     36 O           1.5272  -19.0737  -45.2692 O.2       7 UNK        -0.5000 
     37 CA          2.2650  -17.6911  -43.4603 C.3       7 UNK         0.1400 
     38 CB          3.3218  -16.6740  -43.9128 C.3       7 UNK        -0.1800 
     39 N           1.5287  -17.1733  -42.3064 N.am      7 UNK        -0.5000 
     40 C           0.7832  -17.9389  -41.4946 C.2       6 UNK         0.5000 
     41 O           0.6755  -19.1575  -41.6244 O.2       6 UNK        -0.5000 
     42 CA         -0.0054  -17.2325  -40.3738 C.3       6 UNK         0.1400 
     43 CB          0.8526  -17.1157  -39.1055 C.3       6 UNK        -0.1800 
     44 N          -0.4840  -15.9037  -40.7524 N.am      6 UNK        -0.5000 
     45 C          -1.3451  -15.6517  -41.7481 C.2       5 UNK         0.5000 
     46 O          -1.8996  -16.5318  -42.4053 O.2       5 UNK        -0.5000 
     47 CA         -1.5823  -14.1707  -42.1093 C.3       5 UNK         0.1400 
     48 CB         -2.8623  -13.6539  -41.4367 C.3       5 UNK        -0.1800 
     49 N          -0.4646  -13.2794  -41.7700 N.am      5 UNK        -0.5000 
     50 C           0.7872  -13.4058  -42.2319 C.2       4 UNK         0.5000 
     51 O           1.1475  -14.3258  -42.9689 O.2       4 UNK        -0.5000 
     52 CA          1.8161  -12.3822  -41.7153 C.3       4 UNK         0.1400 
     53 CB          2.3008  -12.7831  -40.3126 C.3       4 UNK        -0.1800 
     54 N           2.9798  -12.2789  -42.5963 N.am      4 UNK        -0.5000 
     55 C           2.9611  -11.7557  -43.8285 C.2       3 UNK         0.5000 
     56 O           1.9685  -11.2033  -44.3103 O.2       3 UNK        -0.5000 
     57 CA          4.2725  -11.8351  -44.6378 C.3       3 UNK         0.1400 
     58 CB          5.0799  -13.1180  -44.3590 C.3       3 UNK        -0.1800 
     59 N           3.9647  -11.7873  -46.0633 N.am      3 UNK        -0.5000 
     60 C           4.2478  -10.7773  -46.8959 C.2       2 UNK         0.5000 
     61 O           4.8969   -9.7821  -46.5700 O.2       2 UNK        -0.5000 
     62 CA          3.7219  -10.8907  -48.3436 C.3       2 UNK         0.1400 
     63 CB          4.8475  -11.3334  -49.2914 C.3       2 UNK        -0.1800 
     64 N           2.6019  -11.8243  -48.4748 N.am      2 UNK        -0.5000 
     65 C           1.3638  -11.6064  -48.0088 C.2       1 UNK         0.5000 
     66 O           0.9948  -10.5221  -47.5561 O.2       1 UNK        -0.5000 
     67 C          -0.6381  -22.6266  -47.8496 C.2       11 UNK         0.5000 
     68 O          -0.5579  -23.5886  -48.6140 O.2       11 UNK        -0.5000 
     69 N          -1.7963  -22.1832  -47.3328 N.am      12 UNK        -0.5000 
     70 CA         -3.1101  -22.7847  -47.5788 C.3       12 UNK         0.1400 
     71 CB         -4.2072  -22.0180  -46.8191 C.3       12 UNK        -0.1800 
     72 C          -3.1614  -24.2702  -47.1905 C.2       12 UNK         0.5000 
     73 O          -3.6194  -25.0859  -47.9901 O.2       12 UNK        -0.5000 
     74 N          -2.6664  -24.5872  -45.9865 N.am      13 UNK        -0.5000 
     75 CA         -2.5891  -25.9438  -45.4494 C.3       13 UNK         0.1400 
     76 CB         -2.1872  -25.8818  -43.9680 C.3       13 UNK        -0.1800 
     77 C          -1.6289  -26.8498  -46.2410 C.2       13 UNK         0.5000 
     78 O          -1.9699  -28.0025  -46.5078 O.2       13 UNK        -0.5000 
     79 N          -0.4573  -26.3138  -46.6097 N.am      14 UNK        -0.5000 
     80 CA          0.5751  -27.0179  -47.3698 C.3       14 UNK         0.1400 
     81 CB          1.8772  -26.2022  -47.3455 C.3       14 UNK        -0.1800 
     82 C           0.1535  -27.3225  -48.8177 C.2       14 UNK         0.5000 
     83 O           0.3640  -28.4414  -49.2880 O.2       14 UNK        -0.5000 
     84 N          -0.4293  -26.3268  -49.4975 N.am      15 UNK        -0.5000 
     85 CA         -0.8657  -26.4322  -50.8904 C.3       15 UNK         0.1400 
     86 CB         -0.9553  -25.0203  -51.4875 C.3       15 UNK        -0.1800 
     87 C          -2.2116  -27.1618  -51.0569 C.2       15 UNK         0.5000 
     88 O          -2.4819  -27.6673  -52.1468 O.2       15 UNK        -0.5000 
     89 N          -3.0260  -27.1829  -49.9899 N.am      16 UNK        -0.5000 
     90 CA         -4.4439  -27.5600  -49.9615 C.3       16 UNK         0.1400 
     91 CB         -4.6553  -29.0394  -50.3478 C.3       16 UNK        -0.1800 
     92 C          -5.2824  -26.5673  -50.7948 C.2       16 UNK         0.5000 
     93 O          -6.0453  -26.9730  -51.6743 O.2       16 UNK        -0.5000 
     94 N          -5.0833  -25.2736  -50.4962 N.am      17 UNK        -0.5000 
     95 CA         -5.5835  -24.0910  -51.2082 C.3       17 UNK         0.1400 
     96 CB         -7.1259  -24.0393  -51.1649 C.3       17 UNK        -0.1800 
     97 C          -5.0084  -23.9691  -52.6398 C.2       17 UNK         0.5000 
     98 O          -4.0310  -24.6427  -52.9692 O.2       17 UNK        -0.5000 
     99 N          -5.5883  -23.0722  -53.4536 N.am      18 UNK        -0.5000 
    100 CA        -5.2623  -22.8133  -54.8667 C.3       18 UNK         0.1400 
    101 CB        -5.5555  -24.0604  -55.7276 C.3       18 UNK        -0.1800 
    102 C         -3.8456  -22.2452  -55.1238 C.2       18 UNK         0.5000 
    103 O         -3.3830  -22.2624  -56.2657 O.2       18 UNK        -0.5000 
    104 N         -3.1753  -21.7579  -54.0713 N.am      19 UNK        -0.5000 
    105 CA        -1.7751  -21.3324  -54.1070 C.3       19 UNK         0.1400 
    106 CB        -1.2289  -21.3281  -52.6736 C.3       19 UNK        -0.1800 
    107 C         -1.5532  -19.9535  -54.7543 C.2       19 UNK         0.5000 
    108 O         -0.5184  -19.7425  -55.3883 O.2       19 UNK        -0.5000 
    109 N         -2.5104  -19.0396  -54.5635 N.am      20 UNK        -0.5000 
    110 CA        -2.4558  -17.6435  -54.9914 C.3       20 UNK         0.1400 
    111 CB        -1.4251  -16.8580  -54.1468 C.3       20 UNK        -0.1800 
    112 C         -3.8849  -17.0854  -54.9112 C.2       20 UNK         0.5000 
    113 O         -4.7678  -17.6065  -55.5947 O.2       20 UNK        -0.5000 
    114 N         -4.1192  -16.0928  -54.0388 N.am      21 UNK        -0.5000 
    115 CA        -5.4403  -15.5262  -53.7312 C.3       21 UNK         0.1400 
    116 CB        -5.2722  -14.3565  -52.7497 C.3       21 UNK        -0.1800 
    117 C         -6.4297  -16.5637  -53.1604 C.2       21 UNK         0.5000 
    118 O         -7.6381  -16.4303  -53.3545 O.2       21 UNK        -0.5000 
    119 N         -5.8830  -17.5971  -52.5088 N.am      22 UNK        -0.5000 
    120 CA        -6.5868  -18.8083  -52.0654 C.3       22 UNK         0.1400 
    121 C         -6.9577  -19.7975  -53.2122 C.2       22 UNK         0.5000 
    122 N         -6.6564  -19.5229  -54.4758 N.am      22 UNK        -0.7600 
    123 O         -7.5237  -20.8548  -52.9500 O.2       22 UNK        -0.5000 
    124 C124       -5.8022  -19.5278  -50.9395 C.3       23 UNK        -0.0398 
    125 S125       -5.6213  -18.4763  -49.4620 S.3       23 UNK        -0.2404 
    126 C126       -3.9772  -18.9725  -48.8557 C.3       23 UNK        -0.0205 
    127 H127        1.8152  -16.8788  -47.3869 H         1 UNK         0.0600 
    128 H128        3.4138  -16.2042  -47.7086 H         1 UNK         0.0600 
    129 H129        2.2054  -16.2503  -48.9916 H         1 UNK         0.0600 
    130 H130        0.6743  -14.5725  -49.1274 H         1 UNK         0.3000 
    131 H131       -0.0703  -12.8415  -47.0444 H         1 UNK         0.0600 
    132 H132       -0.3890  -12.3891  -50.0593 H         1 UNK         0.0800 
    133 H133       -1.2449  -11.5373  -48.8073 H         1 UNK         0.0800 
    134 H134       -2.6150  -14.5047  -51.2151 H         1 UNK         0.0800 
    135 H135       -0.8922  -14.3678  -51.0146 H         1 UNK         0.0800 
    136 H136       -3.7619  -16.3182  -49.5613 H         1 UNK         0.1150 
    137 H137       -1.5804  -19.9962  -49.5194 H         1 UNK         0.1150 
    138 H138        0.3271  -16.3828  -50.8245 H         1 UNK         0.1150 
    139 H139        1.0777  -18.9306  -51.5228 H         1 UNK         0.0800 
    140 H140        1.6676  -18.4135  -49.9635 H         1 UNK         0.0800 
    141 H141        0.1690  -19.8513  -47.8402 H         1 UNK         0.0800 
    142 H142        1.8758  -20.1671  -47.7737 H         1 UNK         0.0800 
    143 H143        1.4850  -22.5973  -47.6377 H         1 UNK         0.0600 
    144 H144        0.7455  -20.7984  -45.5988 H         1 UNK         0.3000 
    145 H145        0.1626  -23.1970  -42.9971 H         1 UNK         0.0600 
    146 H146        1.8254  -21.7096  -41.9245 H         1 UNK         0.0600 
    147 H147        2.6145  -22.7374  -43.1109 H         1 UNK         0.0600 
    148 H148        2.2936  -21.0500  -43.4901 H         1 UNK         0.0600 
    149 H149       -0.0702  -20.3667  -43.0092 H         1 UNK         0.3000 
    150 H150       -3.5190  -20.2179  -44.0538 H         1 UNK         0.0600 
    151 H151       -3.4927  -20.6168  -41.5975 H         1 UNK         0.0600 
    152 H152       -3.5963  -18.8979  -41.9504 H         1 UNK         0.0600 
    153 H153       -2.0675  -19.6006  -41.4269 H         1 UNK         0.0600 
    154 H154       -1.7168  -18.1214  -43.4440 H         1 UNK         0.3000 
    155 H155       -0.3450  -17.7199  -46.7484 H         1 UNK         0.0600 
    156 H156       -2.1961  -16.0059  -45.0147 H         1 UNK         0.0600 
    157 H157       -2.4606  -16.4479  -46.6962 H         1 UNK         0.0600 
    158 H158       -1.1104  -15.4103  -46.2705 H         1 UNK         0.0600 
    159 H159        0.1795  -16.4163  -44.2411 H         1 UNK         0.3000 
    160 H160        2.7862  -18.6010  -43.1557 H         1 UNK         0.0600 
    161 H161        2.8641  -15.7586  -44.2860 H         1 UNK         0.0600 
    162 H162        3.9328  -17.0812  -44.7192 H         1 UNK         0.0600 
    163 H163        3.9924  -16.4066  -43.0962 H         1 UNK         0.0600 
    164 H164        1.5068  -16.1644  -42.2037 H         1 UNK         0.3000 
    165 H165       -0.8768  -17.8480  -40.1421 H         1 UNK         0.0600 
    166 H166        0.2806  -16.6929  -38.2794 H         1 UNK         0.0600 
    167 H167        1.2095  -18.0953  -38.7844 H         1 UNK         0.0600 
    168 H168        1.7272  -16.4841  -39.2675 H         1 UNK         0.0600 
    169 H169       -0.0787  -15.1192  -40.2647 H         1 UNK         0.3000 
    170 H170       -1.7214  -14.1228  -43.1913 H         1 UNK         0.0600 
    171 H171       -3.7178  -14.2815  -41.6903 H         1 UNK         0.0600 
    172 H172       -2.7709  -13.6469  -40.3498 H         1 UNK         0.0600 
    173 H173       -3.0980  -12.6403  -41.7617 H         1 UNK         0.0600 
    174 H174       -0.6801  -12.5114  -41.1504 H         1 UNK         0.3000 
    175 H175        1.3362  -11.4029  -41.6588 H         1 UNK         0.0600 
    176 H176        2.7823  -13.7621  -40.3173 H         1 UNK         0.0600 
    177 H177        3.0162  -12.0597  -39.9209 H         1 UNK         0.0600 
    178 H178        1.4712  -12.8290  -39.6061 H         1 UNK         0.0600 
    179 H179        3.8209  -12.7381  -42.2809 H         1 UNK         0.3000 
    180 H180        4.8807  -10.9769  -44.3463 H         1 UNK         0.0600 
    181 H181        4.4852  -14.0124  -44.5447 H         1 UNK         0.0600 
    182 H182        5.4344  -13.1574  -43.3288 H         1 UNK         0.0600 
    183 H183        5.9615  -13.1703  -44.9982 H         1 UNK         0.0600 
    184 H184        3.3654  -12.5392  -46.3905 H         1 UNK         0.3000 
    185 H185        3.3841   -9.8990  -48.6515 H         1 UNK         0.0600 
    186 H186        5.6911  -10.6433  -49.2451 H         1 UNK         0.0600 
    187 H187        5.2212  -12.3259  -49.0362 H         1 UNK         0.0600 
    188 H188        4.5059  -11.3577  -50.3263 H         1 UNK         0.0600 
    189 H189        2.8165  -12.7416  -48.8370 H         1 UNK         0.3000 
    190 H190       -1.7821  -21.3528  -46.7444 H         1 UNK         0.3000 
    191 H191       -3.3060  -22.7012  -48.6495 H         1 UNK         0.0600 
    192 H192       -4.1067  -20.9417  -46.9218 H         1 UNK         0.0600 
    193 H193       -5.1950  -22.2919  -47.1913 H         1 UNK         0.0600 
    194 H194       -4.1956  -22.2343  -45.7514 H         1 UNK         0.0600 
    195 H195       -2.3370  -23.8379  -45.3853 H         1 UNK         0.3000 
    196 H196       -3.5867  -26.3834  -45.5120 H         1 UNK         0.0600 
    197 H197       -2.1432  -26.8807  -43.5322 H         1 UNK         0.0600 
    198 H198       -2.9080  -25.3045  -43.3887 H         1 UNK         0.0600 
    199 H199       -1.2080  -25.4207  -43.8349 H         1 UNK         0.0600 
    200 H200       -0.2339  -25.3686  -46.3095 H         1 UNK         0.3000 
    201 H201        0.7664  -27.9711  -46.8724 H         1 UNK         0.0600 
    202 H202        2.2365  -26.0655  -46.3254 H         1 UNK         0.0600 
    203 H203        1.7412  -25.2140  -47.7865 H         1 UNK         0.0600 
    204 H204        2.6667  -26.7069  -47.9036 H         1 UNK         0.0600 
    205 H205       -0.5373  -25.4160  -49.0551 H         1 UNK         0.3000 
    206 H206       -0.1134  -26.9890  -51.4531 H         1 UNK         0.0600 
    207 H207       -0.0063  -24.4905  -51.4017 H         1 UNK         0.0600 
    208 H208       -1.2146  -25.0580  -52.5463 H         1 UNK         0.0600 
    209 H209       -1.7194  -24.4246  -50.9862 H         1 UNK         0.0600 
    210 H210       -2.7015  -26.7102  -49.1553 H         1 UNK         0.3000 
    211 H211       -4.7690  -27.4473  -48.9262 H         1 UNK         0.0600 
    212 H212       -4.4292  -29.2286  -51.3971 H         1 UNK         0.0600 
    213 H213       -5.6916  -29.3358  -50.1827 H         1 UNK         0.0600 
    214 H214       -4.0288  -29.6966  -49.7448 H         1 UNK         0.0600 
    215 H215       -4.4426  -25.0846  -49.7308 H         1 UNK         0.3000 
    216 H216       -5.2067  -23.2310  -50.6528 H         1 UNK         0.0600 
    217 H217       -7.5004  -23.0588  -51.4564 H         1 UNK         0.0600 
    218 H218       -7.4980  -24.2321  -50.1586 H         1 UNK         0.0600 
    219 H219       -7.5760  -24.7738  -51.8335 H         1 UNK         0.0600 
    220 H220       -6.3670  -22.5246  -53.0987 H         1 UNK         0.3000 
    221 H221       -5.9532  -22.0393  -55.1960 H         1 UNK         0.0600 
    222 H222       -4.8552  -24.8701  -55.5209 H         1 UNK         0.0600 
    223 H223       -6.5634  -24.4348  -55.5487 H         1 UNK         0.0600 
    224 H224       -5.4821  -23.8306  -56.7912 H         1 UNK         0.0600 
    225 H225       -3.6174  -21.8023  -53.1668 H         1 UNK         0.3000 
    226 H226       -1.2062  -22.0662  -54.6823 H         1 UNK         0.0600 
    227 H227       -1.3217  -22.3077  -52.2077 H         1 UNK         0.0600 
    228 H228       -0.1709  -21.0646  -52.6658 H         1 UNK         0.0600 
    229 H229       -1.7526  -20.6076  -52.0453 H         1 UNK         0.0600 
    230 H230       -3.3615  -19.3249  -54.1019 H         1 UNK         0.3000 
    231 H231       -2.1560  -17.6055  -56.0405 H         1 UNK         0.0600 
    232 H232       -1.6459  -16.9226  -53.0817 H         1 UNK         0.0600 
    233 H233       -1.4003  -15.8041  -54.4266 H         1 UNK         0.0600 
    234 H234       -0.4161  -17.2432  -54.2928 H         1 UNK         0.0600 
    235 H235       -3.3393  -15.7228  -53.5161 H         1 UNK         0.3000 
    236 H236       -5.8620  -15.1408  -54.6617 H         1 UNK         0.0600 
    237 H237       -4.5796  -13.6082  -53.1353 H         1 UNK         0.0600 
    238 H238       -6.2259  -13.8564  -52.5761 H         1 UNK         0.0600 
    239 H239       -4.9029  -14.6950  -51.7811 H         1 UNK         0.0600 
    240 H240       -4.8849  -17.5897  -52.3674 H         1 UNK         0.3000 
    241 H241       -7.5438  -18.4925  -51.6458 H         1 UNK         0.0600 
    242 H242       -6.1587  -18.6793  -54.7396 H         1 UNK         0.3800 
    243 H243       -6.9593  -20.1547  -55.1978 H         1 UNK         0.3800 
    244 H244       -6.3139  -20.4393  -50.6252 H         1 UNK         0.0800 
    245 H245       -4.8180  -19.8331  -51.2986 H         1 UNK         0.0800 
    246 H246       -3.8670  -20.0492  -48.9845 H         1 UNK         0.0800 
    247 H247       -3.9427  -18.7759  -47.7841 H         1 UNK         0.0800 
@<TRIPOS>BOND
     1    1    2 1    
     2    1  127 1    
     3    1  128 1    
     4    1  129 1    
     5    2    3 2    
     6    2    4 am   BACKBONE|DICT|INTERRES
     7    4    5 1    
     8    4  130 1    
     9    5    6 1    
    10    5   65 1    
    11    5  131 1    
    12    6    7 1    
    13    6  132 1    
    14    6  133 1    
    15    7    8 1    
    16    8    9 1    
    17    8  134 1    
    18    8  135 1    
    19    9   10 ar   
    20    9   14 ar   
    21   10   11 ar   
    22   10  136 1    
    23   11   12 ar   
    24   11  126 1    
    25   12   13 ar   
    26   12  137 1    
    27   13   14 ar   
    28   13   15 1    
    29   14  138 1    
    30   15   16 1    
    31   15  139 1    
    32   15  140 1    
    33   16   17 1    
    34   17   18 1    
    35   17  141 1    
    36   17  142 1    
    37   18   19 1    
    38   18   67 1    
    39   18  143 1    
    40   19   20 am   BACKBONE|DICT|INTERRES
    41   19  144 1    
    42   20   21 2    
    43   20   22 1    
    44   22   23 1    
    45   22   24 1    
    46   22  145 1    
    47   23  146 1    
    48   23  147 1    
    49   23  148 1    
    50   24   25 am   BACKBONE|DICT|INTERRES
    51   24  149 1    
    52   25   26 2    
    53   25   27 1    
    54   27   28 1    
    55   27   29 1    
    56   27  150 1    
    57   28  151 1    
    58   28  152 1    
    59   28  153 1    
    60   29   30 am   BACKBONE|DICT|INTERRES
    61   29  154 1    
    62   30   31 2    
    63   30   32 1    
    64   32   33 1    
    65   32   34 1    
    66   32  155 1    
    67   33  156 1    
    68   33  157 1    
    69   33  158 1    
    70   34   35 am   BACKBONE|DICT|INTERRES
    71   34  159 1    
    72   35   36 2    
    73   35   37 1    
    74   37   38 1    
    75   37   39 1    
    76   37  160 1    
    77   38  161 1    
    78   38  162 1    
    79   38  163 1    
    80   39   40 am   BACKBONE|DICT|INTERRES
    81   39  164 1    
    82   40   41 2    
    83   40   42 1    
    84   42   43 1    
    85   42   44 1    
    86   42  165 1    
    87   43  166 1    
    88   43  167 1    
    89   43  168 1    
    90   44   45 am   BACKBONE|DICT|INTERRES
    91   44  169 1    
    92   45   46 2    
    93   45   47 1    
    94   47   48 1    
    95   47   49 1    
    96   47  170 1    
    97   48  171 1    
    98   48  172 1    
    99   48  173 1    
   100   49   50 am   BACKBONE|DICT|INTERRES
   101   49  174 1    
   102   50   51 2    
   103   50   52 1    
   104   52   53 1    
   105   52   54 1    
   106   52  175 1    
   107   53  176 1    
   108   53  177 1    
   109   53  178 1    
   110   54   55 am   BACKBONE|DICT|INTERRES
   111   54  179 1    
   112   55   56 2    
   113   55   57 1    
   114   57   58 1    
   115   57   59 1    
   116   57  180 1    
   117   58  181 1    
   118   58  182 1    
   119   58  183 1    
   120   59   60 am   BACKBONE|DICT|INTERRES
   121   59  184 1    
   122   60   61 2    
   123   60   62 1    
   124   62   63 1    
   125   62   64 1    
   126   62  185 1    
   127   63  186 1    
   128   63  187 1    
   129   63  188 1    
   130   64   65 am   BACKBONE|DICT|INTERRES
   131   64  189 1    
   132   65   66 2    
   133   67   68 2    
   134   67   69 am   BACKBONE|DICT|INTERRES
   135   69   70 1    
   136   69  190 1    
   137   70   71 1    
   138   70   72 1    
   139   70  191 1    
   140   71  192 1    
   141   71  193 1    
   142   71  194 1    
   143   72   73 2    
   144   72   74 am   BACKBONE|DICT|INTERRES
   145   74   75 1    
   146   74  195 1    
   147   75   76 1    
   148   75   77 1    
   149   75  196 1    
   150   76  197 1    
   151   76  198 1    
   152   76  199 1    
   153   77   78 2    
   154   77   79 am   BACKBONE|DICT|INTERRES
   155   79   80 1    
   156   79  200 1    
   157   80   81 1    
   158   80   82 1    
   159   80  201 1    
   160   81  202 1    
   161   81  203 1    
   162   81  204 1    
   163   82   83 2    
   164   82   84 am   BACKBONE|DICT|INTERRES
   165   84   85 1    
   166   84  205 1    
   167   85   86 1    
   168   85   87 1    
   169   85  206 1    
   170   86  207 1    
   171   86  208 1    
   172   86  209 1    
   173   87   88 2    
   174   87   89 am   BACKBONE|DICT|INTERRES
   175   89   90 1    
   176   89  210 1    
   177   90   91 1    
   178   90   92 1    
   179   90  211 1    
   180   91  212 1    
   181   91  213 1    
   182   91  214 1    
   183   92   93 2    
   184   92   94 am   BACKBONE|DICT|INTERRES
   185   94   95 1    
   186   94  215 1    
   187   95   96 1    
   188   95   97 1    
   189   95  216 1    
   190   96  217 1    
   191   96  218 1    
   192   96  219 1    
   193   97   98 2    
   194   97   99 am   BACKBONE|DICT|INTERRES
   195   99  100 1    
   196   99  220 1    
   197  100  101 1    
   198  100  102 1    
   199  100  221 1    
   200  101  222 1    
   201  101  223 1    
   202  101  224 1    
   203  102  103 2    
   204  102  104 am   BACKBONE|DICT|INTERRES
   205  104  105 1    
   206  104  225 1    
   207  105  106 1    
   208  105  107 1    
   209  105  226 1    
   210  106  227 1    
   211  106  228 1    
   212  106  229 1    
   213  107  108 2    
   214  107  109 am   BACKBONE|DICT|INTERRES
   215  109  110 1    
   216  109  230 1    
   217  110  111 1    
   218  110  112 1    
   219  110  231 1    
   220  111  232 1    
   221  111  233 1    
   222  111  234 1    
   223  112  113 2    
   224  112  114 am   BACKBONE|DICT|INTERRES
   225  114  115 1    
   226  114  235 1    
   227  115  116 1    
   228  115  117 1    
   229  115  236 1    
   230  116  237 1    
   231  116  238 1    
   232  116  239 1    
   233  117  118 2    
   234  117  119 am   BACKBONE|DICT|INTERRES
   235  119  120 1    
   236  119  240 1    
   237  120  121 1    
   238  120  124 1    
   239  120  241 1    
   240  121  122 am   BACKBONE|DICT|INTERRES
   241  121  123 2    
   242  122  242 1    
   243  122  243 1    
   244  124  125 1    
   245  124  244 1    
   246  124  245 1    
   247  125  126 1    
   248  126  246 1    
   249  126  247 1    
@<TRIPOS>SUBSTRUCTURE
     1 UNK         1 GROUP             0       ****    0 ROOT    
