@<TRIPOS>MOLECULE
3R540
247   249    1
SMALL
USER_CHARGES


@<TRIPOS>ATOM
      1 CA          3.2220  -12.4291  -44.2017 C.3       0 UNK        -0.1800 
      2 C           4.0564  -13.5418  -44.8173 C.2       0 UNK         0.5000 
      3 O           4.9325  -14.0961  -44.1549 O.2       0 UNK        -0.5000 
      4 N           3.7795  -13.8840  -46.0818 N.am      1 UNK        -0.5000 
      5 CA          4.5152  -14.8727  -46.8868 C.3       1 UNK         0.1400 
      6 C6          4.1867  -14.7545  -48.3969 C.3       23 UNK        -0.0398 
      7 S7          2.4015  -14.7179  -48.7832 S.3       23 UNK        -0.2404 
      8 C8          2.4409  -14.7939  -50.6060 C.3       23 UNK        -0.0205 
      9 C9          2.0139  -16.1532  -51.1467 C.ar      23 UNK        -0.0193 
     10 C10         1.0361  -16.2357  -52.1425 C.ar      23 UNK        -0.1150 
     11 C11         0.6245  -17.4766  -52.6380 C.ar      23 UNK        -0.0193 
     12 C12         1.1904  -18.6443  -52.1170 C.ar      23 UNK        -0.1150 
     13 C13         2.1620  -18.5799  -51.1146 C.ar      23 UNK        -0.0193 
     14 C14         2.5914  -17.3289  -50.6605 C.ar      23 UNK        -0.1150 
     15 C15         2.7121  -19.8681  -50.5082 C.3       23 UNK        -0.0205 
     16 S16         2.8959  -19.8058  -48.6903 S.3       23 UNK        -0.2404 
     17 C17         1.2406  -19.2523  -48.1534 C.3       23 UNK        -0.0398 
     18 CA          0.4447  -20.3562  -47.4249 C.3       11 UNK         0.1400 
     19 N          -0.5615  -19.7901  -46.5250 N.am      11 UNK        -0.5000 
     20 C          -1.2678  -20.4991  -45.6349 C.2       10 UNK         0.5000 
     21 O          -1.1535  -21.7138  -45.4795 O.2       10 UNK        -0.5000 
     22 CA         -2.2959  -19.7274  -44.7954 C.3       10 UNK         0.1400 
     23 CB         -1.6319  -19.0910  -43.5669 C.3       10 UNK        -0.1800 
     24 N          -2.9905  -18.7016  -45.5708 N.am      10 UNK        -0.5000 
     25 C          -3.8980  -18.9637  -46.5202 C.2       9 UNK         0.5000 
     26 O          -4.2492  -20.0976  -46.8479 O.2       9 UNK        -0.5000 
     27 CA         -4.4665  -17.7467  -47.2665 C.3       9 UNK         0.1400 
     28 CB         -5.4333  -16.9476  -46.3808 C.3       9 UNK        -0.1800 
     29 N          -3.4109  -16.8729  -47.7783 N.am      9 UNK        -0.5000 
     30 C          -2.5240  -17.2387  -48.7166 C.2       8 UNK         0.5000 
     31 O          -2.5466  -18.3320  -49.2793 O.2       8 UNK        -0.5000 
     32 CA         -1.4077  -16.2396  -49.0739 C.3       8 UNK         0.1400 
     33 CB         -1.8145  -15.3971  -50.2913 C.3       8 UNK        -0.1800 
     34 N          -1.0229  -15.3427  -47.9831 N.am      8 UNK        -0.5000 
     35 C          -0.5920  -15.7180  -46.7713 C.2       7 UNK         0.5000 
     36 O          -0.5426  -16.8919  -46.4016 O.2       7 UNK        -0.5000 
     37 CA         -0.1552  -14.6027  -45.7977 C.3       7 UNK         0.1400 
     38 CB         -0.2689  -13.1744  -46.3779 C.3       7 UNK        -0.1800 
     39 N          -0.8594  -14.6676  -44.5160 N.am      7 UNK        -0.5000 
     40 C          -2.1894  -14.6635  -44.3255 C.2       6 UNK         0.5000 
     41 O          -3.0151  -14.7111  -45.2385 O.2       6 UNK        -0.5000 
     42 CA         -2.6924  -14.5677  -42.8693 C.3       6 UNK         0.1400 
     43 CB         -3.1025  -15.9503  -42.3451 C.3       6 UNK        -0.1800 
     44 N          -1.7128  -13.9904  -41.9469 N.am      6 UNK        -0.5000 
     45 C          -1.2660  -12.7275  -41.9819 C.2       5 UNK         0.5000 
     46 O          -1.7217  -11.8638  -42.7321 O.2       5 UNK        -0.5000 
     47 CA         -0.0992  -12.3689  -41.0382 C.3       5 UNK         0.1400 
     48 CB         -0.6045  -11.5225  -39.8593 C.3       5 UNK        -0.1800 
     49 N           0.6528  -13.5142  -40.5079 N.am      5 UNK        -0.5000 
     50 C           1.3533  -14.3959  -41.2326 C.2       4 UNK         0.5000 
     51 O           1.3608  -14.4276  -42.4677 O.2       4 UNK        -0.5000 
     52 CA          2.1566  -15.4384  -40.4458 C.3       4 UNK         0.1400 
     53 CB          1.3165  -16.7030  -40.1969 C.3       4 UNK        -0.1800 
     54 N           3.3300  -15.7687  -41.2385 N.am      4 UNK        -0.5000 
     55 C           4.4869  -16.2809  -40.8030 C.2       3 UNK         0.5000 
     56 O           4.7155  -16.5488  -39.6222 O.2       3 UNK        -0.5000 
     57 CA          5.5599  -16.5254  -41.8879 C.3       3 UNK         0.1400 
     58 CB          6.6334  -17.5557  -41.4778 C.3       3 UNK        -0.1800 
     59 N           4.9457  -16.8429  -43.1839 N.am      3 UNK        -0.5000 
     60 C           4.2442  -17.9441  -43.5006 C.2       2 UNK         0.5000 
     61 O           4.2283  -18.9659  -42.8140 O.2       2 UNK        -0.5000 
     62 CA          3.3424  -17.8787  -44.7518 C.3       2 UNK         0.1400 
     63 CB          1.8755  -18.0640  -44.3321 C.3       2 UNK        -0.1800 
     64 N           3.4579  -16.6153  -45.4868 N.am      2 UNK        -0.5000 
     65 C           4.4208  -16.3304  -46.3740 C.2       1 UNK         0.5000 
     66 O           5.2545  -17.1534  -46.7524 O.2       1 UNK        -0.5000 
     67 C          -0.1734  -21.3661  -48.4139 C.2       11 UNK         0.5000 
     68 O           0.3650  -22.4613  -48.5797 O.2       11 UNK        -0.5000 
     69 N          -1.3207  -21.0072  -49.0100 N.am      12 UNK        -0.5000 
     70 CA         -2.0947  -21.8960  -49.8727 C.3       12 UNK         0.1400 
     71 CB         -3.2019  -21.1103  -50.5781 C.3       12 UNK        -0.1800 
     72 C          -2.6872  -23.0851  -49.1023 C.2       12 UNK         0.5000 
     73 O          -2.5997  -24.2089  -49.5912 O.2       12 UNK        -0.5000 
     74 N          -3.2327  -22.8373  -47.9015 N.am      13 UNK        -0.5000 
     75 CA         -3.7849  -23.8757  -47.0275 C.3       13 UNK         0.1400 
     76 CB         -4.4575  -23.2319  -45.8070 C.3       13 UNK        -0.1800 
     77 C          -2.7351  -24.9171  -46.5943 C.2       13 UNK         0.5000 
     78 O          -3.0257  -26.1131  -46.6177 O.2       13 UNK        -0.5000 
     79 N          -1.5181  -24.4560  -46.2713 N.am      14 UNK        -0.5000 
     80 CA         -0.3577  -25.2963  -45.9627 C.3       14 UNK         0.1400 
     81 CB          0.7855  -24.4121  -45.4420 C.3       14 UNK        -0.1800 
     82 C           0.1155  -26.1446  -47.1606 C.2       14 UNK         0.5000 
     83 O           0.5894  -27.2637  -46.9626 O.2       14 UNK        -0.5000 
     84 N          -0.0526  -25.6142  -48.3790 N.am      15 UNK        -0.5000 
     85 CA          0.2154  -26.3001  -49.6450 C.3       15 UNK         0.1400 
     86 CB          0.5357  -25.2439  -50.7165 C.3       15 UNK        -0.1800 
     87 C          -0.9433  -27.2147  -50.1031 C.2       15 UNK         0.5000 
     88 O          -0.8070  -27.8755  -51.1336 O.2       15 UNK        -0.5000 
     89 N          -2.0550  -27.2316  -49.3503 N.am      16 UNK        -0.5000 
     90 CA         -3.3126  -27.9405  -49.6139 C.3       16 UNK         0.1400 
     91 CB         -3.1030  -29.4694  -49.6146 C.3       16 UNK        -0.1800 
     92 C          -4.0572  -27.4259  -50.8663 C.2       16 UNK         0.5000 
     93 O          -4.7709  -28.1903  -51.5190 O.2       16 UNK        -0.5000 
     94 N          -3.8917  -26.1337  -51.1667 N.am      17 UNK        -0.5000 
     95 CA         -4.5834  -25.4001  -52.2210 C.3       17 UNK         0.1400 
     96 CB         -3.5468  -24.5481  -52.9722 C.3       17 UNK        -0.1800 
     97 C          -5.6845  -24.5115  -51.6130 C.2       17 UNK         0.5000 
     98 O          -5.7711  -24.3678  -50.3903 O.2       17 UNK        -0.5000 
     99 N          -6.5133  -23.9232  -52.4844 N.am      18 UNK        -0.5000 
    100 CA        -7.5637  -22.9738  -52.1173 C.3       18 UNK         0.1400 
    101 CB        -8.4717  -22.7345  -53.3322 C.3       18 UNK        -0.1800 
    102 C         -6.9691  -21.6530  -51.5921 C.2       18 UNK         0.5000 
    103 O         -6.1096  -21.0676  -52.2582 O.2       18 UNK        -0.5000 
    104 N         -7.4372  -21.2284  -50.4098 N.am      19 UNK        -0.5000 
    105 CA        -6.9561  -20.0854  -49.6306 C.3       19 UNK         0.1400 
    106 CB        -7.8476  -19.9089  -48.3912 C.3       19 UNK        -0.1800 
    107 C         -6.8742  -18.7790  -50.4418 C.2       19 UNK         0.5000 
    108 O         -7.9090  -18.2511  -50.8508 O.2       19 UNK        -0.5000 
    109 N         -5.6394  -18.3117  -50.6745 N.am      20 UNK        -0.5000 
    110 CA        -5.2447  -17.0953  -51.3958 C.3       20 UNK         0.1400 
    111 CB        -5.8217  -15.8337  -50.7234 C.3       20 UNK        -0.1800 
    112 C         -5.5005  -17.1171  -52.9175 C.2       20 UNK         0.5000 
    113 O         -5.0802  -16.1854  -53.6048 O.2       20 UNK        -0.5000 
    114 N         -6.1314  -18.1804  -53.4313 N.am      21 UNK        -0.5000 
    115 CA        -6.2037  -18.4860  -54.8585 C.3       21 UNK         0.1400 
    116 CB        -7.4596  -19.3217  -55.1390 C.3       21 UNK        -0.1800 
    117 C         -4.9313  -19.2247  -55.3089 C.2       21 UNK         0.5000 
    118 O         -4.4498  -18.9825  -56.4158 O.2       21 UNK        -0.5000 
    119 N         -4.3965  -20.0772  -54.4213 N.am      22 UNK        -0.5000 
    120 CA        -3.0952  -20.7590  -54.5324 C.3       22 UNK         0.1400 
    121 C         -3.0244  -21.8667  -55.6278 C.2       22 UNK         0.5000 
    122 N         -4.1413  -22.3203  -56.1840 N.am      22 UNK        -0.7600 
    123 O         -1.9450  -22.3504  -55.9573 O.2       22 UNK        -0.5000 
    124 C124       -1.8933  -19.7730  -54.6109 C.3       23 UNK        -0.0398 
    125 S125       -1.8745  -18.5252  -53.2752 S.3       23 UNK        -0.2404 
    126 C126       -0.4109  -17.5513  -53.7517 C.3       23 UNK        -0.0205 
    127 H127        3.6075  -11.4561  -44.5050 H         1 UNK         0.0600 
    128 H128        3.2540  -12.4843  -43.1135 H         1 UNK         0.0600 
    129 H129        2.1799  -12.5033  -44.5100 H         1 UNK         0.0600 
    130 H130        3.0484  -13.3948  -46.5785 H         1 UNK         0.3000 
    131 H131        5.5715  -14.6139  -46.7845 H         1 UNK         0.0600 
    132 H132        4.6173  -13.8273  -48.7777 H         1 UNK         0.0800 
    133 H133        4.6697  -15.5514  -48.9650 H         1 UNK         0.0800 
    134 H134        3.4380  -14.5571  -50.9790 H         1 UNK         0.0800 
    135 H135        1.7810  -14.0125  -50.9856 H         1 UNK         0.0800 
    136 H136        0.5957  -15.3305  -52.5364 H         1 UNK         0.1150 
    137 H137        0.8607  -19.6051  -52.4867 H         1 UNK         0.1150 
    138 H138        3.3495  -17.2730  -49.8933 H         1 UNK         0.1150 
    139 H139        2.0654  -20.7117  -50.7555 H         1 UNK         0.0800 
    140 H140        3.6842  -20.0800  -50.9547 H         1 UNK         0.0800 
    141 H141        0.6629  -18.8449  -48.9828 H         1 UNK         0.0800 
    142 H142        1.4151  -18.4081  -47.4868 H         1 UNK         0.0800 
    143 H143        1.1398  -20.9099  -46.7895 H         1 UNK         0.0600 
    144 H144       -0.6940  -18.7824  -46.5583 H         1 UNK         0.3000 
    145 H145       -3.0340  -20.4491  -44.4397 H         1 UNK         0.0600 
    146 H146       -2.3857  -18.7774  -42.8463 H         1 UNK         0.0600 
    147 H147       -0.9797  -19.8010  -43.0564 H         1 UNK         0.0600 
    148 H148       -1.0298  -18.2221  -43.8343 H         1 UNK         0.0600 
    149 H149       -2.6966  -17.7450  -45.4322 H         1 UNK         0.3000 
    150 H150       -5.0346  -18.1221  -48.1149 H         1 UNK         0.0600 
    151 H151       -6.2512  -17.5783  -46.0305 H         1 UNK         0.0600 
    152 H152       -5.8761  -16.1171  -46.9309 H         1 UNK         0.0600 
    153 H153       -4.9371  -16.5396  -45.5003 H         1 UNK         0.0600 
    154 H154       -3.2993  -15.9744  -47.3265 H         1 UNK         0.3000 
    155 H155       -0.5222  -16.8175  -49.3439 H         1 UNK         0.0600 
    156 H156       -2.7237  -14.8253  -50.1019 H         1 UNK         0.0600 
    157 H157       -1.0272  -14.6955  -50.5670 H         1 UNK         0.0600 
    158 H158       -1.9956  -16.0318  -51.1596 H         1 UNK         0.0600 
    159 H159       -1.0469  -14.3556  -48.1908 H         1 UNK         0.3000 
    160 H160        0.8960  -14.7895  -45.5781 H         1 UNK         0.0600 
    161 H161       -1.2961  -12.9212  -46.6435 H         1 UNK         0.0600 
    162 H162        0.3486  -13.0520  -47.2680 H         1 UNK         0.0600 
    163 H163        0.0671  -12.4327  -45.6536 H         1 UNK         0.0600 
    164 H164       -0.2605  -14.6461  -43.6972 H         1 UNK         0.3000 
    165 H165       -3.5760  -13.9263  -42.8751 H         1 UNK         0.0600 
    166 H166       -3.6306  -15.8684  -41.3950 H         1 UNK         0.0600 
    167 H167       -3.7673  -16.4612  -43.0432 H         1 UNK         0.0600 
    168 H168       -2.2304  -16.5839  -42.1869 H         1 UNK         0.0600 
    169 H169       -1.2842  -14.6224  -41.2877 H         1 UNK         0.3000 
    170 H170        0.5993  -11.7621  -41.6183 H         1 UNK         0.0600 
    171 H171       -1.1399  -10.6393  -40.2106 H         1 UNK         0.0600 
    172 H172       -1.2863  -12.0878  -39.2227 H         1 UNK         0.0600 
    173 H173        0.2221  -11.1725  -39.2407 H         1 UNK         0.0600 
    174 H174        0.6856  -13.5860  -39.5009 H         1 UNK         0.3000 
    175 H175        2.4721  -15.0056  -39.4943 H         1 UNK         0.0600 
    176 H176        0.9900  -17.1594  -41.1326 H         1 UNK         0.0600 
    177 H177        1.8829  -17.4510  -39.6420 H         1 UNK         0.0600 
    178 H178        0.4246  -16.4731  -39.6129 H         1 UNK         0.0600 
    179 H179        3.2370  -15.5276  -42.2165 H         1 UNK         0.3000 
    180 H180        6.0675  -15.5698  -42.0261 H         1 UNK         0.0600 
    181 H181        6.1970  -18.5125  -41.1913 H         1 UNK         0.0600 
    182 H182        7.2070  -17.1958  -40.6231 H         1 UNK         0.0600 
    183 H183        7.3387  -17.7355  -42.2891 H         1 UNK         0.0600 
    184 H184        4.9024  -16.0521  -43.8190 H         1 UNK         0.3000 
    185 H185        3.6212  -18.7082  -45.4053 H         1 UNK         0.0600 
    186 H186        1.7362  -18.9741  -43.7473 H         1 UNK         0.0600 
    187 H187        1.5137  -17.2277  -43.7324 H         1 UNK         0.0600 
    188 H188        1.2354  -18.1550  -45.2026 H         1 UNK         0.0600 
    189 H189        2.8252  -15.8766  -45.2205 H         1 UNK         0.3000 
    190 H190       -1.7070  -20.0809  -48.8558 H         1 UNK         0.3000 
    191 H191       -1.4248  -22.2932  -50.6382 H         1 UNK         0.0600 
    192 H192       -3.8623  -20.6366  -49.8562 H         1 UNK         0.0600 
    193 H193       -3.8059  -21.7639  -51.2066 H         1 UNK         0.0600 
    194 H194       -2.7882  -20.3305  -51.2142 H         1 UNK         0.0600 
    195 H195       -3.2926  -21.8822  -47.5679 H         1 UNK         0.3000 
    196 H196       -4.5542  -24.4030  -47.5960 H         1 UNK         0.0600 
    197 H197       -4.8938  -23.9907  -45.1564 H         1 UNK         0.0600 
    198 H198       -5.2626  -22.5618  -46.1090 H         1 UNK         0.0600 
    199 H199       -3.7478  -22.6579  -45.2118 H         1 UNK         0.0600 
    200 H200       -1.3739  -23.4503  -46.2210 H         1 UNK         0.3000 
    201 H201       -0.6467  -25.9842  -45.1656 H         1 UNK         0.0600 
    202 H202        0.4876  -23.8724  -44.5429 H         1 UNK         0.0600 
    203 H203        1.0952  -23.6768  -46.1854 H         1 UNK         0.0600 
    204 H204        1.6601  -25.0118  -45.1870 H         1 UNK         0.0600 
    205 H205       -0.4295  -24.6771  -48.4503 H         1 UNK         0.3000 
    206 H206        1.0971  -26.9324  -49.5232 H         1 UNK         0.0600 
    207 H207        1.3614  -24.6035  -50.4055 H         1 UNK         0.0600 
    208 H208        0.8264  -25.7142  -51.6566 H         1 UNK         0.0600 
    209 H209       -0.3224  -24.6048  -50.9235 H         1 UNK         0.0600 
    210 H210       -2.0704  -26.6347  -48.5327 H         1 UNK         0.3000 
    211 H211       -3.9634  -27.7053  -48.7707 H         1 UNK         0.0600 
    212 H212       -2.5276  -29.8012  -50.4790 H         1 UNK         0.0600 
    213 H213       -4.0586  -29.9943  -49.6395 H         1 UNK         0.0600 
    214 H214       -2.5791  -29.7957  -48.7161 H         1 UNK         0.0600 
    215 H215       -3.3476  -25.5526  -50.5302 H         1 UNK         0.3000 
    216 H216       -5.0495  -26.0907  -52.9265 H         1 UNK         0.0600 
    217 H217       -4.0084  -24.0059  -53.7967 H         1 UNK         0.0600 
    218 H218       -2.7597  -25.1714  -53.3969 H         1 UNK         0.0600 
    219 H219       -3.0728  -23.8155  -52.3190 H         1 UNK         0.0600 
    220 H220       -6.3686  -24.0681  -53.4725 H         1 UNK         0.3000 
    221 H221       -8.1691  -23.4249  -51.3281 H         1 UNK         0.0600 
    222 H222       -7.8985  -22.4474  -54.2133 H         1 UNK         0.0600 
    223 H223       -9.0318  -23.6353  -53.5835 H         1 UNK         0.0600 
    224 H224       -9.1982  -21.9450  -53.1346 H         1 UNK         0.0600 
    225 H225       -8.1578  -21.7775  -49.9650 H         1 UNK         0.3000 
    226 H226       -5.9605  -20.3398  -49.2692 H         1 UNK         0.0600 
    227 H227       -7.8128  -20.7910  -47.7514 H         1 UNK         0.0600 
    228 H228       -7.5175  -19.0615  -47.7893 H         1 UNK         0.0600 
    229 H229       -8.8884  -19.7314  -48.6650 H         1 UNK         0.0600 
    230 H230       -4.8557  -18.8567  -50.3411 H         1 UNK         0.3000 
    231 H231       -4.1608  -17.0479  -51.2946 H         1 UNK         0.0600 
    232 H232       -5.4061  -14.9297  -51.1699 H         1 UNK         0.0600 
    233 H233       -5.5813  -15.8080  -49.6606 H         1 UNK         0.0600 
    234 H234       -6.9054  -15.7771  -50.8258 H         1 UNK         0.0600 
    235 H235       -6.4328  -18.9084  -52.7966 H         1 UNK         0.3000 
    236 H236       -6.2795  -17.5586  -55.4302 H         1 UNK         0.0600 
    237 H237       -8.3636  -18.7743  -54.8718 H         1 UNK         0.0600 
    238 H238       -7.5323  -19.5778  -56.1966 H         1 UNK         0.0600 
    239 H239       -7.4534  -20.2508  -54.5728 H         1 UNK         0.0600 
    240 H240       -4.9108  -20.2661  -53.5662 H         1 UNK         0.3000 
    241 H241       -2.9893  -21.3076  -53.5967 H         1 UNK         0.0600 
    242 H242       -5.0323  -21.9249  -55.9326 H         1 UNK         0.3800 
    243 H243       -4.0888  -23.0401  -56.8872 H         1 UNK         0.3800 
    244 H244       -0.9520  -20.3227  -54.5588 H         1 UNK         0.0800 
    245 H245       -1.8915  -19.2550  -55.5711 H         1 UNK         0.0800 
    246 H246        0.0633  -17.9781  -54.6362 H         1 UNK         0.0800 
    247 H247       -0.7446  -16.5529  -54.0384 H         1 UNK         0.0800 
@<TRIPOS>BOND
     1    1    2 1    
     2    1  127 1    
     3    1  128 1    
     4    1  129 1    
     5    2    3 2    
     6    2    4 am   BACKBONE|DICT|INTERRES
     7    4    5 1    
     8    4  130 1    
     9    5    6 1    
    10    5   65 1    
    11    5  131 1    
    12    6    7 1    
    13    6  132 1    
    14    6  133 1    
    15    7    8 1    
    16    8    9 1    
    17    8  134 1    
    18    8  135 1    
    19    9   10 ar   
    20    9   14 ar   
    21   10   11 ar   
    22   10  136 1    
    23   11   12 ar   
    24   11  126 1    
    25   12   13 ar   
    26   12  137 1    
    27   13   14 ar   
    28   13   15 1    
    29   14  138 1    
    30   15   16 1    
    31   15  139 1    
    32   15  140 1    
    33   16   17 1    
    34   17   18 1    
    35   17  141 1    
    36   17  142 1    
    37   18   19 1    
    38   18   67 1    
    39   18  143 1    
    40   19   20 am   BACKBONE|DICT|INTERRES
    41   19  144 1    
    42   20   21 2    
    43   20   22 1    
    44   22   23 1    
    45   22   24 1    
    46   22  145 1    
    47   23  146 1    
    48   23  147 1    
    49   23  148 1    
    50   24   25 am   BACKBONE|DICT|INTERRES
    51   24  149 1    
    52   25   26 2    
    53   25   27 1    
    54   27   28 1    
    55   27   29 1    
    56   27  150 1    
    57   28  151 1    
    58   28  152 1    
    59   28  153 1    
    60   29   30 am   BACKBONE|DICT|INTERRES
    61   29  154 1    
    62   30   31 2    
    63   30   32 1    
    64   32   33 1    
    65   32   34 1    
    66   32  155 1    
    67   33  156 1    
    68   33  157 1    
    69   33  158 1    
    70   34   35 am   BACKBONE|DICT|INTERRES
    71   34  159 1    
    72   35   36 2    
    73   35   37 1    
    74   37   38 1    
    75   37   39 1    
    76   37  160 1    
    77   38  161 1    
    78   38  162 1    
    79   38  163 1    
    80   39   40 am   BACKBONE|DICT|INTERRES
    81   39  164 1    
    82   40   41 2    
    83   40   42 1    
    84   42   43 1    
    85   42   44 1    
    86   42  165 1    
    87   43  166 1    
    88   43  167 1    
    89   43  168 1    
    90   44   45 am   BACKBONE|DICT|INTERRES
    91   44  169 1    
    92   45   46 2    
    93   45   47 1    
    94   47   48 1    
    95   47   49 1    
    96   47  170 1    
    97   48  171 1    
    98   48  172 1    
    99   48  173 1    
   100   49   50 am   BACKBONE|DICT|INTERRES
   101   49  174 1    
   102   50   51 2    
   103   50   52 1    
   104   52   53 1    
   105   52   54 1    
   106   52  175 1    
   107   53  176 1    
   108   53  177 1    
   109   53  178 1    
   110   54   55 am   BACKBONE|DICT|INTERRES
   111   54  179 1    
   112   55   56 2    
   113   55   57 1    
   114   57   58 1    
   115   57   59 1    
   116   57  180 1    
   117   58  181 1    
   118   58  182 1    
   119   58  183 1    
   120   59   60 am   BACKBONE|DICT|INTERRES
   121   59  184 1    
   122   60   61 2    
   123   60   62 1    
   124   62   63 1    
   125   62   64 1    
   126   62  185 1    
   127   63  186 1    
   128   63  187 1    
   129   63  188 1    
   130   64   65 am   BACKBONE|DICT|INTERRES
   131   64  189 1    
   132   65   66 2    
   133   67   68 2    
   134   67   69 am   BACKBONE|DICT|INTERRES
   135   69   70 1    
   136   69  190 1    
   137   70   71 1    
   138   70   72 1    
   139   70  191 1    
   140   71  192 1    
   141   71  193 1    
   142   71  194 1    
   143   72   73 2    
   144   72   74 am   BACKBONE|DICT|INTERRES
   145   74   75 1    
   146   74  195 1    
   147   75   76 1    
   148   75   77 1    
   149   75  196 1    
   150   76  197 1    
   151   76  198 1    
   152   76  199 1    
   153   77   78 2    
   154   77   79 am   BACKBONE|DICT|INTERRES
   155   79   80 1    
   156   79  200 1    
   157   80   81 1    
   158   80   82 1    
   159   80  201 1    
   160   81  202 1    
   161   81  203 1    
   162   81  204 1    
   163   82   83 2    
   164   82   84 am   BACKBONE|DICT|INTERRES
   165   84   85 1    
   166   84  205 1    
   167   85   86 1    
   168   85   87 1    
   169   85  206 1    
   170   86  207 1    
   171   86  208 1    
   172   86  209 1    
   173   87   88 2    
   174   87   89 am   BACKBONE|DICT|INTERRES
   175   89   90 1    
   176   89  210 1    
   177   90   91 1    
   178   90   92 1    
   179   90  211 1    
   180   91  212 1    
   181   91  213 1    
   182   91  214 1    
   183   92   93 2    
   184   92   94 am   BACKBONE|DICT|INTERRES
   185   94   95 1    
   186   94  215 1    
   187   95   96 1    
   188   95   97 1    
   189   95  216 1    
   190   96  217 1    
   191   96  218 1    
   192   96  219 1    
   193   97   98 2    
   194   97   99 am   BACKBONE|DICT|INTERRES
   195   99  100 1    
   196   99  220 1    
   197  100  101 1    
   198  100  102 1    
   199  100  221 1    
   200  101  222 1    
   201  101  223 1    
   202  101  224 1    
   203  102  103 2    
   204  102  104 am   BACKBONE|DICT|INTERRES
   205  104  105 1    
   206  104  225 1    
   207  105  106 1    
   208  105  107 1    
   209  105  226 1    
   210  106  227 1    
   211  106  228 1    
   212  106  229 1    
   213  107  108 2    
   214  107  109 am   BACKBONE|DICT|INTERRES
   215  109  110 1    
   216  109  230 1    
   217  110  111 1    
   218  110  112 1    
   219  110  231 1    
   220  111  232 1    
   221  111  233 1    
   222  111  234 1    
   223  112  113 2    
   224  112  114 am   BACKBONE|DICT|INTERRES
   225  114  115 1    
   226  114  235 1    
   227  115  116 1    
   228  115  117 1    
   229  115  236 1    
   230  116  237 1    
   231  116  238 1    
   232  116  239 1    
   233  117  118 2    
   234  117  119 am   BACKBONE|DICT|INTERRES
   235  119  120 1    
   236  119  240 1    
   237  120  121 1    
   238  120  124 1    
   239  120  241 1    
   240  121  122 am   BACKBONE|DICT|INTERRES
   241  121  123 2    
   242  122  242 1    
   243  122  243 1    
   244  124  125 1    
   245  124  244 1    
   246  124  245 1    
   247  125  126 1    
   248  126  246 1    
   249  126  247 1    
@<TRIPOS>SUBSTRUCTURE
     1 UNK         1 GROUP             0       ****    0 ROOT    
