@<TRIPOS>MOLECULE
3R540
247   249    1
SMALL
USER_CHARGES


@<TRIPOS>ATOM
      1 CA          4.1268  -17.7099  -45.7691 C.3       0 UNK        -0.1800 
      2 C           3.8104  -16.5476  -46.6984 C.2       0 UNK         0.5000 
      3 O           3.0282  -15.6727  -46.3348 O.2       0 UNK        -0.5000 
      4 N           4.4258  -16.5277  -47.8883 N.am      1 UNK        -0.5000 
      5 CA          4.2137  -15.5236  -48.9412 C.3       1 UNK         0.1400 
      6 C6          4.9928  -15.8927  -50.2298 C.3       23 UNK        -0.0398 
      7 S7          4.2360  -15.1767  -51.7278 S.3       23 UNK        -0.2404 
      8 C8          3.6513  -16.6639  -52.5986 C.3       23 UNK        -0.0205 
      9 C9          2.6109  -17.4394  -51.8025 C.ar      23 UNK        -0.0193 
     10 C10         1.3309  -16.9103  -51.6161 C.ar      23 UNK        -0.1150 
     11 C11         0.3461  -17.6382  -50.9350 C.ar      23 UNK        -0.0193 
     12 C12         0.6688  -18.9067  -50.4402 C.ar      23 UNK        -0.1150 
     13 C13         1.9493  -19.4432  -50.6054 C.ar      23 UNK        -0.0193 
     14 C14         2.9168  -18.7015  -51.2863 C.ar      23 UNK        -0.1150 
     15 C15         2.2708  -20.8509  -50.1193 C.3       23 UNK        -0.0205 
     16 S16         3.0137  -20.9036  -48.4499 S.3       23 UNK        -0.2404 
     17 C17         1.6219  -20.4744  -47.3476 C.3       23 UNK        -0.0398 
     18 CA          0.7929  -21.6850  -46.8384 C.3       11 UNK         0.1400 
     19 N          -0.0574  -21.3190  -45.6992 N.am      11 UNK        -0.5000 
     20 C          -0.8539  -22.1540  -45.0145 C.2       10 UNK         0.5000 
     21 O          -0.8932  -23.3692  -45.2030 O.2       10 UNK        -0.5000 
     22 CA         -1.8138  -21.5226  -43.9875 C.3       10 UNK         0.1400 
     23 CB         -1.1085  -21.2926  -42.6434 C.3       10 UNK        -0.1800 
     24 N          -2.4143  -20.2731  -44.4633 N.am      10 UNK        -0.5000 
     25 C          -3.2436  -20.1867  -45.5147 C.2       9 UNK         0.5000 
     26 O          -3.6267  -21.1607  -46.1593 O.2       9 UNK        -0.5000 
     27 CA         -3.6762  -18.7789  -45.9625 C.3       9 UNK         0.1400 
     28 CB         -4.8432  -18.2647  -45.1081 C.3       9 UNK        -0.1800 
     29 N          -2.5714  -17.8198  -45.9354 N.am      9 UNK        -0.5000 
     30 C          -1.4705  -17.9165  -46.6950 C.2       8 UNK         0.5000 
     31 O          -1.3145  -18.7896  -47.5493 O.2       8 UNK        -0.5000 
     32 CA         -0.3289  -16.9219  -46.4023 C.3       8 UNK         0.1400 
     33 CB         -0.5866  -15.5571  -47.0559 C.3       8 UNK        -0.1800 
     34 N          -0.1182  -16.7406  -44.9660 N.am      8 UNK        -0.5000 
     35 C           0.2947  -17.7046  -44.1334 C.2       7 UNK         0.5000 
     36 O           0.6158  -18.8316  -44.5059 O.2       7 UNK        -0.5000 
     37 CA          0.2918  -17.3800  -42.6302 C.3       7 UNK         0.1400 
     38 CB          1.5974  -16.6993  -42.2009 C.3       7 UNK        -0.1800 
     39 N          -0.8456  -16.5404  -42.2576 N.am      7 UNK        -0.5000 
     40 C          -2.1085  -16.9783  -42.1716 C.2       6 UNK         0.5000 
     41 O          -2.4366  -18.1495  -42.3588 O.2       6 UNK        -0.5000 
     42 CA         -3.1877  -15.9245  -41.8580 C.3       6 UNK         0.1400 
     43 CB         -3.2959  -15.6961  -40.3431 C.3       6 UNK        -0.1800 
     44 N          -2.9400  -14.6441  -42.5242 N.am      6 UNK        -0.5000 
     45 C          -3.0036  -14.4599  -43.8504 C.2       5 UNK         0.5000 
     46 O          -3.3187  -15.3441  -44.6452 O.2       5 UNK        -0.5000 
     47 CA         -2.6010  -13.0712  -44.3851 C.3       5 UNK         0.1400 
     48 CB         -3.8167  -12.1331  -44.4105 C.3       5 UNK        -0.1800 
     49 N          -1.5089  -12.4298  -43.6435 N.am      5 UNK        -0.5000 
     50 C          -0.2940  -12.9606  -43.4492 C.2       4 UNK         0.5000 
     51 O           0.0166  -14.0952  -43.8159 O.2       4 UNK        -0.5000 
     52 CA          0.7119  -12.0982  -42.6613 C.3       4 UNK         0.1400 
     53 CB          0.3652  -12.1178  -41.1634 C.3       4 UNK        -0.1800 
     54 N           2.0961  -12.5504  -42.8184 N.am      4 UNK        -0.5000 
     55 C           2.7957  -12.5356  -43.9608 C.2       3 UNK         0.5000 
     56 O           2.3688  -12.0542  -45.0140 O.2       3 UNK        -0.5000 
     57 CA          4.2189  -13.1284  -43.8882 C.3       3 UNK         0.1400 
     58 CB          4.2509  -14.5165  -43.2239 C.3       3 UNK        -0.1800 
     59 N           4.8124  -13.2534  -45.2164 N.am      3 UNK        -0.5000 
     60 C           5.5889  -12.3366  -45.8060 C.2       2 UNK         0.5000 
     61 O           5.8972  -11.2665  -45.2782 O.2       2 UNK        -0.5000 
     62 CA          6.1494  -12.6742  -47.2030 C.3       2 UNK         0.1400 
     63 CB          7.6857  -12.7382  -47.1686 C.3       2 UNK        -0.1800 
     64 N           5.6497  -13.9467  -47.7296 N.am      2 UNK        -0.5000 
     65 C           4.5547  -14.0841  -48.4891 C.2       1 UNK         0.5000 
     66 O           3.8315  -13.1449  -48.8231 O.2       1 UNK        -0.5000 
     67 C          -0.0477  -22.3116  -47.9682 C.2       11 UNK         0.5000 
     68 O           0.2670  -23.4057  -48.4363 O.2       11 UNK        -0.5000 
     69 N          -1.1243  -21.6181  -48.3603 N.am      12 UNK        -0.5000 
     70 CA         -2.0607  -22.0636  -49.3880 C.3       12 UNK         0.1400 
     71 CB         -3.0150  -20.9136  -49.7225 C.3       12 UNK        -0.1800 
     72 C          -2.8335  -23.3391  -49.0007 C.2       12 UNK         0.5000 
     73 O          -3.0845  -24.1785  -49.8643 O.2       12 UNK        -0.5000 
     74 N          -3.1826  -23.4806  -47.7155 N.am      13 UNK        -0.5000 
     75 CA         -3.8131  -24.6756  -47.1552 C.3       13 UNK         0.1400 
     76 CB         -4.3066  -24.3904  -45.7294 C.3       13 UNK        -0.1800 
     77 C          -2.8695  -25.8904  -47.1788 C.2       13 UNK         0.5000 
     78 O          -3.2901  -26.9713  -47.5901 O.2       13 UNK        -0.5000 
     79 N          -1.6009  -25.6831  -46.7958 N.am      14 UNK        -0.5000 
     80 CA         -0.5343  -26.6874  -46.8557 C.3       14 UNK         0.1400 
     81 CB          0.7170  -26.1511  -46.1442 C.3       14 UNK        -0.1800 
     82 C          -0.2015  -27.1238  -48.2959 C.2       14 UNK         0.5000 
     83 O           0.0932  -28.2973  -48.5243 O.2       14 UNK        -0.5000 
     84 N          -0.3027  -26.1836  -49.2450 N.am      15 UNK        -0.5000 
     85 CA         -0.1837  -26.4172  -50.6859 C.3       15 UNK         0.1400 
     86 CB          0.0876  -25.0729  -51.3817 C.3       15 UNK        -0.1800 
     87 C          -1.4171  -27.1091  -51.3093 C.2       15 UNK         0.5000 
     88 O          -1.3602  -27.4749  -52.4840 O.2       15 UNK        -0.5000 
     89 N          -2.5019  -27.2646  -50.5326 N.am      16 UNK        -0.5000 
     90 CA         -3.8058  -27.8220  -50.9100 C.3       16 UNK         0.1400 
     91 CB         -3.6858  -29.3140  -51.2843 C.3       16 UNK        -0.1800 
     92 C          -4.5309  -26.9804  -51.9817 C.2       16 UNK         0.5000 
     93 O          -5.2477  -27.5253  -52.8227 O.2       16 UNK        -0.5000 
     94 N          -4.3421  -25.6576  -51.9182 N.am      17 UNK        -0.5000 
     95 CA         -4.8718  -24.6635  -52.8475 C.3       17 UNK         0.1400 
     96 CB         -3.7047  -23.7809  -53.3165 C.3       17 UNK        -0.1800 
     97 C          -6.0094  -23.8585  -52.1901 C.2       17 UNK         0.5000 
     98 O          -6.0463  -22.6299  -52.2888 O.2       17 UNK        -0.5000 
     99 N          -6.9105  -24.5762  -51.5005 N.am      18 UNK        -0.5000 
    100 CA        -8.1709  -24.1104  -50.9001 C.3       18 UNK         0.1400 
    101 CB        -9.1711  -23.7419  -52.0158 C.3       18 UNK        -0.1800 
    102 C         -8.0301  -22.9746  -49.8609 C.2       18 UNK         0.5000 
    103 O         -9.0124  -22.2867  -49.5795 O.2       18 UNK        -0.5000 
    104 N         -6.8134  -22.7868  -49.3268 N.am      19 UNK        -0.5000 
    105 CA        -6.3923  -21.6798  -48.4595 C.3       19 UNK         0.1400 
    106 CB        -7.1175  -21.7331  -47.0990 C.3       19 UNK        -0.1800 
    107 C         -6.4960  -20.2935  -49.1414 C.2       19 UNK         0.5000 
    108 O         -6.6340  -19.2851  -48.4477 O.2       19 UNK        -0.5000 
    109 N         -6.4265  -20.2590  -50.4815 N.am      20 UNK        -0.5000 
    110 CA        -6.6575  -19.0676  -51.2969 C.3       20 UNK         0.1400 
    111 CB        -8.1688  -18.9112  -51.5578 C.3       20 UNK        -0.1800 
    112 C         -5.8224  -19.1179  -52.5890 C.2       20 UNK         0.5000 
    113 O         -6.3493  -18.8913  -53.6795 O.2       20 UNK        -0.5000 
    114 N         -4.5216  -19.4088  -52.4467 N.am      21 UNK        -0.5000 
    115 CA        -3.5596  -19.4633  -53.5560 C.3       21 UNK         0.1400 
    116 CB        -2.3301  -20.2811  -53.1257 C.3       21 UNK        -0.1800 
    117 C         -3.1067  -18.0736  -54.0497 C.2       21 UNK         0.5000 
    118 O         -2.4596  -17.9881  -55.0942 O.2       21 UNK        -0.5000 
    119 N         -3.4145  -17.0211  -53.2853 N.am      22 UNK        -0.5000 
    120 CA        -2.9777  -15.6420  -53.5150 C.3       22 UNK         0.1400 
    121 C         -4.0342  -14.6188  -53.0137 C.2       22 UNK         0.5000 
    122 N         -3.8904  -13.3479  -53.3644 N.am      22 UNK        -0.7600 
    123 O         -4.9839  -14.9610  -52.3105 O.2       22 UNK        -0.5000 
    124 C124       -1.5450  -15.3990  -52.9585 C.3       23 UNK        -0.0398 
    125 S125       -1.4066  -15.3762  -51.1312 S.3       23 UNK        -0.2404 
    126 C126       -1.0819  -17.1281  -50.7249 C.3       23 UNK        -0.0205 
    127 H127        4.7720  -17.3757  -44.9568 H         1 UNK         0.0600 
    128 H128        4.6261  -18.5239  -46.2952 H         1 UNK         0.0600 
    129 H129        3.2083  -18.1022  -45.3336 H         1 UNK         0.0600 
    130 H130        5.0630  -17.2766  -48.1187 H         1 UNK         0.3000 
    131 H131        3.1444  -15.5492  -49.1652 H         1 UNK         0.0600 
    132 H132        5.0325  -16.9756  -50.3487 H         1 UNK         0.0800 
    133 H133        6.0356  -15.5747  -50.1734 H         1 UNK         0.0800 
    134 H134        4.5069  -17.2961  -52.8414 H         1 UNK         0.0800 
    135 H135        3.2165  -16.3636  -53.5529 H         1 UNK         0.0800 
    136 H136        1.1166  -15.9316  -52.0179 H         1 UNK         0.1150 
    137 H137       -0.0884  -19.4850  -49.9310 H         1 UNK         0.1150 
    138 H138        3.9024  -19.1199  -51.4346 H         1 UNK         0.1150 
    139 H139        1.3792  -21.4744  -50.1651 H         1 UNK         0.0800 
    140 H140        2.9751  -21.3129  -50.8127 H         1 UNK         0.0800 
    141 H141        0.9964  -19.7253  -47.8262 H         1 UNK         0.0800 
    142 H142        2.0661  -19.9680  -46.4907 H         1 UNK         0.0800 
    143 H143        1.4865  -22.4485  -46.4803 H         1 UNK         0.0600 
    144 H144       -0.0359  -20.3423  -45.4176 H         1 UNK         0.3000 
    145 H145       -2.6272  -22.2305  -43.8178 H         1 UNK         0.0600 
    146 H146       -0.2669  -20.6079  -42.7386 H         1 UNK         0.0600 
    147 H147       -1.7942  -20.8817  -41.9023 H         1 UNK         0.0600 
    148 H148       -0.7213  -22.2305  -42.2436 H         1 UNK         0.0600 
    149 H149       -2.1909  -19.4312  -43.9441 H         1 UNK         0.3000 
    150 H150       -4.0249  -18.8533  -46.9946 H         1 UNK         0.0600 
    151 H151       -5.6837  -18.9590  -45.1393 H         1 UNK         0.0600 
    152 H152       -5.2037  -17.3033  -45.4742 H         1 UNK         0.0600 
    153 H153       -4.5571  -18.1397  -44.0640 H         1 UNK         0.0600 
    154 H154       -2.6647  -17.0339  -45.2983 H         1 UNK         0.3000 
    155 H155        0.5911  -17.3308  -46.8252 H         1 UNK         0.0600 
    156 H156       -0.6121  -15.6425  -48.1413 H         1 UNK         0.0600 
    157 H157        0.2042  -14.8479  -46.8082 H         1 UNK         0.0600 
    158 H158       -1.5354  -15.1272  -46.7368 H         1 UNK         0.0600 
    159 H159       -0.2837  -15.8123  -44.5866 H         1 UNK         0.3000 
    160 H160        0.2168  -18.3247  -42.0881 H         1 UNK         0.0600 
    161 H161        1.6855  -15.7040  -42.6320 H         1 UNK         0.0600 
    162 H162        2.4661  -17.2776  -42.5185 H         1 UNK         0.0600 
    163 H163        1.6501  -16.5982  -41.1169 H         1 UNK         0.0600 
    164 H164       -0.6671  -15.5491  -42.1812 H         1 UNK         0.3000 
    165 H165       -4.1445  -16.3134  -42.2132 H         1 UNK         0.0600 
    166 H166       -4.1097  -15.0109  -40.1049 H         1 UNK         0.0600 
    167 H167       -3.4975  -16.6325  -39.8211 H         1 UNK         0.0600 
    168 H168       -2.3754  -15.2814  -39.9302 H         1 UNK         0.0600 
    169 H169       -2.6722  -13.8655  -41.9408 H         1 UNK         0.3000 
    170 H170       -2.2573  -13.2066  -45.4122 H         1 UNK         0.0600 
    171 H171       -4.6394  -12.5749  -44.9746 H         1 UNK         0.0600 
    172 H172       -4.1838  -11.9220  -43.4053 H         1 UNK         0.0600 
    173 H173       -3.5729  -11.1830  -44.8862 H         1 UNK         0.0600 
    174 H174       -1.6949  -11.5009  -43.2936 H         1 UNK         0.3000 
    175 H175        0.6458  -11.0722  -43.0288 H         1 UNK         0.0600 
    176 H176        0.4182  -13.1267  -40.7515 H         1 UNK         0.0600 
    177 H177        1.0468  -11.4868  -40.5926 H         1 UNK         0.0600 
    178 H178       -0.6433  -11.7431  -40.9843 H         1 UNK         0.0600 
    179 H179        2.5170  -12.9707  -42.0037 H         1 UNK         0.3000 
    180 H180        4.8204  -12.4513  -43.2783 H         1 UNK         0.0600 
    181 H181        3.6359  -15.2317  -43.7686 H         1 UNK         0.0600 
    182 H182        3.8947  -14.4834  -42.1942 H         1 UNK         0.0600 
    183 H183        5.2663  -14.9121  -43.1942 H         1 UNK         0.0600 
    184 H184        4.5089  -14.0506  -45.7603 H         1 UNK         0.3000 
    185 H185        5.8614  -11.8611  -47.8726 H         1 UNK         0.0600 
    186 H186        8.0943  -12.9364  -48.1597 H         1 UNK         0.0600 
    187 H187        8.1114  -11.7934  -46.8281 H         1 UNK         0.0600 
    188 H188        8.0411  -13.5197  -46.4958 H         1 UNK         0.0600 
    189 H189        6.1741  -14.7738  -47.4828 H         1 UNK         0.3000 
    190 H190       -1.3089  -20.7150  -47.9316 H         1 UNK         0.3000 
    191 H191       -1.4859  -22.2934  -50.2871 H         1 UNK         0.0600 
    192 H192       -2.4760  -20.0736  -50.1578 H         1 UNK         0.0600 
    193 H193       -3.7705  -21.2379  -50.4379 H         1 UNK         0.0600 
    194 H194       -3.5219  -20.5415  -48.8335 H         1 UNK         0.0600 
    195 H195       -3.0234  -22.7065  -47.0761 H         1 UNK         0.3000 
    196 H196       -4.6832  -24.9144  -47.7705 H         1 UNK         0.0600 
    197 H197       -4.8394  -25.2508  -45.3230 H         1 UNK         0.0600 
    198 H198       -4.9919  -23.5437  -45.7091 H         1 UNK         0.0600 
    199 H199       -3.4821  -24.1671  -45.0532 H         1 UNK         0.0600 
    200 H200       -1.3418  -24.7698  -46.4309 H         1 UNK         0.3000 
    201 H201       -0.8794  -27.5711  -46.3152 H         1 UNK         0.0600 
    202 H202        0.5052  -25.9136  -45.1016 H         1 UNK         0.0600 
    203 H203        1.0961  -25.2471  -46.6214 H         1 UNK         0.0600 
    204 H204        1.5193  -26.8897  -46.1538 H         1 UNK         0.0600 
    205 H205       -0.4643  -25.2246  -48.9543 H         1 UNK         0.3000 
    206 H206        0.6757  -27.0682  -50.8577 H         1 UNK         0.0600 
    207 H207        0.9673  -24.5811  -50.9658 H         1 UNK         0.0600 
    208 H208        0.2680  -25.2128  -52.4482 H         1 UNK         0.0600 
    209 H209       -0.7568  -24.3917  -51.2812 H         1 UNK         0.0600 
    210 H210       -2.4472  -26.9266  -49.5797 H         1 UNK         0.3000 
    211 H211       -4.4269  -27.7615  -50.0155 H         1 UNK         0.0600 
    212 H212       -3.1394  -29.4575  -52.2167 H         1 UNK         0.0600 
    213 H213       -4.6706  -29.7650  -51.4116 H         1 UNK         0.0600 
    214 H214       -3.1719  -29.8752  -50.5038 H         1 UNK         0.0600 
    215 H215       -3.7759  -25.2810  -51.1595 H         1 UNK         0.3000 
    216 H216       -5.2987  -25.1476  -53.7279 H         1 UNK         0.0600 
    217 H217       -4.0435  -22.9772  -53.9717 H         1 UNK         0.0600 
    218 H218       -2.9717  -24.3663  -53.8717 H         1 UNK         0.0600 
    219 H219       -3.1921  -23.3346  -52.4659 H         1 UNK         0.0600 
    220 H220       -6.7578  -25.5740  -51.4557 H         1 UNK         0.3000 
    221 H221       -8.5810  -24.9623  -50.3561 H         1 UNK         0.0600 
    222 H222       -8.8529  -22.8540  -52.5635 H         1 UNK         0.0600 
    223 H223       -9.2814  -24.5561  -52.7320 H         1 UNK         0.0600 
    224 H224      -10.1617  -23.5374  -51.6080 H         1 UNK         0.0600 
    225 H225       -6.0784  -23.4040  -49.6405 H         1 UNK         0.3000 
    226 H226       -5.3366  -21.8425  -48.2577 H         1 UNK         0.0600 
    227 H227       -7.0769  -22.7328  -46.6676 H         1 UNK         0.0600 
    228 H228       -6.6513  -21.0535  -46.3848 H         1 UNK         0.0600 
    229 H229       -8.1661  -21.4476  -47.1853 H         1 UNK         0.0600 
    230 H230       -6.3009  -21.1247  -51.0011 H         1 UNK         0.3000 
    231 H231       -6.3141  -18.1840  -50.7547 H         1 UNK         0.0600 
    232 H232       -8.5695  -19.7683  -52.1006 H         1 UNK         0.0600 
    233 H233       -8.3775  -18.0170  -52.1462 H         1 UNK         0.0600 
    234 H234       -8.7240  -18.8193  -50.6242 H         1 UNK         0.0600 
    235 H235       -4.1652  -19.5903  -51.5212 H         1 UNK         0.3000 
    236 H236       -4.0312  -19.9783  -54.3956 H         1 UNK         0.0600 
    237 H237       -2.6171  -21.2281  -52.6791 H         1 UNK         0.0600 
    238 H238       -1.6966  -20.5071  -53.9842 H         1 UNK         0.0600 
    239 H239       -1.7119  -19.7498  -52.4037 H         1 UNK         0.0600 
    240 H240       -4.0050  -17.1474  -52.4761 H         1 UNK         0.3000 
    241 H241       -2.9403  -15.4950  -54.5962 H         1 UNK         0.0600 
    242 H242       -4.5687  -12.6745  -53.0434 H         1 UNK         0.3800 
    243 H243       -3.1249  -13.0380  -53.9428 H         1 UNK         0.3800 
    244 H244       -0.8622  -16.1468  -53.3629 H         1 UNK         0.0800 
    245 H245       -1.1694  -14.4427  -53.3243 H         1 UNK         0.0800 
    246 H246       -1.7700  -17.7567  -51.2841 H         1 UNK         0.0800 
    247 H247       -1.3452  -17.2684  -49.6781 H         1 UNK         0.0800 
@<TRIPOS>BOND
     1    1    2 1    
     2    1  127 1    
     3    1  128 1    
     4    1  129 1    
     5    2    3 2    
     6    2    4 am   BACKBONE|DICT|INTERRES
     7    4    5 1    
     8    4  130 1    
     9    5    6 1    
    10    5   65 1    
    11    5  131 1    
    12    6    7 1    
    13    6  132 1    
    14    6  133 1    
    15    7    8 1    
    16    8    9 1    
    17    8  134 1    
    18    8  135 1    
    19    9   10 ar   
    20    9   14 ar   
    21   10   11 ar   
    22   10  136 1    
    23   11   12 ar   
    24   11  126 1    
    25   12   13 ar   
    26   12  137 1    
    27   13   14 ar   
    28   13   15 1    
    29   14  138 1    
    30   15   16 1    
    31   15  139 1    
    32   15  140 1    
    33   16   17 1    
    34   17   18 1    
    35   17  141 1    
    36   17  142 1    
    37   18   19 1    
    38   18   67 1    
    39   18  143 1    
    40   19   20 am   BACKBONE|DICT|INTERRES
    41   19  144 1    
    42   20   21 2    
    43   20   22 1    
    44   22   23 1    
    45   22   24 1    
    46   22  145 1    
    47   23  146 1    
    48   23  147 1    
    49   23  148 1    
    50   24   25 am   BACKBONE|DICT|INTERRES
    51   24  149 1    
    52   25   26 2    
    53   25   27 1    
    54   27   28 1    
    55   27   29 1    
    56   27  150 1    
    57   28  151 1    
    58   28  152 1    
    59   28  153 1    
    60   29   30 am   BACKBONE|DICT|INTERRES
    61   29  154 1    
    62   30   31 2    
    63   30   32 1    
    64   32   33 1    
    65   32   34 1    
    66   32  155 1    
    67   33  156 1    
    68   33  157 1    
    69   33  158 1    
    70   34   35 am   BACKBONE|DICT|INTERRES
    71   34  159 1    
    72   35   36 2    
    73   35   37 1    
    74   37   38 1    
    75   37   39 1    
    76   37  160 1    
    77   38  161 1    
    78   38  162 1    
    79   38  163 1    
    80   39   40 am   BACKBONE|DICT|INTERRES
    81   39  164 1    
    82   40   41 2    
    83   40   42 1    
    84   42   43 1    
    85   42   44 1    
    86   42  165 1    
    87   43  166 1    
    88   43  167 1    
    89   43  168 1    
    90   44   45 am   BACKBONE|DICT|INTERRES
    91   44  169 1    
    92   45   46 2    
    93   45   47 1    
    94   47   48 1    
    95   47   49 1    
    96   47  170 1    
    97   48  171 1    
    98   48  172 1    
    99   48  173 1    
   100   49   50 am   BACKBONE|DICT|INTERRES
   101   49  174 1    
   102   50   51 2    
   103   50   52 1    
   104   52   53 1    
   105   52   54 1    
   106   52  175 1    
   107   53  176 1    
   108   53  177 1    
   109   53  178 1    
   110   54   55 am   BACKBONE|DICT|INTERRES
   111   54  179 1    
   112   55   56 2    
   113   55   57 1    
   114   57   58 1    
   115   57   59 1    
   116   57  180 1    
   117   58  181 1    
   118   58  182 1    
   119   58  183 1    
   120   59   60 am   BACKBONE|DICT|INTERRES
   121   59  184 1    
   122   60   61 2    
   123   60   62 1    
   124   62   63 1    
   125   62   64 1    
   126   62  185 1    
   127   63  186 1    
   128   63  187 1    
   129   63  188 1    
   130   64   65 am   BACKBONE|DICT|INTERRES
   131   64  189 1    
   132   65   66 2    
   133   67   68 2    
   134   67   69 am   BACKBONE|DICT|INTERRES
   135   69   70 1    
   136   69  190 1    
   137   70   71 1    
   138   70   72 1    
   139   70  191 1    
   140   71  192 1    
   141   71  193 1    
   142   71  194 1    
   143   72   73 2    
   144   72   74 am   BACKBONE|DICT|INTERRES
   145   74   75 1    
   146   74  195 1    
   147   75   76 1    
   148   75   77 1    
   149   75  196 1    
   150   76  197 1    
   151   76  198 1    
   152   76  199 1    
   153   77   78 2    
   154   77   79 am   BACKBONE|DICT|INTERRES
   155   79   80 1    
   156   79  200 1    
   157   80   81 1    
   158   80   82 1    
   159   80  201 1    
   160   81  202 1    
   161   81  203 1    
   162   81  204 1    
   163   82   83 2    
   164   82   84 am   BACKBONE|DICT|INTERRES
   165   84   85 1    
   166   84  205 1    
   167   85   86 1    
   168   85   87 1    
   169   85  206 1    
   170   86  207 1    
   171   86  208 1    
   172   86  209 1    
   173   87   88 2    
   174   87   89 am   BACKBONE|DICT|INTERRES
   175   89   90 1    
   176   89  210 1    
   177   90   91 1    
   178   90   92 1    
   179   90  211 1    
   180   91  212 1    
   181   91  213 1    
   182   91  214 1    
   183   92   93 2    
   184   92   94 am   BACKBONE|DICT|INTERRES
   185   94   95 1    
   186   94  215 1    
   187   95   96 1    
   188   95   97 1    
   189   95  216 1    
   190   96  217 1    
   191   96  218 1    
   192   96  219 1    
   193   97   98 2    
   194   97   99 am   BACKBONE|DICT|INTERRES
   195   99  100 1    
   196   99  220 1    
   197  100  101 1    
   198  100  102 1    
   199  100  221 1    
   200  101  222 1    
   201  101  223 1    
   202  101  224 1    
   203  102  103 2    
   204  102  104 am   BACKBONE|DICT|INTERRES
   205  104  105 1    
   206  104  225 1    
   207  105  106 1    
   208  105  107 1    
   209  105  226 1    
   210  106  227 1    
   211  106  228 1    
   212  106  229 1    
   213  107  108 2    
   214  107  109 am   BACKBONE|DICT|INTERRES
   215  109  110 1    
   216  109  230 1    
   217  110  111 1    
   218  110  112 1    
   219  110  231 1    
   220  111  232 1    
   221  111  233 1    
   222  111  234 1    
   223  112  113 2    
   224  112  114 am   BACKBONE|DICT|INTERRES
   225  114  115 1    
   226  114  235 1    
   227  115  116 1    
   228  115  117 1    
   229  115  236 1    
   230  116  237 1    
   231  116  238 1    
   232  116  239 1    
   233  117  118 2    
   234  117  119 am   BACKBONE|DICT|INTERRES
   235  119  120 1    
   236  119  240 1    
   237  120  121 1    
   238  120  124 1    
   239  120  241 1    
   240  121  122 am   BACKBONE|DICT|INTERRES
   241  121  123 2    
   242  122  242 1    
   243  122  243 1    
   244  124  125 1    
   245  124  244 1    
   246  124  245 1    
   247  125  126 1    
   248  126  246 1    
   249  126  247 1    
@<TRIPOS>SUBSTRUCTURE
     1 UNK         1 GROUP             0       ****    0 ROOT    
