@<TRIPOS>MOLECULE
3R540
247   249    1
SMALL
USER_CHARGES


@<TRIPOS>ATOM
      1 CA          5.3116  -12.7244  -47.8653 C.3       0 UNK        -0.1800 
      2 C           4.4364  -13.9620  -48.0026 C.2       0 UNK         0.5000 
      3 O           4.7799  -15.0159  -47.4693 O.2       0 UNK        -0.5000 
      4 N           3.3113  -13.8320  -48.7092 N.am      1 UNK        -0.5000 
      5 CA          2.2906  -14.8574  -48.9203 C.3       1 UNK         0.1400 
      6 C6          2.7746  -16.0450  -49.7957 C.3       23 UNK        -0.0398 
      7 S7          3.1169  -15.6460  -51.5467 S.3       23 UNK        -0.2404 
      8 C8          4.2182  -17.0228  -52.0109 C.3       23 UNK        -0.0205 
      9 C9          3.5398  -18.3770  -51.8518 C.ar      23 UNK        -0.0193 
     10 C10         2.6808  -18.8591  -52.8422 C.ar      23 UNK        -0.1150 
     11 C11         2.0203  -20.0827  -52.6821 C.ar      23 UNK        -0.0193 
     12 C12         2.2536  -20.8410  -51.5284 C.ar      23 UNK        -0.1150 
     13 C13         3.1328  -20.3805  -50.5420 C.ar      23 UNK        -0.0193 
     14 C14         3.7709  -19.1492  -50.7112 C.ar      23 UNK        -0.1150 
     15 C15         3.4294  -21.2103  -49.3014 C.3       23 UNK        -0.0205 
     16 S16         2.5889  -20.5498  -47.8268 S.3       23 UNK        -0.2404 
     17 C17         1.0250  -21.4871  -47.8387 C.3       23 UNK        -0.0398 
     18 CA          1.0005  -22.5886  -46.7532 C.3       11 UNK         0.1400 
     19 N           1.0898  -22.0400  -45.3929 N.am      11 UNK        -0.5000 
     20 C           1.3119  -22.7546  -44.2796 C.2       10 UNK         0.5000 
     21 O           1.4887  -23.9737  -44.2755 O.2       10 UNK        -0.5000 
     22 CA          1.2796  -21.9856  -42.9472 C.3       10 UNK         0.1400 
     23 CB          2.6139  -21.2696  -42.6850 C.3       10 UNK        -0.1800 
     24 N           0.1815  -21.0174  -42.9282 N.am      10 UNK        -0.5000 
     25 C          -1.0817  -21.3227  -42.5985 C.2       9 UNK         0.5000 
     26 O          -1.4221  -22.4281  -42.1775 O.2       9 UNK        -0.5000 
     27 CA         -2.1565  -20.2288  -42.7723 C.3       9 UNK         0.1400 
     28 CB         -2.4031  -19.5046  -41.4404 C.3       9 UNK        -0.1800 
     29 N          -1.8415  -19.2408  -43.8057 N.am      9 UNK        -0.5000 
     30 C          -1.7338  -19.5068  -45.1150 C.2       8 UNK         0.5000 
     31 O          -1.9440  -20.6172  -45.5967 O.2       8 UNK        -0.5000 
     32 CA         -1.2290  -18.3648  -46.0219 C.3       8 UNK         0.1400 
     33 CB         -2.3920  -17.4866  -46.5047 C.3       8 UNK        -0.1800 
     34 N          -0.2061  -17.5329  -45.3772 N.am      8 UNK        -0.5000 
     35 C           0.9673  -17.9996  -44.9226 C.2       7 UNK         0.5000 
     36 O           1.3110  -19.1758  -45.0207 O.2       7 UNK        -0.5000 
     37 CA          1.8736  -17.0178  -44.1653 C.3       7 UNK         0.1400 
     38 CB          2.6689  -16.1288  -45.1289 C.3       7 UNK        -0.1800 
     39 N           1.0965  -16.1874  -43.2493 N.am      7 UNK        -0.5000 
     40 C           0.6741  -16.5941  -42.0442 C.2       6 UNK         0.5000 
     41 O           0.9639  -17.6839  -41.5504 O.2       6 UNK        -0.5000 
     42 CA         -0.2466  -15.6318  -41.2689 C.3       6 UNK         0.1400 
     43 CB          0.5824  -14.6862  -40.3871 C.3       6 UNK        -0.1800 
     44 N          -1.1141  -14.8379  -42.1417 N.am      6 UNK        -0.5000 
     45 C          -2.0964  -15.3457  -42.8989 C.2       5 UNK         0.5000 
     46 O          -2.3939  -16.5387  -42.9194 O.2       5 UNK        -0.5000 
     47 CA         -2.8403  -14.3651  -43.8236 C.3       5 UNK         0.1400 
     48 CB         -4.0313  -13.7321  -43.0897 C.3       5 UNK        -0.1800 
     49 N          -1.9963  -13.3037  -44.3788 N.am      5 UNK        -0.5000 
     50 C          -0.8965  -13.4903  -45.1201 C.2       4 UNK         0.5000 
     51 O          -0.4172  -14.5991  -45.3663 O.2       4 UNK        -0.5000 
     52 CA         -0.2517  -12.2207  -45.7071 C.3       4 UNK         0.1400 
     53 CB          1.2695  -12.3702  -45.8770 C.3       4 UNK        -0.1800 
     54 N          -0.8579  -11.9131  -47.0006 N.am      4 UNK        -0.5000 
     55 C          -2.0910  -11.4098  -47.1631 C.2       3 UNK         0.5000 
     56 O          -2.7864  -11.0053  -46.2298 O.2       3 UNK        -0.5000 
     57 CA         -2.6581  -11.3575  -48.5962 C.3       3 UNK         0.1400 
     58 CB         -2.5435   -9.9371  -49.1697 C.3       3 UNK        -0.1800 
     59 N          -2.0151  -12.2929  -49.5190 N.am      3 UNK        -0.5000 
     60 C          -2.0755  -13.6295  -49.4424 C.2       2 UNK         0.5000 
     61 O          -2.7266  -14.2384  -48.5933 O.2       2 UNK        -0.5000 
     62 CA         -1.2495  -14.4230  -50.4745 C.3       2 UNK         0.1400 
     63 CB         -1.0080  -13.6587  -51.7970 C.3       2 UNK        -0.1800 
     64 N           0.0244  -14.9058  -49.9234 N.am      2 UNK        -0.5000 
     65 C           1.0051  -14.1502  -49.4054 C.2       1 UNK         0.5000 
     66 O           0.9245  -12.9218  -49.2926 O.2       1 UNK        -0.5000 
     67 C          -0.2135  -23.5232  -46.9496 C.2       11 UNK         0.5000 
     68 O          -0.1851  -24.3577  -47.8539 O.2       11 UNK        -0.5000 
     69 N          -1.2268  -23.4183  -46.0770 N.am      12 UNK        -0.5000 
     70 CA         -2.4428  -24.2346  -46.0280 C.3       12 UNK         0.1400 
     71 CB         -3.2959  -23.7916  -44.8302 C.3       12 UNK        -0.1800 
     72 C          -2.2223  -25.7599  -45.9844 C.2       12 UNK         0.5000 
     73 O          -3.1354  -26.5034  -46.3415 O.2       12 UNK        -0.5000 
     74 N          -1.0137  -26.2071  -45.6147 N.am      13 UNK        -0.5000 
     75 CA         -0.5496  -27.5918  -45.7350 C.3       13 UNK         0.1400 
     76 CB          0.8637  -27.6911  -45.1423 C.3       13 UNK        -0.1800 
     77 C          -0.5674  -28.1335  -47.1834 C.2       13 UNK         0.5000 
     78 O          -0.7017  -29.3429  -47.3709 O.2       13 UNK        -0.5000 
     79 N          -0.4688  -27.2378  -48.1781 N.am      14 UNK        -0.5000 
     80 CA         -0.6028  -27.5426  -49.6053 C.3       14 UNK         0.1400 
     81 CB          0.2131  -26.5152  -50.4072 C.3       14 UNK        -0.1800 
     82 C          -2.0709  -27.5694  -50.0876 C.2       14 UNK         0.5000 
     83 O          -2.3045  -27.7950  -51.2760 O.2       14 UNK        -0.5000 
     84 N          -3.0296  -27.3210  -49.1815 N.am      15 UNK        -0.5000 
     85 CA         -4.4860  -27.2759  -49.3550 C.3       15 UNK         0.1400 
     86 CB         -5.0462  -28.6122  -49.8796 C.3       15 UNK        -0.1800 
     87 C          -4.9753  -26.0822  -50.1929 C.2       15 UNK         0.5000 
     88 O          -5.7537  -25.2712  -49.6924 O.2       15 UNK        -0.5000 
     89 N          -4.5045  -25.9750  -51.4412 N.am      16 UNK        -0.5000 
     90 CA         -4.8740  -24.9173  -52.3862 C.3       16 UNK         0.1400 
     91 CB         -4.3187  -25.2648  -53.7753 C.3       16 UNK        -0.1800 
     92 C          -4.3941  -23.5230  -51.9430 C.2       16 UNK         0.5000 
     93 O          -5.1050  -22.5369  -52.1360 O.2       16 UNK        -0.5000 
     94 N          -3.2138  -23.4785  -51.3130 N.am      17 UNK        -0.5000 
     95 CA         -2.5744  -22.2636  -50.8075 C.3       17 UNK         0.1400 
     96 CB         -1.0562  -22.4748  -50.8002 C.3       17 UNK        -0.1800 
     97 C          -3.0988  -21.8110  -49.4281 C.2       17 UNK         0.5000 
     98 O          -2.5313  -20.8888  -48.8438 O.2       17 UNK        -0.5000 
     99 N          -4.1756  -22.4391  -48.9306 N.am      18 UNK        -0.5000 
    100 CA        -4.9379  -21.9522  -47.7789 C.3       18 UNK         0.1400 
    101 CB        -5.8600  -23.0701  -47.2660 C.3       18 UNK        -0.1800 
    102 C         -5.7739  -20.7069  -48.1330 C.2       18 UNK         0.5000 
    103 O         -6.0398  -19.8829  -47.2574 O.2       18 UNK        -0.5000 
    104 N         -6.1807  -20.5993  -49.4064 N.am      19 UNK        -0.5000 
    105 CA        -6.8938  -19.4532  -49.9588 C.3       19 UNK         0.1400 
    106 CB        -7.5575  -19.8709  -51.2796 C.3       19 UNK        -0.1800 
    107 C         -5.9309  -18.2803  -50.1969 C.2       19 UNK         0.5000 
    108 O         -4.7867  -18.4993  -50.6037 O.2       19 UNK        -0.5000 
    109 N         -6.4316  -17.0522  -50.0112 N.am      20 UNK        -0.5000 
    110 CA        -5.6889  -15.7899  -50.1324 C.3       20 UNK         0.1400 
    111 CB        -6.5734  -14.6445  -49.6143 C.3       20 UNK        -0.1800 
    112 C         -5.1477  -15.4702  -51.5441 C.2       20 UNK         0.5000 
    113 O         -4.4297  -14.4834  -51.7035 O.2       20 UNK        -0.5000 
    114 N         -5.4737  -16.3093  -52.5373 N.am      21 UNK        -0.5000 
    115 CA        -4.8900  -16.3065  -53.8781 C.3       21 UNK         0.1400 
    116 CB        -5.6080  -17.3568  -54.7392 C.3       21 UNK        -0.1800 
    117 C         -3.3685  -16.5601  -53.8711 C.2       21 UNK         0.5000 
    118 O         -2.6637  -15.9843  -54.7010 O.2       21 UNK        -0.5000 
    119 N         -2.8858  -17.3769  -52.9232 N.am      22 UNK        -0.5000 
    120 CA        -1.4519  -17.5645  -52.6537 C.3       22 UNK         0.1400 
    121 C         -1.1147  -17.9602  -51.1878 C.2       22 UNK         0.5000 
    122 N         -2.0625  -18.3350  -50.3415 N.am      22 UNK        -0.7600 
    123 O          0.0331  -17.8520  -50.7776 O.2       22 UNK        -0.5000 
    124 C124       -0.7175  -18.4011  -53.7435 C.3       23 UNK        -0.0398 
    125 S125       -0.6685  -20.2103  -53.4813 S.3       23 UNK        -0.2404 
    126 C126        1.0911  -20.6028  -53.7745 C.3       23 UNK        -0.0205 
    127 H127        5.4253  -12.4609  -46.8138 H         1 UNK         0.0600 
    128 H128        4.8856  -11.8667  -48.3866 H         1 UNK         0.0600 
    129 H129        6.3014  -12.9170  -48.2793 H         1 UNK         0.0600 
    130 H130        3.0452  -12.9310  -49.0881 H         1 UNK         0.3000 
    131 H131        2.0384  -15.2638  -47.9412 H         1 UNK         0.0600 
    132 H132        3.6804  -16.4660  -49.3600 H         1 UNK         0.0800 
    133 H133        2.0530  -16.8580  -49.7552 H         1 UNK         0.0800 
    134 H134        4.5323  -16.8907  -53.0471 H         1 UNK         0.0800 
    135 H135        5.1275  -16.9765  -51.4094 H         1 UNK         0.0800 
    136 H136        2.5231  -18.2707  -53.7343 H         1 UNK         0.1150 
    137 H137        1.7605  -21.7945  -51.4060 H         1 UNK         0.1150 
    138 H138        4.4436  -18.7894  -49.9455 H         1 UNK         0.1150 
    139 H139        3.1633  -22.2572  -49.4553 H         1 UNK         0.0800 
    140 H140        4.5049  -21.2001  -49.1185 H         1 UNK         0.0800 
    141 H141        0.1939  -20.7940  -47.7042 H         1 UNK         0.0800 
    142 H142        0.8974  -21.9234  -48.8281 H         1 UNK         0.0800 
    143 H143        1.8837  -23.2138  -46.9006 H         1 UNK         0.0600 
    144 H144        1.0193  -21.0285  -45.3136 H         1 UNK         0.3000 
    145 H145        1.1328  -22.7109  -42.1439 H         1 UNK         0.0600 
    146 H146        2.5862  -20.7170  -41.7457 H         1 UNK         0.0600 
    147 H147        3.4309  -21.9887  -42.6164 H         1 UNK         0.0600 
    148 H148        2.8670  -20.5666  -43.4782 H         1 UNK         0.0600 
    149 H149        0.3829  -20.0992  -43.3031 H         1 UNK         0.3000 
    150 H150       -3.0827  -20.7281  -43.0641 H         1 UNK         0.0600 
    151 H151       -2.6519  -20.2124  -40.6486 H         1 UNK         0.0600 
    152 H152       -3.2341  -18.8037  -41.5208 H         1 UNK         0.0600 
    153 H153       -1.5234  -18.9462  -41.1188 H         1 UNK         0.0600 
    154 H154       -1.7298  -18.2803  -43.4946 H         1 UNK         0.3000 
    155 H155       -0.7692  -18.8192  -46.9009 H         1 UNK         0.0600 
    156 H156       -2.0420  -16.6843  -47.1552 H         1 UNK         0.0600 
    157 H157       -2.9267  -17.0356  -45.6698 H         1 UNK         0.0600 
    158 H158       -3.1122  -18.0769  -47.0737 H         1 UNK         0.0600 
    159 H159       -0.4072  -16.5415  -45.2823 H         1 UNK         0.3000 
    160 H160        2.5924  -17.6068  -43.5911 H         1 UNK         0.0600 
    161 H161        2.0210  -15.4506  -45.6796 H         1 UNK         0.0600 
    162 H162        3.2134  -16.7309  -45.8577 H         1 UNK         0.0600 
    163 H163        3.4016  -15.5248  -44.5939 H         1 UNK         0.0600 
    164 H164        0.7545  -15.3099  -43.6169 H         1 UNK         0.3000 
    165 H165       -0.8832  -16.2363  -40.6191 H         1 UNK         0.0600 
    166 H166        1.2246  -14.0375  -40.9841 H         1 UNK         0.0600 
    167 H167       -0.0600  -14.0529  -39.7749 H         1 UNK         0.0600 
    168 H168        1.2243  -15.2489  -39.7079 H         1 UNK         0.0600 
    169 H169       -0.9354  -13.8455  -42.1871 H         1 UNK         0.3000 
    170 H170       -3.2299  -14.9392  -44.6656 H         1 UNK         0.0600 
    171 H171       -4.6940  -14.4988  -42.6860 H         1 UNK         0.0600 
    172 H172       -3.7055  -13.1072  -42.2572 H         1 UNK         0.0600 
    173 H173       -4.6251  -13.1129  -43.7625 H         1 UNK         0.0600 
    174 H174       -2.3492  -12.3604  -44.2882 H         1 UNK         0.3000 
    175 H175       -0.4293  -11.3890  -45.0221 H         1 UNK         0.0600 
    176 H176        1.7142  -11.4585  -46.2758 H         1 UNK         0.0600 
    177 H177        1.7503  -12.5775  -44.9203 H         1 UNK         0.0600 
    178 H178        1.5233  -13.1860  -46.5516 H         1 UNK         0.0600 
    179 H179       -0.3546  -12.2299  -47.8226 H         1 UNK         0.3000 
    180 H180       -3.7163  -11.6206  -48.5375 H         1 UNK         0.0600 
    181 H181       -3.0126   -9.8684  -50.1514 H         1 UNK         0.0600 
    182 H182       -3.0399   -9.2126  -48.5226 H         1 UNK         0.0600 
    183 H183       -1.5024   -9.6277  -49.2711 H         1 UNK         0.0600 
    184 H184       -1.4161  -11.8880  -50.2238 H         1 UNK         0.3000 
    185 H185       -1.8502  -15.2997  -50.7112 H         1 UNK         0.0600 
    186 H186       -0.5158  -14.2941  -52.5324 H         1 UNK         0.0600 
    187 H187       -1.9511  -13.3319  -52.2369 H         1 UNK         0.0600 
    188 H188       -0.3811  -12.7769  -51.6642 H         1 UNK         0.0600 
    189 H189        0.1616  -15.9098  -49.9831 H         1 UNK         0.3000 
    190 H190       -1.1993  -22.6329  -45.4383 H         1 UNK         0.3000 
    191 H191       -2.9901  -24.0264  -46.9466 H         1 UNK         0.0600 
    192 H192       -4.2435  -24.3310  -44.8014 H         1 UNK         0.0600 
    193 H193       -3.5306  -22.7286  -44.8761 H         1 UNK         0.0600 
    194 H194       -2.7846  -23.9824  -43.8866 H         1 UNK         0.0600 
    195 H195       -0.3231  -25.5249  -45.3316 H         1 UNK         0.3000 
    196 H196       -1.2183  -28.2189  -45.1419 H         1 UNK         0.0600 
    197 H197        1.2379  -28.7146  -45.1895 H         1 UNK         0.0600 
    198 H198        0.8746  -27.3894  -44.0947 H         1 UNK         0.0600 
    199 H199        1.5695  -27.0567  -45.6804 H         1 UNK         0.0600 
    200 H200       -0.3544  -26.2537  -47.9456 H         1 UNK         0.3000 
    201 H201       -0.1814  -28.5309  -49.7994 H         1 UNK         0.0600 
    202 H202        1.2501  -26.4851  -50.0723 H         1 UNK         0.0600 
    203 H203       -0.1991  -25.5115  -50.3104 H         1 UNK         0.0600 
    204 H204        0.2230  -26.7634  -51.4692 H         1 UNK         0.0600 
    205 H205       -2.7314  -27.1254  -48.2322 H         1 UNK         0.3000 
    206 H206       -4.8925  -27.1345  -48.3524 H         1 UNK         0.0600 
    207 H207       -4.7507  -29.4408  -49.2360 H         1 UNK         0.0600 
    208 H208       -6.1364  -28.5917  -49.9023 H         1 UNK         0.0600 
    209 H209       -4.7063  -28.8364  -50.8907 H         1 UNK         0.0600 
    210 H210       -3.8256  -26.6658  -51.7480 H         1 UNK         0.3000 
    211 H211       -5.9637  -24.8872  -52.4506 H         1 UNK         0.0600 
    212 H212       -3.2306  -25.3416  -53.7664 H         1 UNK         0.0600 
    213 H213       -4.5891  -24.5019  -54.5065 H         1 UNK         0.0600 
    214 H214       -4.7186  -26.2137  -54.1332 H         1 UNK         0.0600 
    215 H215       -2.7143  -24.3442  -51.1741 H         1 UNK         0.3000 
    216 H216       -2.7871  -21.4466  -51.5005 H         1 UNK         0.0600 
    217 H217       -0.5455  -21.5403  -50.5659 H         1 UNK         0.0600 
    218 H218       -0.6950  -22.8015  -51.7753 H         1 UNK         0.0600 
    219 H219       -0.7579  -23.2189  -50.0660 H         1 UNK         0.0600 
    220 H220       -4.5797  -23.2061  -49.4510 H         1 UNK         0.3000 
    221 H221       -4.2391  -21.6804  -46.9849 H         1 UNK         0.0600 
    222 H222       -6.6499  -23.2989  -47.9827 H         1 UNK         0.0600 
    223 H223       -5.3148  -23.9935  -47.0755 H         1 UNK         0.0600 
    224 H224       -6.3411  -22.7768  -46.3323 H         1 UNK         0.0600 
    225 H225       -5.8713  -21.2935  -50.0724 H         1 UNK         0.3000 
    226 H226       -7.6706  -19.1466  -49.2551 H         1 UNK         0.0600 
    227 H227       -8.2500  -20.6991  -51.1280 H         1 UNK         0.0600 
    228 H228       -8.1269  -19.0468  -51.7112 H         1 UNK         0.0600 
    229 H229       -6.8195  -20.1843  -52.0198 H         1 UNK         0.0600 
    230 H230       -7.3932  -16.9651  -49.7147 H         1 UNK         0.3000 
    231 H231       -4.8176  -15.8647  -49.4786 H         1 UNK         0.0600 
    232 H232       -6.0351  -13.6956  -49.6292 H         1 UNK         0.0600 
    233 H233       -6.8836  -14.8199  -48.5841 H         1 UNK         0.0600 
    234 H234       -7.4708  -14.5239  -50.2222 H         1 UNK         0.0600 
    235 H235       -6.0702  -17.0899  -52.3091 H         1 UNK         0.3000 
    236 H236       -5.0622  -15.3216  -54.3169 H         1 UNK         0.0600 
    237 H237       -5.4921  -18.3611  -54.3291 H         1 UNK         0.0600 
    238 H238       -6.6748  -17.1447  -54.8129 H         1 UNK         0.0600 
    239 H239       -5.2087  -17.3682  -55.7542 H         1 UNK         0.0600 
    240 H240       -3.5277  -17.8093  -52.2718 H         1 UNK         0.3000 
    241 H241       -1.0257  -16.5633  -52.7276 H         1 UNK         0.0600 
    242 H242       -3.0465  -18.4219  -50.5840 H         1 UNK         0.3800 
    243 H243       -1.7830  -18.6383  -49.4231 H         1 UNK         0.3800 
    244 H244        0.3006  -18.0290  -53.8253 H         1 UNK         0.0800 
    245 H245       -1.1515  -18.2215  -54.7271 H         1 UNK         0.0800 
    246 H246        1.1943  -21.6863  -53.8472 H         1 UNK         0.0800 
    247 H247        1.3906  -20.2085  -54.7467 H         1 UNK         0.0800 
@<TRIPOS>BOND
     1    1    2 1    
     2    1  127 1    
     3    1  128 1    
     4    1  129 1    
     5    2    3 2    
     6    2    4 am   BACKBONE|DICT|INTERRES
     7    4    5 1    
     8    4  130 1    
     9    5    6 1    
    10    5   65 1    
    11    5  131 1    
    12    6    7 1    
    13    6  132 1    
    14    6  133 1    
    15    7    8 1    
    16    8    9 1    
    17    8  134 1    
    18    8  135 1    
    19    9   10 ar   
    20    9   14 ar   
    21   10   11 ar   
    22   10  136 1    
    23   11   12 ar   
    24   11  126 1    
    25   12   13 ar   
    26   12  137 1    
    27   13   14 ar   
    28   13   15 1    
    29   14  138 1    
    30   15   16 1    
    31   15  139 1    
    32   15  140 1    
    33   16   17 1    
    34   17   18 1    
    35   17  141 1    
    36   17  142 1    
    37   18   19 1    
    38   18   67 1    
    39   18  143 1    
    40   19   20 am   BACKBONE|DICT|INTERRES
    41   19  144 1    
    42   20   21 2    
    43   20   22 1    
    44   22   23 1    
    45   22   24 1    
    46   22  145 1    
    47   23  146 1    
    48   23  147 1    
    49   23  148 1    
    50   24   25 am   BACKBONE|DICT|INTERRES
    51   24  149 1    
    52   25   26 2    
    53   25   27 1    
    54   27   28 1    
    55   27   29 1    
    56   27  150 1    
    57   28  151 1    
    58   28  152 1    
    59   28  153 1    
    60   29   30 am   BACKBONE|DICT|INTERRES
    61   29  154 1    
    62   30   31 2    
    63   30   32 1    
    64   32   33 1    
    65   32   34 1    
    66   32  155 1    
    67   33  156 1    
    68   33  157 1    
    69   33  158 1    
    70   34   35 am   BACKBONE|DICT|INTERRES
    71   34  159 1    
    72   35   36 2    
    73   35   37 1    
    74   37   38 1    
    75   37   39 1    
    76   37  160 1    
    77   38  161 1    
    78   38  162 1    
    79   38  163 1    
    80   39   40 am   BACKBONE|DICT|INTERRES
    81   39  164 1    
    82   40   41 2    
    83   40   42 1    
    84   42   43 1    
    85   42   44 1    
    86   42  165 1    
    87   43  166 1    
    88   43  167 1    
    89   43  168 1    
    90   44   45 am   BACKBONE|DICT|INTERRES
    91   44  169 1    
    92   45   46 2    
    93   45   47 1    
    94   47   48 1    
    95   47   49 1    
    96   47  170 1    
    97   48  171 1    
    98   48  172 1    
    99   48  173 1    
   100   49   50 am   BACKBONE|DICT|INTERRES
   101   49  174 1    
   102   50   51 2    
   103   50   52 1    
   104   52   53 1    
   105   52   54 1    
   106   52  175 1    
   107   53  176 1    
   108   53  177 1    
   109   53  178 1    
   110   54   55 am   BACKBONE|DICT|INTERRES
   111   54  179 1    
   112   55   56 2    
   113   55   57 1    
   114   57   58 1    
   115   57   59 1    
   116   57  180 1    
   117   58  181 1    
   118   58  182 1    
   119   58  183 1    
   120   59   60 am   BACKBONE|DICT|INTERRES
   121   59  184 1    
   122   60   61 2    
   123   60   62 1    
   124   62   63 1    
   125   62   64 1    
   126   62  185 1    
   127   63  186 1    
   128   63  187 1    
   129   63  188 1    
   130   64   65 am   BACKBONE|DICT|INTERRES
   131   64  189 1    
   132   65   66 2    
   133   67   68 2    
   134   67   69 am   BACKBONE|DICT|INTERRES
   135   69   70 1    
   136   69  190 1    
   137   70   71 1    
   138   70   72 1    
   139   70  191 1    
   140   71  192 1    
   141   71  193 1    
   142   71  194 1    
   143   72   73 2    
   144   72   74 am   BACKBONE|DICT|INTERRES
   145   74   75 1    
   146   74  195 1    
   147   75   76 1    
   148   75   77 1    
   149   75  196 1    
   150   76  197 1    
   151   76  198 1    
   152   76  199 1    
   153   77   78 2    
   154   77   79 am   BACKBONE|DICT|INTERRES
   155   79   80 1    
   156   79  200 1    
   157   80   81 1    
   158   80   82 1    
   159   80  201 1    
   160   81  202 1    
   161   81  203 1    
   162   81  204 1    
   163   82   83 2    
   164   82   84 am   BACKBONE|DICT|INTERRES
   165   84   85 1    
   166   84  205 1    
   167   85   86 1    
   168   85   87 1    
   169   85  206 1    
   170   86  207 1    
   171   86  208 1    
   172   86  209 1    
   173   87   88 2    
   174   87   89 am   BACKBONE|DICT|INTERRES
   175   89   90 1    
   176   89  210 1    
   177   90   91 1    
   178   90   92 1    
   179   90  211 1    
   180   91  212 1    
   181   91  213 1    
   182   91  214 1    
   183   92   93 2    
   184   92   94 am   BACKBONE|DICT|INTERRES
   185   94   95 1    
   186   94  215 1    
   187   95   96 1    
   188   95   97 1    
   189   95  216 1    
   190   96  217 1    
   191   96  218 1    
   192   96  219 1    
   193   97   98 2    
   194   97   99 am   BACKBONE|DICT|INTERRES
   195   99  100 1    
   196   99  220 1    
   197  100  101 1    
   198  100  102 1    
   199  100  221 1    
   200  101  222 1    
   201  101  223 1    
   202  101  224 1    
   203  102  103 2    
   204  102  104 am   BACKBONE|DICT|INTERRES
   205  104  105 1    
   206  104  225 1    
   207  105  106 1    
   208  105  107 1    
   209  105  226 1    
   210  106  227 1    
   211  106  228 1    
   212  106  229 1    
   213  107  108 2    
   214  107  109 am   BACKBONE|DICT|INTERRES
   215  109  110 1    
   216  109  230 1    
   217  110  111 1    
   218  110  112 1    
   219  110  231 1    
   220  111  232 1    
   221  111  233 1    
   222  111  234 1    
   223  112  113 2    
   224  112  114 am   BACKBONE|DICT|INTERRES
   225  114  115 1    
   226  114  235 1    
   227  115  116 1    
   228  115  117 1    
   229  115  236 1    
   230  116  237 1    
   231  116  238 1    
   232  116  239 1    
   233  117  118 2    
   234  117  119 am   BACKBONE|DICT|INTERRES
   235  119  120 1    
   236  119  240 1    
   237  120  121 1    
   238  120  124 1    
   239  120  241 1    
   240  121  122 am   BACKBONE|DICT|INTERRES
   241  121  123 2    
   242  122  242 1    
   243  122  243 1    
   244  124  125 1    
   245  124  244 1    
   246  124  245 1    
   247  125  126 1    
   248  126  246 1    
   249  126  247 1    
@<TRIPOS>SUBSTRUCTURE
     1 UNK         1 GROUP             0       ****    0 ROOT    
