@<TRIPOS>MOLECULE
3R540
247   249    1
SMALL
USER_CHARGES


@<TRIPOS>ATOM
      1 CA          5.0003  -17.0332  -49.7048 C.3       0 UNK        -0.1800 
      2 C           4.9955  -15.5133  -49.5407 C.2       0 UNK         0.5000 
      3 O           5.4722  -14.8134  -50.4316 O.2       0 UNK        -0.5000 
      4 N           4.4623  -14.9497  -48.4466 N.am      1 UNK        -0.5000 
      5 CA          3.9581  -15.6218  -47.2442 C.3       1 UNK         0.1400 
      6 C6          3.1074  -14.6589  -46.3691 C.3       23 UNK        -0.0398 
      7 S7          1.3146  -14.8682  -46.6328 S.3       23 UNK        -0.2404 
      8 C8          1.0353  -13.9758  -48.1891 C.3       23 UNK        -0.0205 
      9 C9          0.3527  -14.8733  -49.2086 C.ar      23 UNK        -0.0193 
     10 C10        -1.0054  -14.7143  -49.4957 C.ar      23 UNK        -0.1150 
     11 C11        -1.6277  -15.5208  -50.4533 C.ar      23 UNK        -0.0193 
     12 C12        -0.8827  -16.4990  -51.1170 C.ar      23 UNK        -0.1150 
     13 C13         0.4755  -16.6709  -50.8366 C.ar      23 UNK        -0.0193 
     14 C14         1.0855  -15.8533  -49.8829 C.ar      23 UNK        -0.1150 
     15 C15         1.2968  -17.7067  -51.5912 C.3       23 UNK        -0.0205 
     16 S16         1.6216  -19.1979  -50.5987 S.3       23 UNK        -0.2404 
     17 C17        -0.0300  -19.9731  -50.5441 C.3       23 UNK        -0.0398 
     18 CA         -0.3856  -20.5107  -49.1406 C.3       11 UNK         0.1400 
     19 N          -0.2613  -19.4965  -48.0900 N.am      11 UNK        -0.5000 
     20 C          -0.2025  -19.7860  -46.7846 C.2       10 UNK         0.5000 
     21 O          -0.2587  -20.9288  -46.3370 O.2       10 UNK        -0.5000 
     22 CA         -0.1032  -18.6019  -45.8139 C.3       10 UNK         0.1400 
     23 CB          1.3632  -18.1960  -45.6278 C.3       10 UNK        -0.1800 
     24 N          -0.8955  -17.4380  -46.2154 N.am      10 UNK        -0.5000 
     25 C          -2.2291  -17.4394  -46.3585 C.2       9 UNK         0.5000 
     26 O          -2.9111  -18.4657  -46.3242 O.2       9 UNK        -0.5000 
     27 CA         -2.8997  -16.0643  -46.5147 C.3       9 UNK         0.1400 
     28 CB         -4.4286  -16.1138  -46.3208 C.3       9 UNK        -0.1800 
     29 N          -2.3001  -15.1290  -45.5648 N.am      9 UNK        -0.5000 
     30 C          -2.2762  -13.7938  -45.6960 C.2       8 UNK         0.5000 
     31 O          -2.7686  -13.1988  -46.6548 O.2       8 UNK        -0.5000 
     32 CA         -1.5876  -12.9728  -44.5873 C.3       8 UNK         0.1400 
     33 CB         -2.6254  -12.3078  -43.6687 C.3       8 UNK        -0.1800 
     34 N          -0.6971  -13.8059  -43.7862 N.am      8 UNK        -0.5000 
     35 C           0.5252  -13.4963  -43.3552 C.2       7 UNK         0.5000 
     36 O           1.0159  -12.3702  -43.4522 O.2       7 UNK        -0.5000 
     37 CA          1.3420  -14.6605  -42.7417 C.3       7 UNK         0.1400 
     38 CB          2.6094  -14.1781  -42.0146 C.3       7 UNK        -0.1800 
     39 N           0.5996  -15.5526  -41.8428 N.am      7 UNK        -0.5000 
     40 C          -0.3786  -16.4107  -42.1602 C.2       6 UNK         0.5000 
     41 O          -0.8801  -16.4839  -43.2842 O.2       6 UNK        -0.5000 
     42 CA         -0.8543  -17.3528  -41.0350 C.3       6 UNK         0.1400 
     43 CB         -2.0920  -18.1703  -41.4454 C.3       6 UNK        -0.1800 
     44 N           0.2041  -18.2821  -40.6390 N.am      6 UNK        -0.5000 
     45 C           1.2838  -17.9829  -39.9036 C.2       5 UNK         0.5000 
     46 O           1.4772  -16.8731  -39.4040 O.2       5 UNK        -0.5000 
     47 CA          2.3287  -19.0990  -39.6981 C.3       5 UNK         0.1400 
     48 CB          2.2091  -19.6906  -38.2851 C.3       5 UNK        -0.1800 
     49 N           2.2393  -20.1884  -40.6770 N.am      5 UNK        -0.5000 
     50 C           2.5544  -20.0806  -41.9741 C.2       4 UNK         0.5000 
     51 O           2.9478  -19.0371  -42.5036 O.2       4 UNK        -0.5000 
     52 CA          2.3702  -21.3472  -42.8219 C.3       4 UNK         0.1400 
     53 CB          0.8793  -21.6252  -43.0864 C.3       4 UNK        -0.1800 
     54 N           3.0671  -21.1563  -44.0862 N.am      4 UNK        -0.5000 
     55 C           3.5650  -22.1164  -44.8698 C.2       3 UNK         0.5000 
     56 O           3.4693  -23.3182  -44.6189 O.2       3 UNK        -0.5000 
     57 CA          4.2961  -21.6689  -46.1545 C.3       3 UNK         0.1400 
     58 CB          3.3885  -21.8683  -47.3800 C.3       3 UNK        -0.1800 
     59 N           4.7757  -20.2805  -46.1565 N.am      3 UNK        -0.5000 
     60 C           5.7051  -19.7741  -45.3285 C.2       2 UNK         0.5000 
     61 O           6.2144  -20.4098  -44.4058 O.2       2 UNK        -0.5000 
     62 CA          6.1546  -18.3229  -45.5757 C.3       2 UNK         0.1400 
     63 CB          7.4634  -18.3212  -46.3931 C.3       2 UNK        -0.1800 
     64 N           5.1137  -17.5401  -46.2503 N.am      2 UNK        -0.5000 
     65 C           5.1399  -16.2167  -46.4515 C.2       1 UNK         0.5000 
     66 O           6.0395  -15.4721  -46.0579 O.2       1 UNK        -0.5000 
     67 C          -1.7801  -21.1697  -49.1493 C.2       11 UNK         0.5000 
     68 O          -1.8940  -22.3250  -49.5589 O.2       11 UNK        -0.5000 
     69 N          -2.8120  -20.4515  -48.6854 N.am      12 UNK        -0.5000 
     70 CA         -4.1543  -20.9972  -48.5009 C.3       12 UNK         0.1400 
     71 CB         -5.1882  -19.8661  -48.5018 C.3       12 UNK        -0.1800 
     72 C          -4.2384  -21.8301  -47.2140 C.2       12 UNK         0.5000 
     73 O          -4.8012  -22.9233  -47.2403 O.2       12 UNK        -0.5000 
     74 N          -3.6280  -21.3321  -46.1289 N.am      13 UNK        -0.5000 
     75 CA         -3.5208  -22.0230  -44.8407 C.3       13 UNK         0.1400 
     76 CB         -2.9095  -21.0702  -43.8045 C.3       13 UNK        -0.1800 
     77 C          -2.7205  -23.3389  -44.9246 C.2       13 UNK         0.5000 
     78 O          -3.1002  -24.3247  -44.2923 O.2       13 UNK        -0.5000 
     79 N          -1.6583  -23.3424  -45.7408 N.am      14 UNK        -0.5000 
     80 CA         -0.8475  -24.5159  -46.0718 C.3       14 UNK         0.1400 
     81 CB          0.4871  -24.0340  -46.6603 C.3       14 UNK        -0.1800 
     82 C          -1.5298  -25.4868  -47.0582 C.2       14 UNK         0.5000 
     83 O          -1.0194  -26.5903  -47.2542 O.2       14 UNK        -0.5000 
     84 N          -2.6384  -25.0564  -47.6813 N.am      15 UNK        -0.5000 
     85 CA         -3.3971  -25.7432  -48.7332 C.3       15 UNK         0.1400 
     86 CB         -4.0368  -27.0426  -48.2024 C.3       15 UNK        -0.1800 
     87 C          -2.5903  -25.9485  -50.0345 C.2       15 UNK         0.5000 
     88 O          -2.8391  -26.9014  -50.7746 O.2       15 UNK        -0.5000 
     89 N          -1.6454  -25.0375  -50.2961 N.am      16 UNK        -0.5000 
     90 CA         -0.7983  -25.0150  -51.4856 C.3       16 UNK         0.1400 
     91 CB          0.5512  -24.3752  -51.1209 C.3       16 UNK        -0.1800 
     92 C          -1.4623  -24.2481  -52.6424 C.2       16 UNK         0.5000 
     93 O          -1.2729  -24.6221  -53.8002 O.2       16 UNK        -0.5000 
     94 N          -2.2268  -23.1981  -52.3124 N.am      17 UNK        -0.5000 
     95 CA         -2.9141  -22.3279  -53.2690 C.3       17 UNK         0.1400 
     96 CB         -2.0190  -21.1257  -53.6179 C.3       17 UNK        -0.1800 
     97 C          -4.2996  -21.9011  -52.7522 C.2       17 UNK         0.5000 
     98 O          -4.7799  -20.8187  -53.1035 O.2       17 UNK        -0.5000 
     99 N          -4.9257  -22.7619  -51.9369 N.am      18 UNK        -0.5000 
    100 CA        -6.2764  -22.5837  -51.4040 C.3       18 UNK         0.1400 
    101 CB        -6.5981  -23.7198  -50.4220 C.3       18 UNK        -0.1800 
    102 C         -7.3225  -22.5166  -52.5298 C.2       18 UNK         0.5000 
    103 O         -7.4339  -23.4600  -53.3146 O.2       18 UNK        -0.5000 
    104 N         -8.0252  -21.3801  -52.5983 N.am      19 UNK        -0.5000 
    105 CA        -9.0057  -20.9713  -53.6096 C.3       19 UNK         0.1400 
    106 CB       -10.1811  -21.9671  -53.6942 C.3       19 UNK        -0.1800 
    107 C         -8.3964  -20.6621  -54.9948 C.2       19 UNK         0.5000 
    108 O         -9.1495  -20.3640  -55.9233 O.2       19 UNK        -0.5000 
    109 N         -7.0624  -20.7040  -55.1143 N.am      20 UNK        -0.5000 
    110 CA        -6.3203  -20.3430  -56.3195 C.3       20 UNK         0.1400 
    111 CB        -5.2218  -21.3853  -56.5866 C.3       20 UNK        -0.1800 
    112 C         -5.7268  -18.9362  -56.1629 C.2       20 UNK         0.5000 
    113 O         -5.9497  -18.0867  -57.0264 O.2       20 UNK        -0.5000 
    114 N         -5.0048  -18.7104  -55.0569 N.am      21 UNK        -0.5000 
    115 CA        -4.4119  -17.4190  -54.7117 C.3       21 UNK         0.1400 
    116 CB        -2.9990  -17.6414  -54.1525 C.3       21 UNK        -0.1800 
    117 C         -5.2763  -16.6631  -53.6916 C.2       21 UNK         0.5000 
    118 O         -5.4489  -15.4510  -53.8238 O.2       21 UNK        -0.5000 
    119 N         -5.8014  -17.3852  -52.6967 N.am      22 UNK        -0.5000 
    120 CA        -6.6052  -16.8557  -51.5883 C.3       22 UNK         0.1400 
    121 C         -7.3683  -17.9886  -50.8513 C.2       22 UNK         0.5000 
    122 N         -8.2435  -17.6578  -49.9121 N.am      22 UNK        -0.7600 
    123 O         -7.1954  -19.1718  -51.1329 O.2       22 UNK        -0.5000 
    124 C124       -5.8074  -15.9198  -50.6293 C.3       23 UNK        -0.0398 
    125 S125       -4.1805  -16.5556  -50.0780 S.3       23 UNK        -0.2404 
    126 C126       -3.0883  -15.2987  -50.8103 C.3       23 UNK        -0.0205 
    127 H127        4.0547  -17.4830  -49.4061 H         1 UNK         0.0600 
    128 H128        5.8052  -17.4784  -49.1211 H         1 UNK         0.0600 
    129 H129        5.1638  -17.2979  -50.7497 H         1 UNK         0.0600 
    130 H130        4.5068  -13.9437  -48.3770 H         1 UNK         0.3000 
    131 H131        3.3215  -16.4465  -47.5629 H         1 UNK         0.0600 
    132 H132        3.2740  -14.8370  -45.3053 H         1 UNK         0.0800 
    133 H133        3.3834  -13.6150  -46.5261 H         1 UNK         0.0800 
    134 H134        1.9749  -13.6084  -48.6021 H         1 UNK         0.0800 
    135 H135        0.4271  -13.0935  -47.9837 H         1 UNK         0.0800 
    136 H136       -1.5754  -13.9510  -48.9847 H         1 UNK         0.1150 
    137 H137       -1.3595  -17.1168  -51.8627 H         1 UNK         0.1150 
    138 H138        2.1355  -15.9758  -49.6716 H         1 UNK         0.1150 
    139 H139        0.8027  -17.9902  -52.5219 H         1 UNK         0.0800 
    140 H140        2.2520  -17.2649  -51.8789 H         1 UNK         0.0800 
    141 H141       -0.0318  -20.7873  -51.2708 H         1 UNK         0.0800 
    142 H142       -0.7862  -19.2634  -50.8790 H         1 UNK         0.0800 
    143 H143        0.3296  -21.3039  -48.9110 H         1 UNK         0.0600 
    144 H144       -0.2030  -18.5327  -48.3860 H         1 UNK         0.3000 
    145 H145       -0.4869  -18.9322  -44.8472 H         1 UNK         0.0600 
    146 H146        1.7920  -17.8349  -46.5608 H         1 UNK         0.0600 
    147 H147        1.4671  -17.4171  -44.8726 H         1 UNK         0.0600 
    148 H148        1.9619  -19.0431  -45.3005 H         1 UNK         0.0600 
    149 H149       -0.4035  -16.5560  -46.2697 H         1 UNK         0.3000 
    150 H150       -2.6903  -15.7283  -47.5300 H         1 UNK         0.0600 
    151 H151       -4.8929  -16.7954  -47.0340 H         1 UNK         0.0600 
    152 H152       -4.8807  -15.1343  -46.4754 H         1 UNK         0.0600 
    153 H153       -4.6931  -16.4528  -45.3187 H         1 UNK         0.0600 
    154 H154       -1.8651  -15.5741  -44.7640 H         1 UNK         0.3000 
    155 H155       -1.0067  -12.1942  -45.0862 H         1 UNK         0.0600 
    156 H156       -3.3047  -11.6737  -44.2399 H         1 UNK         0.0600 
    157 H157       -2.1426  -11.6776  -42.9217 H         1 UNK         0.0600 
    158 H158       -3.2285  -13.0493  -43.1435 H         1 UNK         0.0600 
    159 H159       -0.9791  -14.7711  -43.6414 H         1 UNK         0.3000 
    160 H160        1.6685  -15.2718  -43.5837 H         1 UNK         0.0600 
    161 H161        2.3633  -13.5567  -41.1528 H         1 UNK         0.0600 
    162 H162        3.2461  -13.5897  -42.6766 H         1 UNK         0.0600 
    163 H163        3.2058  -15.0201  -41.6621 H         1 UNK         0.0600 
    164 H164        0.9502  -15.6055  -40.8922 H         1 UNK         0.3000 
    165 H165       -1.1260  -16.7352  -40.1765 H         1 UNK         0.0600 
    166 H166       -2.4421  -18.7979  -40.6258 H         1 UNK         0.0600 
    167 H167       -2.9176  -17.5162  -41.7292 H         1 UNK         0.0600 
    168 H168       -1.8787  -18.8171  -42.2966 H         1 UNK         0.0600 
    169 H169        0.1432  -19.2138  -41.0199 H         1 UNK         0.3000 
    170 H170        3.3147  -18.6390  -39.7929 H         1 UNK         0.0600 
    171 H171        2.3038  -18.9131  -37.5258 H         1 UNK         0.0600 
    172 H172        1.2466  -20.1809  -38.1342 H         1 UNK         0.0600 
    173 H173        2.9939  -20.4233  -38.0958 H         1 UNK         0.0600 
    174 H174        1.9227  -21.0798  -40.3226 H         1 UNK         0.3000 
    175 H175        2.8148  -22.1874  -42.2846 H         1 UNK         0.0600 
    176 H176        0.4088  -20.7902  -43.6036 H         1 UNK         0.0600 
    177 H177        0.7422  -22.5151  -43.7004 H         1 UNK         0.0600 
    178 H178        0.3326  -21.7886  -42.1573 H         1 UNK         0.0600 
    179 H179        3.2613  -20.1881  -44.3035 H         1 UNK         0.3000 
    180 H180        5.1680  -22.3163  -46.2681 H         1 UNK         0.0600 
    181 H181        2.4884  -21.2558  -47.3182 H         1 UNK         0.0600 
    182 H182        3.0724  -22.9084  -47.4661 H         1 UNK         0.0600 
    183 H183        3.9057  -21.6140  -48.3054 H         1 UNK         0.0600 
    184 H184        4.4749  -19.7281  -46.9427 H         1 UNK         0.3000 
    185 H185        6.3443  -17.8710  -44.5998 H         1 UNK         0.0600 
    186 H186        7.3057  -18.7029  -47.4023 H         1 UNK         0.0600 
    187 H187        7.8899  -17.3221  -46.4762 H         1 UNK         0.0600 
    188 H188        8.2206  -18.9486  -45.9207 H         1 UNK         0.0600 
    189 H189        4.3000  -18.0582  -46.5410 H         1 UNK         0.3000 
    190 H190       -2.6434  -19.5292  -48.3063 H         1 UNK         0.3000 
    191 H191       -4.3810  -21.6547  -49.3410 H         1 UNK         0.0600 
    192 H192       -5.1136  -19.2830  -49.4177 H         1 UNK         0.0600 
    193 H193       -6.2024  -20.2638  -48.4510 H         1 UNK         0.0600 
    194 H194       -5.0586  -19.1871  -47.6599 H         1 UNK         0.0600 
    195 H195       -3.2210  -20.4030  -46.1857 H         1 UNK         0.3000 
    196 H196       -4.5323  -22.2742  -44.5150 H         1 UNK         0.0600 
    197 H197       -2.8250  -21.5503  -42.8289 H         1 UNK         0.0600 
    198 H198       -3.5254  -20.1794  -43.6792 H         1 UNK         0.0600 
    199 H199       -1.9130  -20.7466  -44.1004 H         1 UNK         0.0600 
    200 H200       -1.3526  -22.4595  -46.1424 H         1 UNK         0.3000 
    201 H201       -0.6405  -25.0666  -45.1521 H         1 UNK         0.0600 
    202 H202        1.0038  -23.3712  -45.9678 H         1 UNK         0.0600 
    203 H203        0.3416  -23.4919  -47.5955 H         1 UNK         0.0600 
    204 H204        1.1550  -24.8715  -46.8650 H         1 UNK         0.0600 
    205 H205       -2.9972  -24.1456  -47.4240 H         1 UNK         0.3000 
    206 H206       -4.2101  -25.0685  -48.9963 H         1 UNK         0.0600 
    207 H207       -3.2889  -27.8060  -47.9868 H         1 UNK         0.0600 
    208 H208       -4.6019  -26.8576  -47.2889 H         1 UNK         0.0600 
    209 H209       -4.7304  -27.4628  -48.9316 H         1 UNK         0.0600 
    210 H210       -1.5663  -24.2373  -49.6772 H         1 UNK         0.3000 
    211 H211       -0.6113  -26.0380  -51.8188 H         1 UNK         0.0600 
    212 H212        1.2225  -24.3635  -51.9805 H         1 UNK         0.0600 
    213 H213        1.0486  -24.9328  -50.3270 H         1 UNK         0.0600 
    214 H214        0.4340  -23.3455  -50.7819 H         1 UNK         0.0600 
    215 H215       -2.2986  -22.9407  -51.3317 H         1 UNK         0.3000 
    216 H216       -3.1043  -22.8848  -54.1885 H         1 UNK         0.0600 
    217 H217       -2.4393  -20.5591  -54.4487 H         1 UNK         0.0600 
    218 H218       -1.0210  -21.4439  -53.9192 H         1 UNK         0.0600 
    219 H219       -1.9172  -20.4458  -52.7730 H         1 UNK         0.0600 
    220 H220       -4.4825  -23.6495  -51.7554 H         1 UNK         0.3000 
    221 H221       -6.2946  -21.6450  -50.8478 H         1 UNK         0.0600 
    222 H222       -6.4858  -24.7009  -50.8851 H         1 UNK         0.0600 
    223 H223       -5.9490  -23.6788  -49.5499 H         1 UNK         0.0600 
    224 H224       -7.6239  -23.6428  -50.0591 H         1 UNK         0.0600 
    225 H225       -7.7787  -20.6397  -51.9398 H         1 UNK         0.3000 
    226 H226       -9.4096  -20.0239  -53.2500 H         1 UNK         0.0600 
    227 H227      -10.5984  -22.1704  -52.7080 H         1 UNK         0.0600 
    228 H228      -10.9874  -21.5668  -54.3097 H         1 UNK         0.0600 
    229 H229       -9.8800  -22.9173  -54.1356 H         1 UNK         0.0600 
    230 H230       -6.5129  -20.9201  -54.2917 H         1 UNK         0.3000 
    231 H231       -6.9831  -20.3344  -57.1873 H         1 UNK         0.0600 
    232 H232       -4.4898  -21.4279  -55.7816 H         1 UNK         0.0600 
    233 H233       -4.6822  -21.1522  -57.5053 H         1 UNK         0.0600 
    234 H234       -5.6474  -22.3821  -56.7033 H         1 UNK         0.0600 
    235 H235       -4.8816  -19.4627  -54.3847 H         1 UNK         0.3000 
    236 H236       -4.3200  -16.7934  -55.6022 H         1 UNK         0.0600 
    237 H237       -2.3632  -18.1479  -54.8784 H         1 UNK         0.0600 
    238 H238       -2.5228  -16.6892  -53.9169 H         1 UNK         0.0600 
    239 H239       -3.0166  -18.2396  -53.2408 H         1 UNK         0.0600 
    240 H240       -5.6412  -18.3833  -52.6512 H         1 UNK         0.3000 
    241 H241       -7.3935  -16.2573  -52.0487 H         1 UNK         0.0600 
    242 H242       -8.7440  -18.3923  -49.4377 H         1 UNK         0.3800 
    243 H243       -8.4327  -16.6982  -49.6701 H         1 UNK         0.3800 
    244 H244       -5.6593  -14.9618  -51.1284 H         1 UNK         0.0800 
    245 H245       -6.3900  -15.6753  -49.7404 H         1 UNK         0.0800 
    246 H246       -3.2016  -15.3063  -51.8947 H         1 UNK         0.0800 
    247 H247       -3.4076  -14.3103  -50.4760 H         1 UNK         0.0800 
@<TRIPOS>BOND
     1    1    2 1    
     2    1  127 1    
     3    1  128 1    
     4    1  129 1    
     5    2    3 2    
     6    2    4 am   BACKBONE|DICT|INTERRES
     7    4    5 1    
     8    4  130 1    
     9    5    6 1    
    10    5   65 1    
    11    5  131 1    
    12    6    7 1    
    13    6  132 1    
    14    6  133 1    
    15    7    8 1    
    16    8    9 1    
    17    8  134 1    
    18    8  135 1    
    19    9   10 ar   
    20    9   14 ar   
    21   10   11 ar   
    22   10  136 1    
    23   11   12 ar   
    24   11  126 1    
    25   12   13 ar   
    26   12  137 1    
    27   13   14 ar   
    28   13   15 1    
    29   14  138 1    
    30   15   16 1    
    31   15  139 1    
    32   15  140 1    
    33   16   17 1    
    34   17   18 1    
    35   17  141 1    
    36   17  142 1    
    37   18   19 1    
    38   18   67 1    
    39   18  143 1    
    40   19   20 am   BACKBONE|DICT|INTERRES
    41   19  144 1    
    42   20   21 2    
    43   20   22 1    
    44   22   23 1    
    45   22   24 1    
    46   22  145 1    
    47   23  146 1    
    48   23  147 1    
    49   23  148 1    
    50   24   25 am   BACKBONE|DICT|INTERRES
    51   24  149 1    
    52   25   26 2    
    53   25   27 1    
    54   27   28 1    
    55   27   29 1    
    56   27  150 1    
    57   28  151 1    
    58   28  152 1    
    59   28  153 1    
    60   29   30 am   BACKBONE|DICT|INTERRES
    61   29  154 1    
    62   30   31 2    
    63   30   32 1    
    64   32   33 1    
    65   32   34 1    
    66   32  155 1    
    67   33  156 1    
    68   33  157 1    
    69   33  158 1    
    70   34   35 am   BACKBONE|DICT|INTERRES
    71   34  159 1    
    72   35   36 2    
    73   35   37 1    
    74   37   38 1    
    75   37   39 1    
    76   37  160 1    
    77   38  161 1    
    78   38  162 1    
    79   38  163 1    
    80   39   40 am   BACKBONE|DICT|INTERRES
    81   39  164 1    
    82   40   41 2    
    83   40   42 1    
    84   42   43 1    
    85   42   44 1    
    86   42  165 1    
    87   43  166 1    
    88   43  167 1    
    89   43  168 1    
    90   44   45 am   BACKBONE|DICT|INTERRES
    91   44  169 1    
    92   45   46 2    
    93   45   47 1    
    94   47   48 1    
    95   47   49 1    
    96   47  170 1    
    97   48  171 1    
    98   48  172 1    
    99   48  173 1    
   100   49   50 am   BACKBONE|DICT|INTERRES
   101   49  174 1    
   102   50   51 2    
   103   50   52 1    
   104   52   53 1    
   105   52   54 1    
   106   52  175 1    
   107   53  176 1    
   108   53  177 1    
   109   53  178 1    
   110   54   55 am   BACKBONE|DICT|INTERRES
   111   54  179 1    
   112   55   56 2    
   113   55   57 1    
   114   57   58 1    
   115   57   59 1    
   116   57  180 1    
   117   58  181 1    
   118   58  182 1    
   119   58  183 1    
   120   59   60 am   BACKBONE|DICT|INTERRES
   121   59  184 1    
   122   60   61 2    
   123   60   62 1    
   124   62   63 1    
   125   62   64 1    
   126   62  185 1    
   127   63  186 1    
   128   63  187 1    
   129   63  188 1    
   130   64   65 am   BACKBONE|DICT|INTERRES
   131   64  189 1    
   132   65   66 2    
   133   67   68 2    
   134   67   69 am   BACKBONE|DICT|INTERRES
   135   69   70 1    
   136   69  190 1    
   137   70   71 1    
   138   70   72 1    
   139   70  191 1    
   140   71  192 1    
   141   71  193 1    
   142   71  194 1    
   143   72   73 2    
   144   72   74 am   BACKBONE|DICT|INTERRES
   145   74   75 1    
   146   74  195 1    
   147   75   76 1    
   148   75   77 1    
   149   75  196 1    
   150   76  197 1    
   151   76  198 1    
   152   76  199 1    
   153   77   78 2    
   154   77   79 am   BACKBONE|DICT|INTERRES
   155   79   80 1    
   156   79  200 1    
   157   80   81 1    
   158   80   82 1    
   159   80  201 1    
   160   81  202 1    
   161   81  203 1    
   162   81  204 1    
   163   82   83 2    
   164   82   84 am   BACKBONE|DICT|INTERRES
   165   84   85 1    
   166   84  205 1    
   167   85   86 1    
   168   85   87 1    
   169   85  206 1    
   170   86  207 1    
   171   86  208 1    
   172   86  209 1    
   173   87   88 2    
   174   87   89 am   BACKBONE|DICT|INTERRES
   175   89   90 1    
   176   89  210 1    
   177   90   91 1    
   178   90   92 1    
   179   90  211 1    
   180   91  212 1    
   181   91  213 1    
   182   91  214 1    
   183   92   93 2    
   184   92   94 am   BACKBONE|DICT|INTERRES
   185   94   95 1    
   186   94  215 1    
   187   95   96 1    
   188   95   97 1    
   189   95  216 1    
   190   96  217 1    
   191   96  218 1    
   192   96  219 1    
   193   97   98 2    
   194   97   99 am   BACKBONE|DICT|INTERRES
   195   99  100 1    
   196   99  220 1    
   197  100  101 1    
   198  100  102 1    
   199  100  221 1    
   200  101  222 1    
   201  101  223 1    
   202  101  224 1    
   203  102  103 2    
   204  102  104 am   BACKBONE|DICT|INTERRES
   205  104  105 1    
   206  104  225 1    
   207  105  106 1    
   208  105  107 1    
   209  105  226 1    
   210  106  227 1    
   211  106  228 1    
   212  106  229 1    
   213  107  108 2    
   214  107  109 am   BACKBONE|DICT|INTERRES
   215  109  110 1    
   216  109  230 1    
   217  110  111 1    
   218  110  112 1    
   219  110  231 1    
   220  111  232 1    
   221  111  233 1    
   222  111  234 1    
   223  112  113 2    
   224  112  114 am   BACKBONE|DICT|INTERRES
   225  114  115 1    
   226  114  235 1    
   227  115  116 1    
   228  115  117 1    
   229  115  236 1    
   230  116  237 1    
   231  116  238 1    
   232  116  239 1    
   233  117  118 2    
   234  117  119 am   BACKBONE|DICT|INTERRES
   235  119  120 1    
   236  119  240 1    
   237  120  121 1    
   238  120  124 1    
   239  120  241 1    
   240  121  122 am   BACKBONE|DICT|INTERRES
   241  121  123 2    
   242  122  242 1    
   243  122  243 1    
   244  124  125 1    
   245  124  244 1    
   246  124  245 1    
   247  125  126 1    
   248  126  246 1    
   249  126  247 1    
@<TRIPOS>SUBSTRUCTURE
     1 UNK         1 GROUP             0       ****    0 ROOT    
