@<TRIPOS>MOLECULE
3R540
247   249    1
SMALL
USER_CHARGES


@<TRIPOS>ATOM
      1 CA         -3.3594  -15.1540  -51.2343 C.3       0 UNK        -0.1800 
      2 C          -2.6251  -15.3309  -49.9134 C.2       0 UNK         0.5000 
      3 O          -1.7915  -16.2251  -49.7874 O.2       0 UNK        -0.5000 
      4 N          -2.9138  -14.4718  -48.9262 N.am      1 UNK        -0.5000 
      5 CA         -2.3077  -14.4989  -47.5842 C.3       1 UNK         0.1400 
      6 C6         -3.1272  -13.6474  -46.5780 C.3       23 UNK        -0.0398 
      7 S7         -3.1874  -14.3784  -44.9037 S.3       23 UNK        -0.2404 
      8 C8         -4.8997  -15.0042  -44.7889 C.3       23 UNK        -0.0205 
      9 C9         -5.0411  -16.4377  -45.2882 C.ar      23 UNK        -0.0193 
     10 C10        -4.8821  -16.7329  -46.6440 C.ar      23 UNK        -0.1150 
     11 C11        -4.9940  -18.0449  -47.1077 C.ar      23 UNK        -0.0193 
     12 C12        -5.3217  -19.0650  -46.2108 C.ar      23 UNK        -0.1150 
     13 C13        -5.5243  -18.7830  -44.8568 C.ar      23 UNK        -0.0193 
     14 C14        -5.3650  -17.4695  -44.4002 C.ar      23 UNK        -0.1150 
     15 C15        -5.9664  -19.8794  -43.8951 C.3       23 UNK        -0.0205 
     16 S16        -4.6749  -20.3046  -42.6856 S.3       23 UNK        -0.2404 
     17 C17        -3.9460  -21.8289  -43.3723 C.3       23 UNK        -0.0398 
     18 CA         -3.2286  -21.6757  -44.7364 C.3       11 UNK         0.1400 
     19 N          -2.2282  -20.6023  -44.7575 N.am      11 UNK        -0.5000 
     20 C          -1.5899  -20.1795  -45.8595 C.2       10 UNK         0.5000 
     21 O          -1.8323  -20.6013  -46.9892 O.2       10 UNK        -0.5000 
     22 CA         -0.4289  -19.1860  -45.6651 C.3       10 UNK         0.1400 
     23 CB         -0.9094  -17.7350  -45.7947 C.3       10 UNK        -0.1800 
     24 N           0.2787  -19.3874  -44.3982 N.am      10 UNK        -0.5000 
     25 C           0.9798  -20.4906  -44.0962 C.2       9 UNK         0.5000 
     26 O           1.1295  -21.4274  -44.8796 O.2       9 UNK        -0.5000 
     27 CA          1.5633  -20.5987  -42.6759 C.3       9 UNK         0.1400 
     28 CB          2.9778  -20.0073  -42.5960 C.3       9 UNK        -0.1800 
     29 N           0.7062  -19.9508  -41.6866 N.am      9 UNK        -0.5000 
     30 C          -0.4336  -20.4789  -41.2201 C.2       8 UNK         0.5000 
     31 O          -0.8356  -21.6050  -41.5140 O.2       8 UNK        -0.5000 
     32 CA         -1.2818  -19.5812  -40.2982 C.3       8 UNK         0.1400 
     33 CB         -0.8586  -19.7590  -38.8325 C.3       8 UNK        -0.1800 
     34 N          -1.2090  -18.1608  -40.6529 N.am      8 UNK        -0.5000 
     35 C          -1.6485  -17.6510  -41.8124 C.2       7 UNK         0.5000 
     36 O          -2.1562  -18.3268  -42.7023 O.2       7 UNK        -0.5000 
     37 CA         -1.4204  -16.1484  -42.0449 C.3       7 UNK         0.1400 
     38 CB         -2.5400  -15.3233  -41.3931 C.3       7 UNK        -0.1800 
     39 N          -0.1178  -15.6772  -41.5675 N.am      7 UNK        -0.5000 
     40 C           1.0609  -16.1122  -42.0308 C.2       6 UNK         0.5000 
     41 O           1.1828  -17.0075  -42.8707 O.2       6 UNK        -0.5000 
     42 CA          2.3129  -15.4736  -41.4211 C.3       6 UNK         0.1400 
     43 CB          2.7424  -16.2275  -40.1516 C.3       6 UNK        -0.1800 
     44 N           3.3904  -15.5273  -42.4025 N.am      6 UNK        -0.5000 
     45 C           4.2990  -14.5685  -42.6121 C.2       5 UNK         0.5000 
     46 O           4.3523  -13.5283  -41.9539 O.2       5 UNK        -0.5000 
     47 CA          5.3375  -14.8004  -43.7302 C.3       5 UNK         0.1400 
     48 CB          6.7204  -15.0873  -43.1232 C.3       5 UNK        -0.1800 
     49 N           5.0000  -15.8886  -44.6526 N.am      5 UNK        -0.5000 
     50 C           4.0578  -15.8269  -45.6015 C.2       4 UNK         0.5000 
     51 O           3.3409  -14.8419  -45.7941 O.2       4 UNK        -0.5000 
     52 CA          3.9001  -17.0838  -46.4711 C.3       4 UNK         0.1400 
     53 CB          3.3969  -18.2779  -45.6482 C.3       4 UNK        -0.1800 
     54 N           2.9606  -16.8132  -47.5508 N.am      4 UNK        -0.5000 
     55 C           3.0187  -17.3458  -48.7759 C.2       3 UNK         0.5000 
     56 O           3.8441  -18.1977  -49.1078 O.2       3 UNK        -0.5000 
     57 CA          1.9923  -16.8539  -49.8173 C.3       3 UNK         0.1400 
     58 CB          0.9287  -17.9354  -50.0570 C.3       3 UNK        -0.1800 
     59 N           1.3229  -15.5932  -49.4758 N.am      3 UNK        -0.5000 
     60 C           1.9273  -14.4002  -49.3492 C.2       2 UNK         0.5000 
     61 O           3.1327  -14.2351  -49.5401 O.2       2 UNK        -0.5000 
     62 CA          1.0623  -13.1817  -48.9537 C.3       2 UNK         0.1400 
     63 CB          1.1036  -12.1051  -50.0508 C.3       2 UNK        -0.1800 
     64 N          -0.3383  -13.5086  -48.6829 N.am      2 UNK        -0.5000 
     65 C          -0.8045  -14.1258  -47.5879 C.2       1 UNK         0.5000 
     66 O          -0.0927  -14.4331  -46.6336 O.2       1 UNK        -0.5000 
     67 C          -2.6438  -23.0384  -45.1697 C.2       11 UNK         0.5000 
     68 O          -3.3514  -23.8211  -45.8035 O.2       11 UNK        -0.5000 
     69 N          -1.3700  -23.2975  -44.8382 N.am      12 UNK        -0.5000 
     70 CA         -0.6377  -24.4844  -45.2812 C.3       12 UNK         0.1400 
     71 CB          0.5358  -24.7635  -44.3296 C.3       12 UNK        -0.1800 
     72 C          -0.1561  -24.3324  -46.7343 C.2       12 UNK         0.5000 
     73 O          -0.2784  -25.2748  -47.5163 O.2       12 UNK        -0.5000 
     74 N           0.3337  -23.1353  -47.0901 N.am      13 UNK        -0.5000 
     75 CA          0.7743  -22.7721  -48.4418 C.3       13 UNK         0.1400 
     76 CB          1.3880  -21.3650  -48.4148 C.3       13 UNK        -0.1800 
     77 C          -0.3499  -22.8542  -49.4950 C.2       13 UNK         0.5000 
     78 O          -0.0736  -23.1244  -50.6639 O.2       13 UNK        -0.5000 
     79 N          -1.6025  -22.6675  -49.0614 N.am      14 UNK        -0.5000 
     80 CA         -2.8187  -22.8387  -49.8552 C.3       14 UNK         0.1400 
     81 CB         -4.0136  -22.2965  -49.0585 C.3       14 UNK        -0.1800 
     82 C          -3.0941  -24.2890  -50.3028 C.2       14 UNK         0.5000 
     83 O          -3.9027  -24.4783  -51.2100 O.2       14 UNK        -0.5000 
     84 N          -2.4380  -25.2848  -49.6887 N.am      15 UNK        -0.5000 
     85 CA         -2.5594  -26.6935  -50.0745 C.3       15 UNK         0.1400 
     86 CB         -2.2541  -27.5805  -48.8575 C.3       15 UNK        -0.1800 
     87 C          -1.6451  -27.0716  -51.2574 C.2       15 UNK         0.5000 
     88 O          -1.9091  -28.0754  -51.9201 O.2       15 UNK        -0.5000 
     89 N          -0.5821  -26.2874  -51.4894 N.am      16 UNK        -0.5000 
     90 CA          0.4167  -26.5103  -52.5365 C.3       16 UNK         0.1400 
     91 CB          1.6452  -25.6167  -52.3050 C.3       16 UNK        -0.1800 
     92 C          -0.0977  -26.4322  -53.9965 C.2       16 UNK         0.5000 
     93 O           0.2336  -27.3343  -54.7644 O.2       16 UNK        -0.5000 
     94 N          -0.8918  -25.4403  -54.4332 N.am      17 UNK        -0.5000 
     95 CA         -1.2893  -24.1934  -53.7851 C.3       17 UNK         0.1400 
     96 CB         -2.7579  -23.9059  -54.1386 C.3       17 UNK        -0.1800 
     97 C          -0.3972  -23.0502  -54.2868 C.2       17 UNK         0.5000 
     98 O          -0.3689  -22.7854  -55.4900 O.2       17 UNK        -0.5000 
     99 N           0.2901  -22.3788  -53.3576 N.am      18 UNK        -0.5000 
    100 CA         1.0943  -21.1859  -53.6273 C.3       18 UNK         0.1400 
    101 CB         2.2265  -21.1037  -52.5943 C.3       18 UNK        -0.1800 
    102 C          0.2368  -19.9083  -53.5896 C.2       18 UNK         0.5000 
    103 O          0.5530  -18.9414  -54.2824 O.2       18 UNK        -0.5000 
    104 N         -0.8392  -19.9353  -52.7893 N.am      19 UNK        -0.5000 
    105 CA        -1.8088  -18.8480  -52.6496 C.3       19 UNK         0.1400 
    106 CB        -2.6531  -19.1026  -51.3916 C.3       19 UNK        -0.1800 
    107 C         -2.7232  -18.6900  -53.8773 C.2       19 UNK         0.5000 
    108 O         -3.2010  -17.5850  -54.1317 O.2       19 UNK        -0.5000 
    109 N         -2.9636  -19.7992  -54.5941 N.am      20 UNK        -0.5000 
    110 CA        -3.8578  -19.9846  -55.7461 C.3       20 UNK         0.1400 
    111 CB        -3.4552  -19.0896  -56.9339 C.3       20 UNK        -0.1800 
    112 C         -5.3533  -19.8341  -55.3996 C.2       20 UNK         0.5000 
    113 O         -6.1324  -20.7479  -55.6724 O.2       20 UNK        -0.5000 
    114 N         -5.7204  -18.7100  -54.7798 N.am      21 UNK        -0.5000 
    115 CA        -7.0388  -18.4123  -54.2387 C.3       21 UNK         0.1400 
    116 CB        -7.9635  -17.8698  -55.3422 C.3       21 UNK        -0.1800 
    117 C         -6.8518  -17.3950  -53.1065 C.2       21 UNK         0.5000 
    118 O         -6.2097  -16.3644  -53.3180 O.2       21 UNK        -0.5000 
    119 N         -7.3988  -17.7038  -51.9270 N.am      22 UNK        -0.5000 
    120 CA        -7.2593  -16.8878  -50.7073 C.3       22 UNK         0.1400 
    121 C         -8.2122  -15.6584  -50.6336 C.2       22 UNK         0.5000 
    122 N         -9.1639  -15.4943  -51.5443 N.am      22 UNK        -0.7600 
    123 O         -8.0786  -14.8306  -49.7368 O.2       22 UNK        -0.5000 
    124 C124       -7.3643  -17.7498  -49.4232 C.3       23 UNK        -0.0398 
    125 S125       -6.1687  -19.1308  -49.3965 S.3       23 UNK        -0.2404 
    126 C126       -4.7404  -18.3562  -48.5745 C.3       23 UNK        -0.0205 
    127 H127       -4.0226  -14.2891  -51.2187 H         1 UNK         0.0600 
    128 H128       -3.9593  -16.0354  -51.4564 H         1 UNK         0.0600 
    129 H129       -2.6440  -15.0208  -52.0458 H         1 UNK         0.0600 
    130 H130       -3.5930  -13.7421  -49.0909 H         1 UNK         0.3000 
    131 H131       -2.3500  -15.5390  -47.2587 H         1 UNK         0.0600 
    132 H132       -2.7338  -12.6319  -46.5027 H         1 UNK         0.0800 
    133 H133       -4.1526  -13.5251  -46.9279 H         1 UNK         0.0800 
    134 H134       -5.5843  -14.3540  -45.3346 H         1 UNK         0.0800 
    135 H135       -5.2062  -14.9442  -43.7436 H         1 UNK         0.0800 
    136 H136       -4.6628  -15.9396  -47.3406 H         1 UNK         0.1150 
    137 H137       -5.4376  -20.0739  -46.5794 H         1 UNK         0.1150 
    138 H138       -5.5098  -17.2525  -43.3512 H         1 UNK         0.1150 
    139 H139       -6.8452  -19.5301  -43.3515 H         1 UNK         0.0800 
    140 H140       -6.2837  -20.7723  -44.4356 H         1 UNK         0.0800 
    141 H141       -4.7415  -22.5728  -43.4462 H         1 UNK         0.0800 
    142 H142       -3.2497  -22.2113  -42.6241 H         1 UNK         0.0800 
    143 H143       -3.9815  -21.4215  -45.4813 H         1 UNK         0.0600 
    144 H144       -2.0420  -20.1304  -43.8794 H         1 UNK         0.3000 
    145 H145        0.2955  -19.3568  -46.4619 H         1 UNK         0.0600 
    146 H146       -1.7344  -17.5113  -45.1191 H         1 UNK         0.0600 
    147 H147       -0.1040  -17.0285  -45.5928 H         1 UNK         0.0600 
    148 H148       -1.2632  -17.5472  -46.8087 H         1 UNK         0.0600 
    149 H149        0.2322  -18.6334  -43.7223 H         1 UNK         0.3000 
    150 H150        1.6354  -21.6614  -42.4338 H         1 UNK         0.0600 
    151 H151        3.6343  -20.4675  -43.3354 H         1 UNK         0.0600 
    152 H152        3.4206  -20.1836  -41.6158 H         1 UNK         0.0600 
    153 H153        2.9808  -18.9324  -42.7717 H         1 UNK         0.0600 
    154 H154        0.9382  -19.0004  -41.4378 H         1 UNK         0.3000 
    155 H155       -2.3222  -19.8986  -40.3965 H         1 UNK         0.0600 
    156 H156       -1.5058  -19.1917  -38.1634 H         1 UNK         0.0600 
    157 H157       -0.9213  -20.8060  -38.5328 H         1 UNK         0.0600 
    158 H158        0.1683  -19.4307  -38.6666 H         1 UNK         0.0600 
    159 H159       -0.7913  -17.5387  -39.9769 H         1 UNK         0.3000 
    160 H160       -1.4528  -15.9793  -43.1226 H         1 UNK         0.0600 
    161 H161       -3.5187  -15.6497  -41.7479 H         1 UNK         0.0600 
    162 H162       -2.4445  -14.2658  -41.6400 H         1 UNK         0.0600 
    163 H163       -2.5343  -15.4191  -40.3068 H         1 UNK         0.0600 
    164 H164       -0.1326  -14.9505  -40.8665 H         1 UNK         0.3000 
    165 H165        2.0815  -14.4362  -41.1704 H         1 UNK         0.0600 
    166 H166        3.6280  -15.7738  -39.7063 H         1 UNK         0.0600 
    167 H167        1.9547  -16.2096  -39.3975 H         1 UNK         0.0600 
    168 H168        2.9734  -17.2725  -40.3633 H         1 UNK         0.0600 
    169 H169        3.3539  -16.3202  -43.0285 H         1 UNK         0.3000 
    170 H170        5.4047  -13.8738  -44.3044 H         1 UNK         0.0600 
    171 H171        7.0323  -14.2805  -42.4586 H         1 UNK         0.0600 
    172 H172        6.7204  -16.0098  -42.5412 H         1 UNK         0.0600 
    173 H173        7.4814  -15.1778  -43.8986 H         1 UNK         0.0600 
    174 H174        5.5444  -16.7339  -44.5582 H         1 UNK         0.3000 
    175 H175        4.8805  -17.3189  -46.8910 H         1 UNK         0.0600 
    176 H176        2.4871  -18.0189  -45.1087 H         1 UNK         0.0600 
    177 H177        3.1809  -19.1408  -46.2786 H         1 UNK         0.0600 
    178 H178        4.1423  -18.5907  -44.9178 H         1 UNK         0.0600 
    179 H179        2.3021  -16.0674  -47.3618 H         1 UNK         0.3000 
    180 H180        2.5341  -16.6974  -50.7521 H         1 UNK         0.0600 
    181 H181        0.3227  -18.1112  -49.1670 H         1 UNK         0.0600 
    182 H182        1.3847  -18.8838  -50.3413 H         1 UNK         0.0600 
    183 H183        0.2610  -17.6460  -50.8655 H         1 UNK         0.0600 
    184 H184        0.3209  -15.6474  -49.3386 H         1 UNK         0.3000 
    185 H185        1.4990  -12.7610  -48.0454 H         1 UNK         0.0600 
    186 H186        0.5433  -11.2179  -49.7549 H         1 UNK         0.0600 
    187 H187        2.1274  -11.7864  -50.2513 H         1 UNK         0.0600 
    188 H188        0.6843  -12.4712  -50.9888 H         1 UNK         0.0600 
    189 H189       -0.9941  -13.3094  -49.4240 H         1 UNK         0.3000 
    190 H190       -0.8397  -22.5937  -44.3427 H         1 UNK         0.3000 
    191 H191       -1.3077  -25.3461  -45.2402 H         1 UNK         0.0600 
    192 H192        1.2750  -23.9632  -44.3415 H         1 UNK         0.0600 
    193 H193        1.0495  -25.6839  -44.6098 H         1 UNK         0.0600 
    194 H194        0.1900  -24.8839  -43.3028 H         1 UNK         0.0600 
    195 H195        0.4511  -22.4298  -46.3682 H         1 UNK         0.3000 
    196 H196        1.5525  -23.4809  -48.7312 H         1 UNK         0.0600 
    197 H197        1.9573  -21.1726  -49.3227 H         1 UNK         0.0600 
    198 H198        2.0744  -21.2402  -47.5770 H         1 UNK         0.0600 
    199 H199        0.6211  -20.5946  -48.3426 H         1 UNK         0.0600 
    200 H200       -1.7289  -22.3435  -48.1088 H         1 UNK         0.3000 
    201 H201       -2.7084  -22.2397  -50.7602 H         1 UNK         0.0600 
    202 H202       -4.2093  -22.8955  -48.1694 H         1 UNK         0.0600 
    203 H203       -3.8407  -21.2721  -48.7363 H         1 UNK         0.0600 
    204 H204       -4.9219  -22.2974  -49.6624 H         1 UNK         0.0600 
    205 H205       -1.7896  -25.0733  -48.9378 H         1 UNK         0.3000 
    206 H206       -3.5897  -26.8925  -50.3773 H         1 UNK         0.0600 
    207 H207       -2.8727  -27.3077  -48.0022 H         1 UNK         0.0600 
    208 H208       -2.4530  -28.6290  -49.0822 H         1 UNK         0.0600 
    209 H209       -1.2093  -27.5065  -48.5552 H         1 UNK         0.0600 
    210 H210       -0.4481  -25.4755  -50.9029 H         1 UNK         0.3000 
    211 H211        0.7632  -27.5372  -52.4002 H         1 UNK         0.0600 
    212 H212        1.3957  -24.5596  -52.3143 H         1 UNK         0.0600 
    213 H213        2.3991  -25.7807  -53.0760 H         1 UNK         0.0600 
    214 H214        2.1124  -25.8356  -51.3447 H         1 UNK         0.0600 
    215 H215       -1.1556  -25.4794  -55.4065 H         1 UNK         0.3000 
    216 H216       -1.2186  -24.2499  -52.7046 H         1 UNK         0.0600 
    217 H217       -2.9019  -23.7587  -55.2099 H         1 UNK         0.0600 
    218 H218       -3.1146  -23.0086  -53.6314 H         1 UNK         0.0600 
    219 H219       -3.4028  -24.7294  -53.8319 H         1 UNK         0.0600 
    220 H220        0.2255  -22.6701  -52.3829 H         1 UNK         0.3000 
    221 H221        1.5442  -21.2624  -54.6197 H         1 UNK         0.0600 
    222 H222        1.8340  -21.0238  -51.5821 H         1 UNK         0.0600 
    223 H223        2.8650  -21.9862  -52.6375 H         1 UNK         0.0600 
    224 H224        2.8587  -20.2328  -52.7724 H         1 UNK         0.0600 
    225 H225       -1.0021  -20.7630  -52.2373 H         1 UNK         0.3000 
    226 H226       -1.2704  -17.9073  -52.5232 H         1 UNK         0.0600 
    227 H227       -3.2250  -20.0275  -51.4652 H         1 UNK         0.0600 
    228 H228       -2.0300  -19.1578  -50.4983 H         1 UNK         0.0600 
    229 H229       -3.3689  -18.2962  -51.2362 H         1 UNK         0.0600 
    230 H230       -2.5048  -20.6409  -54.2808 H         1 UNK         0.3000 
    231 H231       -3.7134  -21.0194  -56.0615 H         1 UNK         0.0600 
    232 H232       -4.0587  -19.3191  -57.8127 H         1 UNK         0.0600 
    233 H233       -2.4112  -19.2451  -57.2063 H         1 UNK         0.0600 
    234 H234       -3.5904  -18.0300  -56.7166 H         1 UNK         0.0600 
    235 H235       -4.9978  -18.0262  -54.5595 H         1 UNK         0.3000 
    236 H236       -7.4716  -19.3269  -53.8275 H         1 UNK         0.0600 
    237 H237       -8.9467  -17.6229  -54.9405 H         1 UNK         0.0600 
    238 H238       -8.1108  -18.6060  -56.1325 H         1 UNK         0.0600 
    239 H239       -7.5566  -16.9664  -55.7983 H         1 UNK         0.0600 
    240 H240       -7.9091  -18.5689  -51.8241 H         1 UNK         0.3000 
    241 H241       -6.2541  -16.4627  -50.7129 H         1 UNK         0.0600 
    242 H242       -9.7710  -14.6913  -51.4890 H         1 UNK         0.3800 
    243 H243       -9.2815  -16.1613  -52.2897 H         1 UNK         0.3800 
    244 H244       -7.2205  -17.1375  -48.5315 H         1 UNK         0.0800 
    245 H245       -8.3664  -18.1724  -49.3359 H         1 UNK         0.0800 
    246 H246       -3.8762  -19.0164  -48.6421 H         1 UNK         0.0800 
    247 H247       -4.4708  -17.4538  -49.1221 H         1 UNK         0.0800 
@<TRIPOS>BOND
     1    1    2 1    
     2    1  127 1    
     3    1  128 1    
     4    1  129 1    
     5    2    3 2    
     6    2    4 am   BACKBONE|DICT|INTERRES
     7    4    5 1    
     8    4  130 1    
     9    5    6 1    
    10    5   65 1    
    11    5  131 1    
    12    6    7 1    
    13    6  132 1    
    14    6  133 1    
    15    7    8 1    
    16    8    9 1    
    17    8  134 1    
    18    8  135 1    
    19    9   10 ar   
    20    9   14 ar   
    21   10   11 ar   
    22   10  136 1    
    23   11   12 ar   
    24   11  126 1    
    25   12   13 ar   
    26   12  137 1    
    27   13   14 ar   
    28   13   15 1    
    29   14  138 1    
    30   15   16 1    
    31   15  139 1    
    32   15  140 1    
    33   16   17 1    
    34   17   18 1    
    35   17  141 1    
    36   17  142 1    
    37   18   19 1    
    38   18   67 1    
    39   18  143 1    
    40   19   20 am   BACKBONE|DICT|INTERRES
    41   19  144 1    
    42   20   21 2    
    43   20   22 1    
    44   22   23 1    
    45   22   24 1    
    46   22  145 1    
    47   23  146 1    
    48   23  147 1    
    49   23  148 1    
    50   24   25 am   BACKBONE|DICT|INTERRES
    51   24  149 1    
    52   25   26 2    
    53   25   27 1    
    54   27   28 1    
    55   27   29 1    
    56   27  150 1    
    57   28  151 1    
    58   28  152 1    
    59   28  153 1    
    60   29   30 am   BACKBONE|DICT|INTERRES
    61   29  154 1    
    62   30   31 2    
    63   30   32 1    
    64   32   33 1    
    65   32   34 1    
    66   32  155 1    
    67   33  156 1    
    68   33  157 1    
    69   33  158 1    
    70   34   35 am   BACKBONE|DICT|INTERRES
    71   34  159 1    
    72   35   36 2    
    73   35   37 1    
    74   37   38 1    
    75   37   39 1    
    76   37  160 1    
    77   38  161 1    
    78   38  162 1    
    79   38  163 1    
    80   39   40 am   BACKBONE|DICT|INTERRES
    81   39  164 1    
    82   40   41 2    
    83   40   42 1    
    84   42   43 1    
    85   42   44 1    
    86   42  165 1    
    87   43  166 1    
    88   43  167 1    
    89   43  168 1    
    90   44   45 am   BACKBONE|DICT|INTERRES
    91   44  169 1    
    92   45   46 2    
    93   45   47 1    
    94   47   48 1    
    95   47   49 1    
    96   47  170 1    
    97   48  171 1    
    98   48  172 1    
    99   48  173 1    
   100   49   50 am   BACKBONE|DICT|INTERRES
   101   49  174 1    
   102   50   51 2    
   103   50   52 1    
   104   52   53 1    
   105   52   54 1    
   106   52  175 1    
   107   53  176 1    
   108   53  177 1    
   109   53  178 1    
   110   54   55 am   BACKBONE|DICT|INTERRES
   111   54  179 1    
   112   55   56 2    
   113   55   57 1    
   114   57   58 1    
   115   57   59 1    
   116   57  180 1    
   117   58  181 1    
   118   58  182 1    
   119   58  183 1    
   120   59   60 am   BACKBONE|DICT|INTERRES
   121   59  184 1    
   122   60   61 2    
   123   60   62 1    
   124   62   63 1    
   125   62   64 1    
   126   62  185 1    
   127   63  186 1    
   128   63  187 1    
   129   63  188 1    
   130   64   65 am   BACKBONE|DICT|INTERRES
   131   64  189 1    
   132   65   66 2    
   133   67   68 2    
   134   67   69 am   BACKBONE|DICT|INTERRES
   135   69   70 1    
   136   69  190 1    
   137   70   71 1    
   138   70   72 1    
   139   70  191 1    
   140   71  192 1    
   141   71  193 1    
   142   71  194 1    
   143   72   73 2    
   144   72   74 am   BACKBONE|DICT|INTERRES
   145   74   75 1    
   146   74  195 1    
   147   75   76 1    
   148   75   77 1    
   149   75  196 1    
   150   76  197 1    
   151   76  198 1    
   152   76  199 1    
   153   77   78 2    
   154   77   79 am   BACKBONE|DICT|INTERRES
   155   79   80 1    
   156   79  200 1    
   157   80   81 1    
   158   80   82 1    
   159   80  201 1    
   160   81  202 1    
   161   81  203 1    
   162   81  204 1    
   163   82   83 2    
   164   82   84 am   BACKBONE|DICT|INTERRES
   165   84   85 1    
   166   84  205 1    
   167   85   86 1    
   168   85   87 1    
   169   85  206 1    
   170   86  207 1    
   171   86  208 1    
   172   86  209 1    
   173   87   88 2    
   174   87   89 am   BACKBONE|DICT|INTERRES
   175   89   90 1    
   176   89  210 1    
   177   90   91 1    
   178   90   92 1    
   179   90  211 1    
   180   91  212 1    
   181   91  213 1    
   182   91  214 1    
   183   92   93 2    
   184   92   94 am   BACKBONE|DICT|INTERRES
   185   94   95 1    
   186   94  215 1    
   187   95   96 1    
   188   95   97 1    
   189   95  216 1    
   190   96  217 1    
   191   96  218 1    
   192   96  219 1    
   193   97   98 2    
   194   97   99 am   BACKBONE|DICT|INTERRES
   195   99  100 1    
   196   99  220 1    
   197  100  101 1    
   198  100  102 1    
   199  100  221 1    
   200  101  222 1    
   201  101  223 1    
   202  101  224 1    
   203  102  103 2    
   204  102  104 am   BACKBONE|DICT|INTERRES
   205  104  105 1    
   206  104  225 1    
   207  105  106 1    
   208  105  107 1    
   209  105  226 1    
   210  106  227 1    
   211  106  228 1    
   212  106  229 1    
   213  107  108 2    
   214  107  109 am   BACKBONE|DICT|INTERRES
   215  109  110 1    
   216  109  230 1    
   217  110  111 1    
   218  110  112 1    
   219  110  231 1    
   220  111  232 1    
   221  111  233 1    
   222  111  234 1    
   223  112  113 2    
   224  112  114 am   BACKBONE|DICT|INTERRES
   225  114  115 1    
   226  114  235 1    
   227  115  116 1    
   228  115  117 1    
   229  115  236 1    
   230  116  237 1    
   231  116  238 1    
   232  116  239 1    
   233  117  118 2    
   234  117  119 am   BACKBONE|DICT|INTERRES
   235  119  120 1    
   236  119  240 1    
   237  120  121 1    
   238  120  124 1    
   239  120  241 1    
   240  121  122 am   BACKBONE|DICT|INTERRES
   241  121  123 2    
   242  122  242 1    
   243  122  243 1    
   244  124  125 1    
   245  124  244 1    
   246  124  245 1    
   247  125  126 1    
   248  126  246 1    
   249  126  247 1    
@<TRIPOS>SUBSTRUCTURE
     1 UNK         1 GROUP             0       ****    0 ROOT    
