@<TRIPOS>MOLECULE
3R540
247   249    1
SMALL
USER_CHARGES


@<TRIPOS>ATOM
      1 CA          4.5720  -13.9757  -45.7600 C.3       0 UNK        -0.1800 
      2 C           3.1283  -13.9882  -46.2400 C.2       0 UNK         0.5000 
      3 O           2.2342  -14.3672  -45.4872 O.2       0 UNK        -0.5000 
      4 N           2.8877  -13.5567  -47.4845 N.am      1 UNK        -0.5000 
      5 CA          1.5546  -13.5255  -48.1040 C.3       1 UNK         0.1400 
      6 C6          1.6192  -13.4842  -49.6484 C.3       23 UNK        -0.0398 
      7 S7          2.4079  -14.9795  -50.3343 S.3       23 UNK        -0.2404 
      8 C8          1.0002  -16.1330  -50.3020 C.3       23 UNK        -0.0205 
      9 C9          1.3754  -17.4806  -50.8933 C.ar      23 UNK        -0.0193 
     10 C10         1.2232  -17.7058  -52.2633 C.ar      23 UNK        -0.1150 
     11 C11         1.5603  -18.9396  -52.8256 C.ar      23 UNK        -0.0193 
     12 C12         2.0692  -19.9487  -52.0011 C.ar      23 UNK        -0.1150 
     13 C13         2.2485  -19.7282  -50.6310 C.ar      23 UNK        -0.0193 
     14 C14         1.8849  -18.4962  -50.0792 C.ar      23 UNK        -0.1150 
     15 C15         2.8926  -20.7999  -49.7631 C.3       23 UNK        -0.0205 
     16 S16         1.7355  -22.1321  -49.3287 S.3       23 UNK        -0.2404 
     17 C17         0.7184  -21.3342  -48.0436 C.3       23 UNK        -0.0398 
     18 CA         -0.0686  -22.3805  -47.2143 C.3       11 UNK         0.1400 
     19 N          -0.2341  -21.9858  -45.8131 N.am      11 UNK        -0.5000 
     20 C          -0.6576  -22.8095  -44.8435 C.2       10 UNK         0.5000 
     21 O          -0.9186  -23.9983  -45.0261 O.2       10 UNK        -0.5000 
     22 CA         -0.8649  -22.2000  -43.4447 C.3       10 UNK         0.1400 
     23 CB          0.4646  -22.1224  -42.6803 C.3       10 UNK        -0.1800 
     24 N          -1.4901  -20.8777  -43.4898 N.am      10 UNK        -0.5000 
     25 C          -2.7231  -20.6403  -43.9600 C.2       9 UNK         0.5000 
     26 O          -3.4841  -21.5221  -44.3547 O.2       9 UNK        -0.5000 
     27 CA         -3.1610  -19.1689  -44.0645 C.3       9 UNK         0.1400 
     28 CB         -3.6263  -18.6334  -42.7027 C.3       9 UNK        -0.1800 
     29 N          -2.1114  -18.3038  -44.6007 N.am      9 UNK        -0.5000 
     30 C          -1.5456  -18.4409  -45.8089 C.2       8 UNK         0.5000 
     31 O          -1.8547  -19.3098  -46.6235 O.2       8 UNK        -0.5000 
     32 CA         -0.3952  -17.4735  -46.1288 C.3       8 UNK         0.1400 
     33 CB         -0.9418  -16.0668  -46.4286 C.3       8 UNK        -0.1800 
     34 N           0.5675  -17.4130  -45.0266 N.am      8 UNK        -0.5000 
     35 C           1.3052  -18.4496  -44.6013 C.2       7 UNK         0.5000 
     36 O           1.3023  -19.5559  -45.1393 O.2       7 UNK        -0.5000 
     37 CA          2.1471  -18.2311  -43.3325 C.3       7 UNK         0.1400 
     38 CB          3.4886  -17.5692  -43.6795 C.3       7 UNK        -0.1800 
     39 N           1.4415  -17.4234  -42.3379 N.am      7 UNK        -0.5000 
     40 C           0.3594  -17.8307  -41.6567 C.2       6 UNK         0.5000 
     41 O          -0.1128  -18.9632  -41.7485 O.2       6 UNK        -0.5000 
     42 CA         -0.3481  -16.7877  -40.7643 C.3       6 UNK         0.1400 
     43 CB          0.2441  -16.8009  -39.3477 C.3       6 UNK        -0.1800 
     44 N          -0.2727  -15.4289  -41.3049 N.am      6 UNK        -0.5000 
     45 C          -0.7551  -15.0596  -42.4983 C.2       5 UNK         0.5000 
     46 O          -1.4711  -15.7898  -43.1843 O.2       5 UNK        -0.5000 
     47 CA         -0.3378  -13.6810  -43.0554 C.3       5 UNK         0.1400 
     48 CB         -1.5259  -12.7086  -43.0147 C.3       5 UNK        -0.1800 
     49 N           0.8263  -13.0281  -42.4363 N.am      5 UNK        -0.5000 
     50 C           2.0492  -13.5456  -42.2376 C.2       4 UNK         0.5000 
     51 O           2.3363  -14.7303  -42.4035 O.2       4 UNK        -0.5000 
     52 CA          3.1356  -12.5438  -41.8269 C.3       4 UNK         0.1400 
     53 CB          4.5159  -13.1928  -41.6054 C.3       4 UNK        -0.1800 
     54 N           3.2206  -11.5329  -42.8740 N.am      4 UNK        -0.5000 
     55 C           3.5511  -10.2502  -42.6963 C.2       3 UNK         0.5000 
     56 O           3.8737   -9.7705  -41.6088 O.2       3 UNK        -0.5000 
     57 CA          3.5100   -9.3437  -43.9440 C.3       3 UNK         0.1400 
     58 CB          4.9221   -9.1817  -44.5282 C.3       3 UNK        -0.1800 
     59 N           2.6107   -9.8092  -45.0078 N.am      3 UNK        -0.5000 
     60 C           1.2745   -9.8917  -44.9045 C.2       2 UNK         0.5000 
     61 O           0.6519   -9.6401  -43.8730 O.2       2 UNK        -0.5000 
     62 CA          0.5089  -10.3575  -46.1513 C.3       2 UNK         0.1400 
     63 CB          0.2504   -9.1868  -47.1152 C.3       2 UNK        -0.1800 
     64 N           1.2248  -11.4333  -46.8368 N.am      2 UNK        -0.5000 
     65 C           0.6433  -12.4076  -47.5475 C.2       1 UNK         0.5000 
     66 O          -0.5681  -12.4612  -47.7616 O.2       1 UNK        -0.5000 
     67 C          -1.4173  -22.7456  -47.8689 C.2       11 UNK         0.5000 
     68 O          -1.5121  -23.7908  -48.5101 O.2       11 UNK        -0.5000 
     69 N          -2.4491  -21.9197  -47.6413 N.am      12 UNK        -0.5000 
     70 CA         -3.8237  -22.1626  -48.0861 C.3       12 UNK         0.1400 
     71 CB         -4.6872  -20.9321  -47.7729 C.3       12 UNK        -0.1800 
     72 C          -4.4483  -23.4236  -47.4595 C.2       12 UNK         0.5000 
     73 O          -5.1591  -24.1537  -48.1490 O.2       12 UNK        -0.5000 
     74 N          -4.1633  -23.6643  -46.1713 N.am      13 UNK        -0.5000 
     75 CA         -4.5849  -24.8578  -45.4373 C.3       13 UNK         0.1400 
     76 CB         -4.3262  -24.6650  -43.9355 C.3       13 UNK        -0.1800 
     77 C          -3.9071  -26.1421  -45.9481 C.2       13 UNK         0.5000 
     78 O          -4.5553  -27.1890  -45.9794 O.2       13 UNK        -0.5000 
     79 N          -2.6323  -26.0408  -46.3543 N.am      14 UNK        -0.5000 
     80 CA         -1.8923  -27.1103  -47.0235 C.3       14 UNK         0.1400 
     81 CB         -0.3934  -26.7713  -47.0718 C.3       14 UNK        -0.1800 
     82 C          -2.4658  -27.3888  -48.4250 C.2       14 UNK         0.5000 
     83 O          -2.8735  -28.5204  -48.6885 O.2       14 UNK        -0.5000 
     84 N          -2.5352  -26.3408  -49.2578 N.am      15 UNK        -0.5000 
     85 CA         -3.2370  -26.2768  -50.5394 C.3       15 UNK         0.1400 
     86 CB         -2.8624  -27.4282  -51.5026 C.3       15 UNK        -0.1800 
     87 C          -2.9585  -24.9238  -51.2048 C.2       15 UNK         0.5000 
     88 O          -3.8753  -24.1171  -51.3591 O.2       15 UNK        -0.5000 
     89 N          -1.6954  -24.7231  -51.6143 N.am      16 UNK        -0.5000 
     90 CA         -1.2261  -23.6511  -52.4976 C.3       16 UNK         0.1400 
     91 CB         -1.2518  -22.2826  -51.7852 C.3       16 UNK        -0.1800 
     92 C          -1.9720  -23.7153  -53.8475 C.2       16 UNK         0.5000 
     93 O          -1.7704  -24.6831  -54.5847 O.2       16 UNK        -0.5000 
     94 N          -2.8552  -22.7528  -54.1357 N.am      17 UNK        -0.5000 
     95 CA         -3.7772  -22.7933  -55.2692 C.3       17 UNK         0.1400 
     96 CB         -4.0630  -21.3630  -55.7520 C.3       17 UNK        -0.1800 
     97 C          -5.0518  -23.5547  -54.8633 C.2       17 UNK         0.5000 
     98 O          -6.1012  -22.9463  -54.6447 O.2       17 UNK        -0.5000 
     99 N          -4.9110  -24.8803  -54.7316 N.am      18 UNK        -0.5000 
    100 CA        -5.9066  -25.8843  -54.3358 C.3       18 UNK         0.1400 
    101 CB        -7.1091  -25.9088  -55.2991 C.3       18 UNK        -0.1800 
    102 C         -6.3616  -25.7847  -52.8670 C.2       18 UNK         0.5000 
    103 O         -6.2875  -26.7850  -52.1529 O.2       18 UNK        -0.5000 
    104 N         -6.8060  -24.5987  -52.4393 N.am      19 UNK        -0.5000 
    105 CA        -7.2213  -24.2874  -51.0718 C.3       19 UNK         0.1400 
    106 CB        -8.5835  -24.9443  -50.7580 C.3       19 UNK        -0.1800 
    107 C         -7.2315  -22.7629  -50.8476 C.2       19 UNK         0.5000 
    108 O         -8.1567  -22.2397  -50.2230 O.2       19 UNK        -0.5000 
    109 N         -6.2297  -22.0597  -51.3873 N.am      20 UNK        -0.5000 
    110 CA        -6.1189  -20.6031  -51.3487 C.3       20 UNK         0.1400 
    111 CB        -7.0206  -19.9760  -52.4268 C.3       20 UNK        -0.1800 
    112 C         -4.6594  -20.2057  -51.5784 C.2       20 UNK         0.5000 
    113 O         -3.9767  -20.8571  -52.3683 O.2       20 UNK        -0.5000 
    114 N         -4.2103  -19.1257  -50.9276 N.am      21 UNK        -0.5000 
    115 CA        -2.8365  -18.6091  -50.9695 C.3       21 UNK         0.1400 
    116 CB        -2.5960  -17.7501  -49.7152 C.3       21 UNK        -0.1800 
    117 C         -2.5055  -17.8484  -52.2743 C.2       21 UNK         0.5000 
    118 O         -1.9915  -16.7294  -52.2257 O.2       21 UNK        -0.5000 
    119 N         -2.8071  -18.4764  -53.4150 N.am      22 UNK        -0.5000 
    120 CA        -2.5486  -18.0005  -54.7822 C.3       22 UNK         0.1400 
    121 C         -3.2762  -16.6627  -55.1308 C.2       22 UNK         0.5000 
    122 N         -2.7994  -15.8911  -56.1002 N.am      22 UNK        -0.7600 
    123 O         -4.3212  -16.3394  -54.5697 O.2       22 UNK        -0.5000 
    124 C124       -1.0340  -18.0226  -55.1394 C.3       23 UNK        -0.0398 
    125 S125       -0.2468  -19.6470  -54.8340 S.3       23 UNK        -0.2404 
    126 C126        1.4353  -19.1644  -54.3274 C.3       23 UNK        -0.0205 
    127 H127        4.8453  -14.9548  -45.3672 H         1 UNK         0.0600 
    128 H128        4.6965  -13.2417  -44.9645 H         1 UNK         0.0600 
    129 H129        5.2638  -13.7276  -46.5651 H         1 UNK         0.0600 
    130 H130        3.6568  -13.2748  -48.0762 H         1 UNK         0.3000 
    131 H131        1.0628  -14.4604  -47.8428 H         1 UNK         0.0600 
    132 H132        2.1775  -12.6092  -49.9849 H         1 UNK         0.0800 
    133 H133        0.6218  -13.3927  -50.0830 H         1 UNK         0.0800 
    134 H134        0.6559  -16.2660  -49.2761 H         1 UNK         0.0800 
    135 H135        0.1634  -15.7048  -50.8562 H         1 UNK         0.0800 
    136 H136        0.8501  -16.9086  -52.8884 H         1 UNK         0.1150 
    137 H137        2.3519  -20.9004  -52.4289 H         1 UNK         0.1150 
    138 H138        2.0232  -18.3173  -49.0221 H         1 UNK         0.1150 
    139 H139        3.7343  -21.2353  -50.3035 H         1 UNK         0.0800 
    140 H140        3.3131  -20.3649  -48.8551 H         1 UNK         0.0800 
    141 H141        0.0638  -20.5854  -48.4944 H         1 UNK         0.0800 
    142 H142        1.4022  -20.7842  -47.3978 H         1 UNK         0.0800 
    143 H143        0.5231  -23.2986  -47.1848 H         1 UNK         0.0600 
    144 H144        0.0015  -21.0272  -45.5765 H         1 UNK         0.3000 
    145 H145       -1.5330  -22.8627  -42.8911 H         1 UNK         0.0600 
    146 H146        0.3129  -21.7661  -41.6613 H         1 UNK         0.0600 
    147 H147        0.9349  -23.1043  -42.6148 H         1 UNK         0.0600 
    148 H148        1.1720  -21.4514  -43.1674 H         1 UNK         0.0600 
    149 H149       -0.9438  -20.1024  -43.1270 H         1 UNK         0.3000 
    150 H150       -4.0060  -19.1230  -44.7544 H         1 UNK         0.0600 
    151 H151       -4.4519  -19.2294  -42.3119 H         1 UNK         0.0600 
    152 H152       -3.9755  -17.6036  -42.7817 H         1 UNK         0.0600 
    153 H153       -2.8256  -18.6590  -41.9639 H         1 UNK         0.0600 
    154 H154       -1.8059  -17.5342  -44.0117 H         1 UNK         0.3000 
    155 H155        0.1352  -17.8373  -47.0114 H         1 UNK         0.0600 
    156 H156       -1.2851  -15.9962  -47.4609 H         1 UNK         0.0600 
    157 H157       -0.1854  -15.3016  -46.2745 H         1 UNK         0.0600 
    158 H158       -1.7872  -15.8027  -45.7928 H         1 UNK         0.0600 
    159 H159        0.6311  -16.5395  -44.5240 H         1 UNK         0.3000 
    160 H160        2.3537  -19.2088  -42.8925 H         1 UNK         0.0600 
    161 H161        3.3462  -16.5880  -44.1332 H         1 UNK         0.0600 
    162 H162        4.0537  -18.1786  -44.3858 H         1 UNK         0.0600 
    163 H163        4.1066  -17.4392  -42.7911 H         1 UNK         0.0600 
    164 H164        1.7543  -16.4586  -42.2408 H         1 UNK         0.3000 
    165 H165       -1.4020  -17.0645  -40.6994 H         1 UNK         0.0600 
    166 H166       -0.2966  -16.1227  -38.6874 H         1 UNK         0.0600 
    167 H167        0.1834  -17.7979  -38.9091 H         1 UNK         0.0600 
    168 H168        1.2941  -16.5051  -39.3481 H         1 UNK         0.0600 
    169 H169        0.3241  -14.7786  -40.8161 H         1 UNK         0.3000 
    170 H170       -0.0787  -13.8435  -44.1031 H         1 UNK         0.0600 
    171 H171       -2.4020  -13.1364  -43.5043 H         1 UNK         0.0600 
    172 H172       -1.8080  -12.4646  -41.9898 H         1 UNK         0.0600 
    173 H173       -1.2933  -11.7769  -43.5305 H         1 UNK         0.0600 
    174 H174        0.7140  -12.0397  -42.2579 H         1 UNK         0.3000 
    175 H175        2.8114  -12.0834  -40.8912 H         1 UNK         0.0600 
    176 H176        4.8838  -13.6762  -42.5110 H         1 UNK         0.0600 
    177 H177        5.2553  -12.4539  -41.2964 H         1 UNK         0.0600 
    178 H178        4.4688  -13.9517  -40.8236 H         1 UNK         0.0600 
    179 H179        2.9370  -11.8350  -43.7947 H         1 UNK         0.3000 
    180 H180        3.1605   -8.3617  -43.6185 H         1 UNK         0.0600 
    181 H181        5.3163  -10.1298  -44.8963 H         1 UNK         0.0600 
    182 H182        5.6170   -8.8084  -43.7746 H         1 UNK         0.0600 
    183 H183        4.9295   -8.4698  -45.3538 H         1 UNK         0.0600 
    184 H184        3.0416   -9.9686  -45.9054 H         1 UNK         0.3000 
    185 H185       -0.4544  -10.7378  -45.8036 H         1 UNK         0.0600 
    186 H186       -0.2650   -8.3697  -46.6086 H         1 UNK         0.0600 
    187 H187        1.1798   -8.7883  -47.5234 H         1 UNK         0.0600 
    188 H188       -0.3767   -9.4957  -47.9516 H         1 UNK         0.0600 
    189 H189        2.2186  -11.4976  -46.6796 H         1 UNK         0.3000 
    190 H190       -2.2815  -21.0599  -47.1230 H         1 UNK         0.3000 
    191 H191       -3.8035  -22.3027  -49.1690 H         1 UNK         0.0600 
    192 H192       -4.2953  -20.0404  -48.2577 H         1 UNK         0.0600 
    193 H193       -5.7103  -21.0745  -48.1226 H         1 UNK         0.0600 
    194 H194       -4.7311  -20.7338  -46.7018 H         1 UNK         0.0600 
    195 H195       -3.6418  -22.9686  -45.6458 H         1 UNK         0.3000 
    196 H196       -5.6612  -24.9738  -45.5806 H         1 UNK         0.0600 
    197 H197       -4.6531  -25.5370  -43.3679 H         1 UNK         0.0600 
    198 H198       -4.8709  -23.8035  -43.5491 H         1 UNK         0.0600 
    199 H199       -3.2676  -24.5145  -43.7248 H         1 UNK         0.0600 
    200 H200       -2.1505  -25.1568  -46.2331 H         1 UNK         0.3000 
    201 H201       -2.0056  -28.0194  -46.4290 H         1 UNK         0.0600 
    202 H202        0.0093  -26.6329  -46.0683 H         1 UNK         0.0600 
    203 H203       -0.1938  -25.8614  -47.6363 H         1 UNK         0.0600 
    204 H204        0.1715  -27.5774  -47.5413 H         1 UNK         0.0600 
    205 H205       -2.1704  -25.4437  -48.9350 H         1 UNK         0.3000 
    206 H206       -4.3071  -26.3269  -50.3312 H         1 UNK         0.0600 
    207 H207       -3.3278  -28.3668  -51.2042 H         1 UNK         0.0600 
    208 H208       -3.2112  -27.2220  -52.5157 H         1 UNK         0.0600 
    209 H209       -1.7849  -27.5871  -51.5508 H         1 UNK         0.0600 
    210 H210       -1.0225  -25.4515  -51.4255 H         1 UNK         0.3000 
    211 H211       -0.1829  -23.8689  -52.7304 H         1 UNK         0.0600 
    212 H212       -2.1761  -22.1156  -51.2373 H         1 UNK         0.0600 
    213 H213       -1.1065  -21.4547  -52.4796 H         1 UNK         0.0600 
    214 H214       -0.4501  -22.2238  -51.0552 H         1 UNK         0.0600 
    215 H215       -3.0621  -22.0520  -53.4267 H         1 UNK         0.3000 
    216 H216       -3.3209  -23.3287  -56.1045 H         1 UNK         0.0600 
    217 H217       -4.7680  -21.3663  -56.5839 H         1 UNK         0.0600 
    218 H218       -3.1470  -20.8919  -56.1066 H         1 UNK         0.0600 
    219 H219       -4.4888  -20.7413  -54.9647 H         1 UNK         0.0600 
    220 H220       -3.9769  -25.2449  -54.8736 H         1 UNK         0.3000 
    221 H221       -5.3984  -26.8448  -54.4361 H         1 UNK         0.0600 
    222 H222       -7.6905  -24.9877  -55.2558 H         1 UNK         0.0600 
    223 H223       -6.7853  -26.0529  -56.3298 H         1 UNK         0.0600 
    224 H224       -7.7847  -26.7289  -55.0530 H         1 UNK         0.0600 
    225 H225       -6.7876  -23.8216  -53.0961 H         1 UNK         0.3000 
    226 H226       -6.4765  -24.6970  -50.3879 H         1 UNK         0.0600 
    227 H227       -8.5421  -26.0284  -50.8603 H         1 UNK         0.0600 
    228 H228       -8.8927  -24.7359  -49.7331 H         1 UNK         0.0600 
    229 H229       -9.3657  -24.5749  -51.4219 H         1 UNK         0.0600 
    230 H230       -5.4470  -22.5452  -51.8157 H         1 UNK         0.3000 
    231 H231       -6.4255  -20.2437  -50.3645 H         1 UNK         0.0600 
    232 H232       -6.7636  -20.3408  -53.4224 H         1 UNK         0.0600 
    233 H233       -6.9220  -18.8898  -52.4385 H         1 UNK         0.0600 
    234 H234       -8.0716  -20.2038  -52.2490 H         1 UNK         0.0600 
    235 H235       -4.8542  -18.6045  -50.3510 H         1 UNK         0.3000 
    236 H236       -2.1511  -19.4580  -50.9184 H         1 UNK         0.0600 
    237 H237       -2.8292  -18.3014  -48.8070 H         1 UNK         0.0600 
    238 H238       -1.5516  -17.4471  -49.6451 H         1 UNK         0.0600 
    239 H239       -3.2046  -16.8452  -49.7220 H         1 UNK         0.0600 
    240 H240       -3.2410  -19.3899  -53.3339 H         1 UNK         0.3000 
    241 H241       -3.0360  -18.7266  -55.4286 H         1 UNK         0.0600 
    242 H242       -3.2937  -15.0426  -56.3298 H         1 UNK         0.3800 
    243 H243       -1.9645  -16.1262  -56.6124 H         1 UNK         0.3800 
    244 H244       -0.8861  -17.7989  -56.1962 H         1 UNK         0.0800 
    245 H245       -0.5124  -17.2423  -54.5881 H         1 UNK         0.0800 
    246 H246        1.7456  -18.2693  -54.8687 H         1 UNK         0.0800 
    247 H247        2.1239  -19.9515  -54.6381 H         1 UNK         0.0800 
@<TRIPOS>BOND
     1    1    2 1    
     2    1  127 1    
     3    1  128 1    
     4    1  129 1    
     5    2    3 2    
     6    2    4 am   BACKBONE|DICT|INTERRES
     7    4    5 1    
     8    4  130 1    
     9    5    6 1    
    10    5   65 1    
    11    5  131 1    
    12    6    7 1    
    13    6  132 1    
    14    6  133 1    
    15    7    8 1    
    16    8    9 1    
    17    8  134 1    
    18    8  135 1    
    19    9   10 ar   
    20    9   14 ar   
    21   10   11 ar   
    22   10  136 1    
    23   11   12 ar   
    24   11  126 1    
    25   12   13 ar   
    26   12  137 1    
    27   13   14 ar   
    28   13   15 1    
    29   14  138 1    
    30   15   16 1    
    31   15  139 1    
    32   15  140 1    
    33   16   17 1    
    34   17   18 1    
    35   17  141 1    
    36   17  142 1    
    37   18   19 1    
    38   18   67 1    
    39   18  143 1    
    40   19   20 am   BACKBONE|DICT|INTERRES
    41   19  144 1    
    42   20   21 2    
    43   20   22 1    
    44   22   23 1    
    45   22   24 1    
    46   22  145 1    
    47   23  146 1    
    48   23  147 1    
    49   23  148 1    
    50   24   25 am   BACKBONE|DICT|INTERRES
    51   24  149 1    
    52   25   26 2    
    53   25   27 1    
    54   27   28 1    
    55   27   29 1    
    56   27  150 1    
    57   28  151 1    
    58   28  152 1    
    59   28  153 1    
    60   29   30 am   BACKBONE|DICT|INTERRES
    61   29  154 1    
    62   30   31 2    
    63   30   32 1    
    64   32   33 1    
    65   32   34 1    
    66   32  155 1    
    67   33  156 1    
    68   33  157 1    
    69   33  158 1    
    70   34   35 am   BACKBONE|DICT|INTERRES
    71   34  159 1    
    72   35   36 2    
    73   35   37 1    
    74   37   38 1    
    75   37   39 1    
    76   37  160 1    
    77   38  161 1    
    78   38  162 1    
    79   38  163 1    
    80   39   40 am   BACKBONE|DICT|INTERRES
    81   39  164 1    
    82   40   41 2    
    83   40   42 1    
    84   42   43 1    
    85   42   44 1    
    86   42  165 1    
    87   43  166 1    
    88   43  167 1    
    89   43  168 1    
    90   44   45 am   BACKBONE|DICT|INTERRES
    91   44  169 1    
    92   45   46 2    
    93   45   47 1    
    94   47   48 1    
    95   47   49 1    
    96   47  170 1    
    97   48  171 1    
    98   48  172 1    
    99   48  173 1    
   100   49   50 am   BACKBONE|DICT|INTERRES
   101   49  174 1    
   102   50   51 2    
   103   50   52 1    
   104   52   53 1    
   105   52   54 1    
   106   52  175 1    
   107   53  176 1    
   108   53  177 1    
   109   53  178 1    
   110   54   55 am   BACKBONE|DICT|INTERRES
   111   54  179 1    
   112   55   56 2    
   113   55   57 1    
   114   57   58 1    
   115   57   59 1    
   116   57  180 1    
   117   58  181 1    
   118   58  182 1    
   119   58  183 1    
   120   59   60 am   BACKBONE|DICT|INTERRES
   121   59  184 1    
   122   60   61 2    
   123   60   62 1    
   124   62   63 1    
   125   62   64 1    
   126   62  185 1    
   127   63  186 1    
   128   63  187 1    
   129   63  188 1    
   130   64   65 am   BACKBONE|DICT|INTERRES
   131   64  189 1    
   132   65   66 2    
   133   67   68 2    
   134   67   69 am   BACKBONE|DICT|INTERRES
   135   69   70 1    
   136   69  190 1    
   137   70   71 1    
   138   70   72 1    
   139   70  191 1    
   140   71  192 1    
   141   71  193 1    
   142   71  194 1    
   143   72   73 2    
   144   72   74 am   BACKBONE|DICT|INTERRES
   145   74   75 1    
   146   74  195 1    
   147   75   76 1    
   148   75   77 1    
   149   75  196 1    
   150   76  197 1    
   151   76  198 1    
   152   76  199 1    
   153   77   78 2    
   154   77   79 am   BACKBONE|DICT|INTERRES
   155   79   80 1    
   156   79  200 1    
   157   80   81 1    
   158   80   82 1    
   159   80  201 1    
   160   81  202 1    
   161   81  203 1    
   162   81  204 1    
   163   82   83 2    
   164   82   84 am   BACKBONE|DICT|INTERRES
   165   84   85 1    
   166   84  205 1    
   167   85   86 1    
   168   85   87 1    
   169   85  206 1    
   170   86  207 1    
   171   86  208 1    
   172   86  209 1    
   173   87   88 2    
   174   87   89 am   BACKBONE|DICT|INTERRES
   175   89   90 1    
   176   89  210 1    
   177   90   91 1    
   178   90   92 1    
   179   90  211 1    
   180   91  212 1    
   181   91  213 1    
   182   91  214 1    
   183   92   93 2    
   184   92   94 am   BACKBONE|DICT|INTERRES
   185   94   95 1    
   186   94  215 1    
   187   95   96 1    
   188   95   97 1    
   189   95  216 1    
   190   96  217 1    
   191   96  218 1    
   192   96  219 1    
   193   97   98 2    
   194   97   99 am   BACKBONE|DICT|INTERRES
   195   99  100 1    
   196   99  220 1    
   197  100  101 1    
   198  100  102 1    
   199  100  221 1    
   200  101  222 1    
   201  101  223 1    
   202  101  224 1    
   203  102  103 2    
   204  102  104 am   BACKBONE|DICT|INTERRES
   205  104  105 1    
   206  104  225 1    
   207  105  106 1    
   208  105  107 1    
   209  105  226 1    
   210  106  227 1    
   211  106  228 1    
   212  106  229 1    
   213  107  108 2    
   214  107  109 am   BACKBONE|DICT|INTERRES
   215  109  110 1    
   216  109  230 1    
   217  110  111 1    
   218  110  112 1    
   219  110  231 1    
   220  111  232 1    
   221  111  233 1    
   222  111  234 1    
   223  112  113 2    
   224  112  114 am   BACKBONE|DICT|INTERRES
   225  114  115 1    
   226  114  235 1    
   227  115  116 1    
   228  115  117 1    
   229  115  236 1    
   230  116  237 1    
   231  116  238 1    
   232  116  239 1    
   233  117  118 2    
   234  117  119 am   BACKBONE|DICT|INTERRES
   235  119  120 1    
   236  119  240 1    
   237  120  121 1    
   238  120  124 1    
   239  120  241 1    
   240  121  122 am   BACKBONE|DICT|INTERRES
   241  121  123 2    
   242  122  242 1    
   243  122  243 1    
   244  124  125 1    
   245  124  244 1    
   246  124  245 1    
   247  125  126 1    
   248  126  246 1    
   249  126  247 1    
@<TRIPOS>SUBSTRUCTURE
     1 UNK         1 GROUP             0       ****    0 ROOT    
