@<TRIPOS>MOLECULE
3R540
247   249    1
SMALL
USER_CHARGES


@<TRIPOS>ATOM
      1 CA          2.0595  -11.9497  -51.0757 C.3       0 UNK        -0.1800 
      2 C           1.8236  -12.8022  -49.8378 C.2       0 UNK         0.5000 
      3 O           0.7050  -13.2649  -49.6191 O.2       0 UNK        -0.5000 
      4 N           2.8676  -12.9971  -49.0209 N.am      1 UNK        -0.5000 
      5 CA          2.9359  -13.8175  -47.7972 C.3       1 UNK         0.1400 
      6 C6          2.6011  -15.3177  -48.0167 C.3       23 UNK        -0.0398 
      7 S7          3.7615  -16.1321  -49.1659 S.3       23 UNK        -0.2404 
      8 C8          2.7266  -16.3962  -50.6411 C.3       23 UNK        -0.0205 
      9 C9          1.6766  -17.4766  -50.4278 C.ar      23 UNK        -0.0193 
     10 C10         0.3216  -17.1428  -50.3392 C.ar      23 UNK        -0.1150 
     11 C11        -0.6457  -18.1411  -50.1870 C.ar      23 UNK        -0.0193 
     12 C12        -0.2475  -19.4778  -50.0937 C.ar      23 UNK        -0.1150 
     13 C13         1.1041  -19.8235  -50.1825 C.ar      23 UNK        -0.0193 
     14 C14         2.0597  -18.8187  -50.3572 C.ar      23 UNK        -0.1150 
     15 C15         1.5263  -21.2847  -50.1228 C.3       23 UNK        -0.0205 
     16 S16         2.6494  -21.6532  -48.7339 S.3       23 UNK        -0.2404 
     17 C17         1.6704  -21.1556  -47.2760 C.3       23 UNK        -0.0398 
     18 CA          0.8766  -22.3276  -46.6501 C.3       11 UNK         0.1400 
     19 N           0.6321  -22.1266  -45.2210 N.am      11 UNK        -0.5000 
     20 C           0.1063  -23.0427  -44.3957 C.2       10 UNK         0.5000 
     21 O          -0.1775  -24.1913  -44.7381 O.2       10 UNK        -0.5000 
     22 CA         -0.2052  -22.5776  -42.9609 C.3       10 UNK         0.1400 
     23 CB          1.0612  -22.5822  -42.0922 C.3       10 UNK        -0.1800 
     24 N          -0.8258  -21.2511  -42.9266 N.am      10 UNK        -0.5000 
     25 C          -2.0252  -20.9698  -43.4569 C.2       9 UNK         0.5000 
     26 O          -2.7531  -21.8124  -43.9808 O.2       9 UNK        -0.5000 
     27 CA         -2.4719  -19.4977  -43.4404 C.3       9 UNK         0.1400 
     28 CB         -3.0447  -19.1187  -42.0669 C.3       9 UNK        -0.1800 
     29 N          -1.3974  -18.5730  -43.8021 N.am      9 UNK        -0.5000 
     30 C          -0.7832  -18.5419  -44.9941 C.2       8 UNK         0.5000 
     31 O          -1.0797  -19.2726  -45.9369 O.2       8 UNK        -0.5000 
     32 CA          0.4015  -17.5718  -45.1408 C.3       8 UNK         0.1400 
     33 CB         -0.0950  -16.1347  -45.3511 C.3       8 UNK        -0.1800 
     34 N           1.3034  -17.6228  -43.9897 N.am      8 UNK        -0.5000 
     35 C           1.9750  -18.7147  -43.5959 C.2       7 UNK         0.5000 
     36 O           1.9502  -19.7882  -44.1959 O.2       7 UNK        -0.5000 
     37 CA          2.7585  -18.6074  -42.2787 C.3       7 UNK         0.1400 
     38 CB          4.1364  -17.9673  -42.5056 C.3       7 UNK        -0.1800 
     39 N           2.0125  -17.8495  -41.2751 N.am      7 UNK        -0.5000 
     40 C           0.9249  -18.3095  -40.6407 C.2       6 UNK         0.5000 
     41 O           0.4652  -19.4400  -40.8062 O.2       6 UNK        -0.5000 
     42 CA          0.2114  -17.3283  -39.6912 C.3       6 UNK         0.1400 
     43 CB          0.8894  -17.3178  -38.3130 C.3       6 UNK        -0.1800 
     44 N           0.1617  -15.9629  -40.2189 N.am      6 UNK        -0.5000 
     45 C          -0.5459  -15.6000  -41.2975 C.2       5 UNK         0.5000 
     46 O          -1.2549  -16.3748  -41.9376 O.2       5 UNK        -0.5000 
     47 CA         -0.4098  -14.1404  -41.7711 C.3       5 UNK         0.1400 
     48 CB         -1.4299  -13.2458  -41.0522 C.3       5 UNK        -0.1800 
     49 N           0.9293  -13.5606  -41.6235 N.am      5 UNK        -0.5000 
     50 C           2.0651  -14.0813  -42.1074 C.2       4 UNK         0.5000 
     51 O           2.1342  -15.1876  -42.6437 O.2       4 UNK        -0.5000 
     52 CA          3.3042  -13.1775  -42.0251 C.3       4 UNK         0.1400 
     53 CB          4.6067  -13.9236  -42.3651 C.3       4 UNK        -0.1800 
     54 N           3.1061  -12.1058  -42.9918 N.am      4 UNK        -0.5000 
     55 C           2.9298  -10.8092  -42.7096 C.2       3 UNK         0.5000 
     56 O           3.0482  -10.3319  -41.5806 O.2       3 UNK        -0.5000 
     57 CA          2.5144   -9.8934  -43.8822 C.3       3 UNK         0.1400 
     58 CB          3.7495   -9.2331  -44.5131 C.3       3 UNK        -0.1800 
     59 N           1.7654  -10.5995  -44.9261 N.am      3 UNK        -0.5000 
     60 C           0.5644  -11.1701  -44.7550 C.2       2 UNK         0.5000 
     61 O          -0.1099  -11.0352  -43.7337 O.2       2 UNK        -0.5000 
     62 CA          0.0297  -12.0676  -45.8909 C.3       2 UNK         0.1400 
     63 CB         -1.0870  -11.3471  -46.6614 C.3       2 UNK        -0.1800 
     64 N           1.0214  -12.5562  -46.8574 N.am      2 UNK        -0.5000 
     65 C           2.1333  -13.2586  -46.6012 C.2       1 UNK         0.5000 
     66 O           2.5505  -13.4691  -45.4637 O.2       1 UNK        -0.5000 
     67 C          -0.4360  -22.5934  -47.4121 C.2       11 UNK         0.5000 
     68 O          -0.5079  -23.5553  -48.1748 O.2       11 UNK        -0.5000 
     69 N          -1.4638  -21.7697  -47.1628 N.am      12 UNK        -0.5000 
     70 CA         -2.7980  -21.9049  -47.7435 C.3       12 UNK         0.1400 
     71 CB         -3.6708  -20.7091  -47.3364 C.3       12 UNK        -0.1800 
     72 C          -3.4859  -23.2304  -47.3768 C.2       12 UNK         0.5000 
     73 O          -4.1044  -23.8404  -48.2470 O.2       12 UNK        -0.5000 
     74 N          -3.3406  -23.6755  -46.1225 N.am      13 UNK        -0.5000 
     75 CA         -3.8410  -24.9667  -45.6502 C.3       13 UNK         0.1400 
     76 CB         -3.6825  -25.0536  -44.1247 C.3       13 UNK        -0.1800 
     77 C          -3.1566  -26.1614  -46.3422 C.2       13 UNK         0.5000 
     78 O          -3.8324  -27.1337  -46.6804 O.2       13 UNK        -0.5000 
     79 N          -1.8378  -26.0607  -46.5545 N.am      14 UNK        -0.5000 
     80 CA         -1.0277  -27.0824  -47.2153 C.3       14 UNK         0.1400 
     81 CB          0.4551  -26.8359  -46.8948 C.3       14 UNK        -0.1800 
     82 C          -1.2523  -27.1382  -48.7382 C.2       14 UNK         0.5000 
     83 O          -1.4008  -28.2285  -49.2910 O.2       14 UNK        -0.5000 
     84 N          -1.2554  -25.9683  -49.3891 N.am      15 UNK        -0.5000 
     85 CA         -1.2622  -25.8203  -50.8468 C.3       15 UNK         0.1400 
     86 CB         -0.3608  -24.6300  -51.2168 C.3       15 UNK        -0.1800 
     87 C          -2.6691  -25.6451  -51.4511 C.2       15 UNK         0.5000 
     88 O          -2.7680  -25.3650  -52.6469 O.2       15 UNK        -0.5000 
     89 N          -3.7247  -25.7695  -50.6326 N.am      16 UNK        -0.5000 
     90 CA         -5.1408  -25.5942  -50.9861 C.3       16 UNK         0.1400 
     91 CB         -5.6116  -26.7175  -51.9332 C.3       16 UNK        -0.1800 
     92 C          -5.4187  -24.1823  -51.5417 C.2       16 UNK         0.5000 
     93 O          -5.8958  -24.0283  -52.6679 O.2       16 UNK        -0.5000 
     94 N          -5.0374  -23.1747  -50.7449 N.am      17 UNK        -0.5000 
     95 CA         -5.0569  -21.7404  -51.0480 C.3       17 UNK         0.1400 
     96 CB         -6.5079  -21.2220  -51.1292 C.3       17 UNK        -0.1800 
     97 C          -4.2015  -21.3893  -52.2823 C.2       17 UNK         0.5000 
     98 O          -4.6043  -20.5521  -53.0877 O.2       17 UNK        -0.5000 
     99 N          -3.0508  -22.0692  -52.4126 N.am      18 UNK        -0.5000 
    100 CA        -2.1185  -22.0253  -53.5457 C.3       18 UNK         0.1400 
    101 CB        -1.4109  -20.6573  -53.6213 C.3       18 UNK        -0.1800 
    102 C         -2.8072  -22.4287  -54.8650 C.2       18 UNK         0.5000 
    103 O         -2.7581  -21.6855  -55.8449 O.2       18 UNK        -0.5000 
    104 N         -3.4865  -23.5851  -54.8382 N.am      19 UNK        -0.5000 
    105 CA        -4.3663  -24.1121  -55.8881 C.3       19 UNK         0.1400 
    106 CB        -3.5463  -24.5559  -57.1171 C.3       19 UNK        -0.1800 
    107 C         -5.5052  -23.1271  -56.2354 C.2       19 UNK         0.5000 
    108 O         -5.7427  -22.8299  -57.4074 O.2       19 UNK        -0.5000 
    109 N         -6.1594  -22.6180  -55.1826 N.am      20 UNK        -0.5000 
    110 CA        -7.2483  -21.6353  -55.1675 C.3       20 UNK         0.1400 
    111 CB        -8.4785  -22.1609  -55.9355 C.3       20 UNK        -0.1800 
    112 C         -6.8662  -20.2018  -55.6009 C.2       20 UNK         0.5000 
    113 O         -7.7488  -19.3417  -55.6292 O.2       20 UNK        -0.5000 
    114 N         -5.5849  -19.9312  -55.8932 N.am      21 UNK        -0.5000 
    115 CA        -5.0874  -18.6147  -56.3086 C.3       21 UNK         0.1400 
    116 CB        -3.6273  -18.7320  -56.7670 C.3       21 UNK        -0.1800 
    117 C         -5.2241  -17.5249  -55.2268 C.2       21 UNK         0.5000 
    118 O         -5.4322  -16.3603  -55.5706 O.2       21 UNK        -0.5000 
    119 N         -5.1336  -17.9179  -53.9504 N.am      22 UNK        -0.5000 
    120 CA        -5.3680  -17.0493  -52.7848 C.3       22 UNK         0.1400 
    121 C         -6.8759  -16.8635  -52.4349 C.2       22 UNK         0.5000 
    122 N         -7.8179  -17.4771  -53.1436 N.am      22 UNK        -0.7600 
    123 O         -7.2032  -16.1345  -51.5025 O.2       22 UNK        -0.5000 
    124 C124       -4.5572  -17.5029  -51.5405 C.3       23 UNK        -0.0398 
    125 S125       -2.7640  -17.6015  -51.8537 S.3       23 UNK        -0.2404 
    126 C126       -2.1221  -17.7809  -50.1614 C.3       23 UNK        -0.0205 
    127 H127        3.0906  -11.6011  -51.1383 H         1 UNK         0.0600 
    128 H128        1.4053  -11.0780  -51.0611 H         1 UNK         0.0600 
    129 H129        1.8406  -12.5269  -51.9739 H         1 UNK         0.0600 
    130 H130        3.7434  -12.5564  -49.2660 H         1 UNK         0.3000 
    131 H131        3.9806  -13.7659  -47.4856 H         1 UNK         0.0600 
    132 H132        2.6662  -15.8628  -47.0730 H         1 UNK         0.0800 
    133 H133        1.5742  -15.4441  -48.3604 H         1 UNK         0.0800 
    134 H134        2.2619  -15.4563  -50.9391 H         1 UNK         0.0800 
    135 H135        3.3713  -16.6894  -51.4708 H         1 UNK         0.0800 
    136 H136        0.0154  -16.1083  -50.4140 H         1 UNK         0.1150 
    137 H137       -0.9942  -20.2505  -49.9784 H         1 UNK         0.1150 
    138 H138        3.1054  -19.0818  -50.4351 H         1 UNK         0.1150 
    139 H139        0.6559  -21.9372  -50.0627 H         1 UNK         0.0800 
    140 H140        2.0296  -21.5415  -51.0557 H         1 UNK         0.0800 
    141 H141        1.0309  -20.3007  -47.5005 H         1 UNK         0.0800 
    142 H142        2.3997  -20.7850  -46.5558 H         1 UNK         0.0800 
    143 H143        1.4853  -23.2313  -46.7275 H         1 UNK         0.0600 
    144 H144        0.8818  -21.2164  -44.8426 H         1 UNK         0.3000 
    145 H145       -0.9135  -23.2879  -42.5294 H         1 UNK         0.0600 
    146 H146        0.8314  -22.3168  -41.0601 H         1 UNK         0.0600 
    147 H147        1.5215  -23.5709  -42.0797 H         1 UNK         0.0600 
    148 H148        1.8071  -21.8776  -42.4595 H         1 UNK         0.0600 
    149 H149       -0.3011  -20.5108  -42.4745 H         1 UNK         0.3000 
    150 H150       -3.2671  -19.3851  -44.1799 H         1 UNK         0.0600 
    151 H151       -3.4570  -18.1096  -42.0777 H         1 UNK         0.0600 
    152 H152       -3.8499  -19.7954  -41.7782 H         1 UNK         0.0600 
    153 H153       -2.2837  -19.1602  -41.2871 H         1 UNK         0.0600 
    154 H154       -1.1291  -17.8947  -43.0943 H         1 UNK         0.3000 
    155 H155        0.9757  -17.8678  -46.0215 H         1 UNK         0.0600 
    156 H156       -0.7858  -15.8241  -44.5680 H         1 UNK         0.0600 
    157 H157       -0.6149  -16.0382  -46.3049 H         1 UNK         0.0600 
    158 H158        0.7349  -15.4319  -45.3550 H         1 UNK         0.0600 
    159 H159        1.4253  -16.7655  -43.4568 H         1 UNK         0.3000 
    160 H160        2.9162  -19.6186  -41.8975 H         1 UNK         0.0600 
    161 H161        4.0569  -16.9658  -42.9281 H         1 UNK         0.0600 
    162 H162        4.7305  -18.5651  -43.1978 H         1 UNK         0.0600 
    163 H163        4.6973  -17.8955  -41.5737 H         1 UNK         0.0600 
    164 H164        2.2689  -16.8783  -41.1626 H         1 UNK         0.3000 
    165 H165       -0.8146  -17.6796  -39.5624 H         1 UNK         0.0600 
    166 H166        0.3438  -16.6879  -37.6102 H         1 UNK         0.0600 
    167 H167        0.9243  -18.3220  -37.8883 H         1 UNK         0.0600 
    168 H168        1.9143  -16.9493  -38.3696 H         1 UNK         0.0600 
    169 H169        0.7244  -15.2664  -39.7529 H         1 UNK         0.3000 
    170 H170       -0.6434  -14.1242  -42.8371 H         1 UNK         0.0600 
    171 H171       -2.4417  -13.6380  -41.1638 H         1 UNK         0.0600 
    172 H172       -1.2204  -13.1743  -39.9842 H         1 UNK         0.0600 
    173 H173       -1.4281  -12.2363  -41.4639 H         1 UNK         0.0600 
    174 H174        0.9654  -12.6319  -41.2285 H         1 UNK         0.3000 
    175 H175        3.3790  -12.7908  -41.0068 H         1 UNK         0.0600 
    176 H176        4.5868  -14.3310  -43.3771 H         1 UNK         0.0600 
    177 H177        5.4686  -13.2607  -42.2902 H         1 UNK         0.0600 
    178 H178        4.7721  -14.7537  -41.6774 H         1 UNK         0.0600 
    179 H179        2.9334  -12.4265  -43.9424 H         1 UNK         0.3000 
    180 H180        1.8722   -9.1083  -43.4778 H         1 UNK         0.0600 
    181 H181        4.4201   -9.9724  -44.9529 H         1 UNK         0.0600 
    182 H182        4.3182   -8.6763  -43.7671 H         1 UNK         0.0600 
    183 H183        3.4648   -8.5290  -45.2952 H         1 UNK         0.0600 
    184 H184        2.2458  -10.7637  -45.7982 H         1 UNK         0.3000 
    185 H185       -0.4034  -12.9478  -45.4118 H         1 UNK         0.0600 
    186 H186       -1.8713  -11.0005  -45.9870 H         1 UNK         0.0600 
    187 H187       -0.7055  -10.4773  -47.1977 H         1 UNK         0.0600 
    188 H188       -1.5563  -12.0105  -47.3884 H         1 UNK         0.0600 
    189 H189        0.7549  -12.4922  -47.8348 H         1 UNK         0.3000 
    190 H190       -1.3174  -20.9671  -46.5530 H         1 UNK         0.3000 
    191 H191       -2.6784  -21.8860  -48.8281 H         1 UNK         0.0600 
    192 H192       -3.2261  -19.7675  -47.6563 H         1 UNK         0.0600 
    193 H193       -4.6624  -20.7728  -47.7858 H         1 UNK         0.0600 
    194 H194       -3.8054  -20.6613  -46.2560 H         1 UNK         0.0600 
    195 H195       -2.8744  -23.0845  -45.4396 H         1 UNK         0.3000 
    196 H196       -4.9069  -25.0164  -45.8823 H         1 UNK         0.0600 
    197 H197       -4.0664  -26.0012  -43.7449 H         1 UNK         0.0600 
    198 H198       -4.2331  -24.2559  -43.6260 H         1 UNK         0.0600 
    199 H199       -2.6378  -24.9769  -43.8225 H         1 UNK         0.0600 
    200 H200       -1.3505  -25.2375  -46.2184 H         1 UNK         0.3000 
    201 H201       -1.3010  -28.0560  -46.8028 H         1 UNK         0.0600 
    202 H202        0.6368  -26.8759  -45.8206 H         1 UNK         0.0600 
    203 H203        0.7895  -25.8611  -47.2518 H         1 UNK         0.0600 
    204 H204        1.0876  -27.5922  -47.3609 H         1 UNK         0.0600 
    205 H205       -1.0993  -25.1130  -48.8566 H         1 UNK         0.3000 
    206 H206       -0.8307  -26.7141  -51.3019 H         1 UNK         0.0600 
    207 H207        0.6198  -24.7142  -50.7478 H         1 UNK         0.0600 
    208 H208       -0.1972  -24.5823  -52.2937 H         1 UNK         0.0600 
    209 H209       -0.7999  -23.6826  -50.9040 H         1 UNK         0.0600 
    210 H210       -3.5345  -25.9374  -49.6540 H         1 UNK         0.3000 
    211 H211       -5.7082  -25.6823  -50.0583 H         1 UNK         0.0600 
    212 H212       -5.1070  -26.6770  -52.8991 H         1 UNK         0.0600 
    213 H213       -6.6829  -26.6418  -52.1228 H         1 UNK         0.0600 
    214 H214       -5.4267  -27.7003  -51.4999 H         1 UNK         0.0600 
    215 H215       -4.6668  -23.4299  -49.8288 H         1 UNK         0.3000 
    216 H216       -4.5802  -21.2338  -50.2095 H         1 UNK         0.0600 
    217 H217       -6.5450  -20.1539  -51.3430 H         1 UNK         0.0600 
    218 H218       -7.0282  -21.3782  -50.1844 H         1 UNK         0.0600 
    219 H219       -7.0778  -21.7297  -51.9050 H         1 UNK         0.0600 
    220 H220       -2.8525  -22.7724  -51.7176 H         1 UNK         0.3000 
    221 H221       -1.3544  -22.7790  -53.3575 H         1 UNK         0.0600 
    222 H222       -2.1120  -19.8479  -53.8237 H         1 UNK         0.0600 
    223 H223       -0.8970  -20.4274  -52.6892 H         1 UNK         0.0600 
    224 H224       -0.6629  -20.6470  -54.4146 H         1 UNK         0.0600 
    225 H225       -3.4397  -24.1439  -53.9895 H         1 UNK         0.3000 
    226 H226       -4.8438  -24.9996  -55.4701 H         1 UNK         0.0600 
    227 H227       -2.7687  -25.2657  -56.8351 H         1 UNK         0.0600 
    228 H228       -4.1833  -25.0477  -57.8531 H         1 UNK         0.0600 
    229 H229       -3.0662  -23.7117  -57.6128 H         1 UNK         0.0600 
    230 H230       -5.8926  -22.9658  -54.2642 H         1 UNK         0.3000 
    231 H231       -7.5413  -21.5488  -54.1222 H         1 UNK         0.0600 
    232 H232       -8.2981  -22.2085  -57.0096 H         1 UNK         0.0600 
    233 H233       -9.3424  -21.5135  -55.7812 H         1 UNK         0.0600 
    234 H234       -8.7590  -23.1581  -55.5962 H         1 UNK         0.0600 
    235 H235       -4.8971  -20.6672  -55.7967 H         1 UNK         0.3000 
    236 H236       -5.6834  -18.2987  -57.1671 H         1 UNK         0.0600 
    237 H237       -3.5163  -19.4811  -57.5512 H         1 UNK         0.0600 
    238 H238       -3.2671  -17.7838  -57.1676 H         1 UNK         0.0600 
    239 H239       -2.9705  -19.0076  -55.9418 H         1 UNK         0.0600 
    240 H240       -4.9472  -18.8987  -53.7455 H         1 UNK         0.3000 
    241 H241       -5.0104  -16.0503  -53.0409 H         1 UNK         0.0600 
    242 H242       -7.5844  -18.0555  -53.9408 H         1 UNK         0.3800 
    243 H243       -8.7855  -17.3347  -52.9014 H         1 UNK         0.3800 
    244 H244       -4.7140  -16.8084  -50.7132 H         1 UNK         0.0800 
    245 H245       -4.9002  -18.4767  -51.1926 H         1 UNK         0.0800 
    246 H246       -2.6886  -18.5520  -49.6387 H         1 UNK         0.0800 
    247 H247       -2.2730  -16.8518  -49.6097 H         1 UNK         0.0800 
@<TRIPOS>BOND
     1    1    2 1    
     2    1  127 1    
     3    1  128 1    
     4    1  129 1    
     5    2    3 2    
     6    2    4 am   BACKBONE|DICT|INTERRES
     7    4    5 1    
     8    4  130 1    
     9    5    6 1    
    10    5   65 1    
    11    5  131 1    
    12    6    7 1    
    13    6  132 1    
    14    6  133 1    
    15    7    8 1    
    16    8    9 1    
    17    8  134 1    
    18    8  135 1    
    19    9   10 ar   
    20    9   14 ar   
    21   10   11 ar   
    22   10  136 1    
    23   11   12 ar   
    24   11  126 1    
    25   12   13 ar   
    26   12  137 1    
    27   13   14 ar   
    28   13   15 1    
    29   14  138 1    
    30   15   16 1    
    31   15  139 1    
    32   15  140 1    
    33   16   17 1    
    34   17   18 1    
    35   17  141 1    
    36   17  142 1    
    37   18   19 1    
    38   18   67 1    
    39   18  143 1    
    40   19   20 am   BACKBONE|DICT|INTERRES
    41   19  144 1    
    42   20   21 2    
    43   20   22 1    
    44   22   23 1    
    45   22   24 1    
    46   22  145 1    
    47   23  146 1    
    48   23  147 1    
    49   23  148 1    
    50   24   25 am   BACKBONE|DICT|INTERRES
    51   24  149 1    
    52   25   26 2    
    53   25   27 1    
    54   27   28 1    
    55   27   29 1    
    56   27  150 1    
    57   28  151 1    
    58   28  152 1    
    59   28  153 1    
    60   29   30 am   BACKBONE|DICT|INTERRES
    61   29  154 1    
    62   30   31 2    
    63   30   32 1    
    64   32   33 1    
    65   32   34 1    
    66   32  155 1    
    67   33  156 1    
    68   33  157 1    
    69   33  158 1    
    70   34   35 am   BACKBONE|DICT|INTERRES
    71   34  159 1    
    72   35   36 2    
    73   35   37 1    
    74   37   38 1    
    75   37   39 1    
    76   37  160 1    
    77   38  161 1    
    78   38  162 1    
    79   38  163 1    
    80   39   40 am   BACKBONE|DICT|INTERRES
    81   39  164 1    
    82   40   41 2    
    83   40   42 1    
    84   42   43 1    
    85   42   44 1    
    86   42  165 1    
    87   43  166 1    
    88   43  167 1    
    89   43  168 1    
    90   44   45 am   BACKBONE|DICT|INTERRES
    91   44  169 1    
    92   45   46 2    
    93   45   47 1    
    94   47   48 1    
    95   47   49 1    
    96   47  170 1    
    97   48  171 1    
    98   48  172 1    
    99   48  173 1    
   100   49   50 am   BACKBONE|DICT|INTERRES
   101   49  174 1    
   102   50   51 2    
   103   50   52 1    
   104   52   53 1    
   105   52   54 1    
   106   52  175 1    
   107   53  176 1    
   108   53  177 1    
   109   53  178 1    
   110   54   55 am   BACKBONE|DICT|INTERRES
   111   54  179 1    
   112   55   56 2    
   113   55   57 1    
   114   57   58 1    
   115   57   59 1    
   116   57  180 1    
   117   58  181 1    
   118   58  182 1    
   119   58  183 1    
   120   59   60 am   BACKBONE|DICT|INTERRES
   121   59  184 1    
   122   60   61 2    
   123   60   62 1    
   124   62   63 1    
   125   62   64 1    
   126   62  185 1    
   127   63  186 1    
   128   63  187 1    
   129   63  188 1    
   130   64   65 am   BACKBONE|DICT|INTERRES
   131   64  189 1    
   132   65   66 2    
   133   67   68 2    
   134   67   69 am   BACKBONE|DICT|INTERRES
   135   69   70 1    
   136   69  190 1    
   137   70   71 1    
   138   70   72 1    
   139   70  191 1    
   140   71  192 1    
   141   71  193 1    
   142   71  194 1    
   143   72   73 2    
   144   72   74 am   BACKBONE|DICT|INTERRES
   145   74   75 1    
   146   74  195 1    
   147   75   76 1    
   148   75   77 1    
   149   75  196 1    
   150   76  197 1    
   151   76  198 1    
   152   76  199 1    
   153   77   78 2    
   154   77   79 am   BACKBONE|DICT|INTERRES
   155   79   80 1    
   156   79  200 1    
   157   80   81 1    
   158   80   82 1    
   159   80  201 1    
   160   81  202 1    
   161   81  203 1    
   162   81  204 1    
   163   82   83 2    
   164   82   84 am   BACKBONE|DICT|INTERRES
   165   84   85 1    
   166   84  205 1    
   167   85   86 1    
   168   85   87 1    
   169   85  206 1    
   170   86  207 1    
   171   86  208 1    
   172   86  209 1    
   173   87   88 2    
   174   87   89 am   BACKBONE|DICT|INTERRES
   175   89   90 1    
   176   89  210 1    
   177   90   91 1    
   178   90   92 1    
   179   90  211 1    
   180   91  212 1    
   181   91  213 1    
   182   91  214 1    
   183   92   93 2    
   184   92   94 am   BACKBONE|DICT|INTERRES
   185   94   95 1    
   186   94  215 1    
   187   95   96 1    
   188   95   97 1    
   189   95  216 1    
   190   96  217 1    
   191   96  218 1    
   192   96  219 1    
   193   97   98 2    
   194   97   99 am   BACKBONE|DICT|INTERRES
   195   99  100 1    
   196   99  220 1    
   197  100  101 1    
   198  100  102 1    
   199  100  221 1    
   200  101  222 1    
   201  101  223 1    
   202  101  224 1    
   203  102  103 2    
   204  102  104 am   BACKBONE|DICT|INTERRES
   205  104  105 1    
   206  104  225 1    
   207  105  106 1    
   208  105  107 1    
   209  105  226 1    
   210  106  227 1    
   211  106  228 1    
   212  106  229 1    
   213  107  108 2    
   214  107  109 am   BACKBONE|DICT|INTERRES
   215  109  110 1    
   216  109  230 1    
   217  110  111 1    
   218  110  112 1    
   219  110  231 1    
   220  111  232 1    
   221  111  233 1    
   222  111  234 1    
   223  112  113 2    
   224  112  114 am   BACKBONE|DICT|INTERRES
   225  114  115 1    
   226  114  235 1    
   227  115  116 1    
   228  115  117 1    
   229  115  236 1    
   230  116  237 1    
   231  116  238 1    
   232  116  239 1    
   233  117  118 2    
   234  117  119 am   BACKBONE|DICT|INTERRES
   235  119  120 1    
   236  119  240 1    
   237  120  121 1    
   238  120  124 1    
   239  120  241 1    
   240  121  122 am   BACKBONE|DICT|INTERRES
   241  121  123 2    
   242  122  242 1    
   243  122  243 1    
   244  124  125 1    
   245  124  244 1    
   246  124  245 1    
   247  125  126 1    
   248  126  246 1    
   249  126  247 1    
@<TRIPOS>SUBSTRUCTURE
     1 UNK         1 GROUP             0       ****    0 ROOT    
