@<TRIPOS>MOLECULE
3R540
247   249    1
SMALL
USER_CHARGES


@<TRIPOS>ATOM
      1 CA          3.6305  -15.7968  -47.2138 C.3       0 UNK        -0.1800 
      2 C           2.2712  -15.1736  -46.9332 C.2       0 UNK         0.5000 
      3 O           1.8966  -15.0027  -45.7749 O.2       0 UNK        -0.5000 
      4 N           1.5456  -14.7857  -47.9881 N.am      1 UNK        -0.5000 
      5 CA          0.2456  -14.0995  -47.9433 C.3       1 UNK         0.1400 
      6 C6         -0.5541  -14.3403  -49.2518 C.3       23 UNK        -0.0398 
      7 S7         -1.1875  -16.0491  -49.3846 S.3       23 UNK        -0.2404 
      8 C8         -2.9726  -15.6952  -49.4356 C.3       23 UNK        -0.0205 
      9 C9         -3.8222  -16.9495  -49.5502 C.ar      23 UNK        -0.0193 
     10 C10        -3.8285  -17.6864  -50.7352 C.ar      23 UNK        -0.1150 
     11 C11        -4.6733  -18.7901  -50.8853 C.ar      23 UNK        -0.0193 
     12 C12        -5.5008  -19.1700  -49.8242 C.ar      23 UNK        -0.1150 
     13 C13        -5.4953  -18.4453  -48.6272 C.ar      23 UNK        -0.0193 
     14 C14        -4.6561  -17.3363  -48.4990 C.ar      23 UNK        -0.1150 
     15 C15        -6.4214  -18.8195  -47.4802 C.3       23 UNK        -0.0205 
     16 S16        -5.5986  -19.8906  -46.2602 S.3       23 UNK        -0.2404 
     17 C17        -5.7245  -21.5176  -47.0803 C.3       23 UNK        -0.0398 
     18 CA         -4.3804  -22.2682  -47.2240 C.3       11 UNK         0.1400 
     19 N          -3.3259  -21.4545  -47.8403 N.am      11 UNK        -0.5000 
     20 C          -2.1943  -21.9573  -48.3488 C.2       10 UNK         0.5000 
     21 O          -1.9468  -23.1632  -48.3817 O.2       10 UNK        -0.5000 
     22 CA         -1.1425  -20.9635  -48.8732 C.3       10 UNK         0.1400 
     23 CB         -1.3827  -20.6717  -50.3597 C.3       10 UNK        -0.1800 
     24 N          -1.0436  -19.6976  -48.1374 N.am      10 UNK        -0.5000 
     25 C          -0.8234  -19.5810  -46.8211 C.2       9 UNK         0.5000 
     26 O          -0.8501  -20.5302  -46.0352 O.2       9 UNK        -0.5000 
     27 CA         -0.5459  -18.1639  -46.2896 C.3       9 UNK         0.1400 
     28 CB         -1.8610  -17.4633  -45.9344 C.3       9 UNK        -0.1800 
     29 N           0.3289  -18.1807  -45.1153 N.am      9 UNK        -0.5000 
     30 C           1.6130  -18.5661  -45.1413 C.2       8 UNK         0.5000 
     31 O           2.1990  -18.8959  -46.1731 O.2       8 UNK        -0.5000 
     32 CA          2.3890  -18.5880  -43.8110 C.3       8 UNK         0.1400 
     33 CB          3.4430  -17.4717  -43.7817 C.3       8 UNK        -0.1800 
     34 N           1.5354  -18.4675  -42.6263 N.am      8 UNK        -0.5000 
     35 C           0.9428  -19.5074  -42.0235 C.2       7 UNK         0.5000 
     36 O           1.0060  -20.6594  -42.4514 O.2       7 UNK        -0.5000 
     37 CA          0.1668  -19.2445  -40.7216 C.3       7 UNK         0.1400 
     38 CB          1.0732  -19.4654  -39.4995 C.3       7 UNK        -0.1800 
     39 N          -0.4167  -17.9027  -40.6530 N.am      7 UNK        -0.5000 
     40 C          -1.6399  -17.6357  -40.1696 C.2       6 UNK         0.5000 
     41 O          -2.4060  -18.4985  -39.7381 O.2       6 UNK        -0.5000 
     42 CA         -2.0992  -16.1606  -40.1501 C.3       6 UNK         0.1400 
     43 CB         -1.8978  -15.5561  -38.7520 C.3       6 UNK        -0.1800 
     44 N          -1.4133  -15.3181  -41.1294 N.am      6 UNK        -0.5000 
     45 C          -1.5107  -15.4552  -42.4575 C.2       5 UNK         0.5000 
     46 O          -2.3013  -16.2271  -42.9968 O.2       5 UNK        -0.5000 
     47 CA         -0.5482  -14.6275  -43.3353 C.3       5 UNK         0.1400 
     48 CB         -1.3139  -13.5182  -44.0720 C.3       5 UNK        -0.1800 
     49 N           0.5975  -14.0251  -42.6425 N.am      5 UNK        -0.5000 
     50 C           1.5346  -14.6590  -41.9219 C.2       4 UNK         0.5000 
     51 O           1.4743  -15.8577  -41.6414 O.2       4 UNK        -0.5000 
     52 CA          2.7296  -13.8210  -41.4244 C.3       4 UNK         0.1400 
     53 CB          4.0618  -14.5509  -41.6628 C.3       4 UNK        -0.1800 
     54 N           2.7981  -12.5142  -42.0794 N.am      4 UNK        -0.5000 
     55 C           2.3370  -11.3579  -41.5950 C.2       3 UNK         0.5000 
     56 O           1.7748  -11.2507  -40.5051 O.2       3 UNK        -0.5000 
     57 CA          2.5127  -10.1127  -42.4888 C.3       3 UNK         0.1400 
     58 CB          3.9867   -9.6654  -42.5375 C.3       3 UNK        -0.1800 
     59 N           1.9473  -10.2385  -43.8424 N.am      3 UNK        -0.5000 
     60 C           2.3099  -11.0611  -44.8369 C.2       2 UNK         0.5000 
     61 O           3.2073  -11.9032  -44.7527 O.2       2 UNK        -0.5000 
     62 CA          1.5430  -10.9169  -46.1564 C.3       2 UNK         0.1400 
     63 CB          2.3428  -10.0735  -47.1655 C.3       2 UNK        -0.1800 
     64 N           1.2997  -12.2534  -46.6840 N.am      2 UNK        -0.5000 
     65 C           0.3861  -12.5910  -47.5996 C.2       1 UNK         0.5000 
     66 O          -0.3352  -11.7593  -48.1531 O.2       1 UNK        -0.5000 
     67 C          -3.9533  -22.9435  -45.9021 C.2       11 UNK         0.5000 
     68 O          -4.5163  -23.9832  -45.5579 O.2       11 UNK        -0.5000 
     69 N          -2.9677  -22.3680  -45.2027 N.am      12 UNK        -0.5000 
     70 CA         -2.4167  -22.8977  -43.9592 C.3       12 UNK         0.1400 
     71 CB         -2.2076  -21.7393  -42.9701 C.3       12 UNK        -0.1800 
     72 C          -1.1004  -23.6479  -44.2172 C.2       12 UNK         0.5000 
     73 O          -0.9403  -24.7738  -43.7453 O.2       12 UNK        -0.5000 
     74 N          -0.1837  -23.0157  -44.9605 N.am      13 UNK        -0.5000 
     75 CA          1.1814  -23.4933  -45.1763 C.3       13 UNK         0.1400 
     76 CB          2.0568  -22.3182  -45.6331 C.3       13 UNK        -0.1800 
     77 C           1.2844  -24.6500  -46.1825 C.2       13 UNK         0.5000 
     78 O           2.1293  -25.5278  -46.0013 O.2       13 UNK        -0.5000 
     79 N           0.4448  -24.6250  -47.2247 N.am      14 UNK        -0.5000 
     80 CA          0.4586  -25.5897  -48.3270 C.3       14 UNK         0.1400 
     81 CB          0.7651  -24.8393  -49.6367 C.3       14 UNK        -0.1800 
     82 C          -0.8646  -26.3669  -48.4295 C.2       14 UNK         0.5000 
     83 O          -1.0696  -27.0669  -49.4200 O.2       14 UNK        -0.5000 
     84 N          -1.7608  -26.2072  -47.4426 N.am      15 UNK        -0.5000 
     85 CA         -3.1044  -26.8002  -47.3707 C.3       15 UNK         0.1400 
     86 CB         -3.0053  -28.3183  -47.1150 C.3       15 UNK        -0.1800 
     87 C          -3.9936  -26.4579  -48.5901 C.2       15 UNK         0.5000 
     88 O          -4.8315  -27.2667  -48.9913 O.2       15 UNK        -0.5000 
     89 N          -3.7665  -25.2677  -49.1659 N.am      16 UNK        -0.5000 
     90 CA         -4.3872  -24.7078  -50.3698 C.3       16 UNK         0.1400 
     91 CB         -5.9200  -24.5937  -50.2245 C.3       16 UNK        -0.1800 
     92 C          -3.9658  -25.4012  -51.6827 C.2       16 UNK         0.5000 
     93 O          -4.5912  -25.1507  -52.7136 O.2       16 UNK        -0.5000 
     94 N          -2.8988  -26.2184  -51.6585 N.am      17 UNK        -0.5000 
     95 CA         -2.3122  -26.8233  -52.8601 C.3       17 UNK         0.1400 
     96 CB         -1.3340  -27.9393  -52.4665 C.3       17 UNK        -0.1800 
     97 C          -1.6108  -25.7791  -53.7485 C.2       17 UNK         0.5000 
     98 O          -1.6527  -25.8911  -54.9742 O.2       17 UNK        -0.5000 
     99 N          -1.0345  -24.7446  -53.1195 N.am      18 UNK        -0.5000 
    100 CA        -0.4633  -23.5631  -53.7686 C.3       18 UNK         0.1400 
    101 CB         0.6352  -22.9746  -52.8655 C.3       18 UNK        -0.1800 
    102 C         -1.5649  -22.5411  -54.1241 C.2       18 UNK         0.5000 
    103 O         -1.4858  -21.3718  -53.7435 O.2       18 UNK        -0.5000 
    104 N         -2.5875  -23.0097  -54.8523 N.am      19 UNK        -0.5000 
    105 CA        -3.7819  -22.2590  -55.2501 C.3       19 UNK         0.1400 
    106 CB        -4.7625  -23.2152  -55.9442 C.3       19 UNK        -0.1800 
    107 C         -3.4913  -21.0407  -56.1465 C.2       19 UNK         0.5000 
    108 O         -4.2977  -20.1134  -56.1846 O.2       19 UNK        -0.5000 
    109 N         -2.3271  -21.0345  -56.8123 N.am      20 UNK        -0.5000 
    110 CA        -1.8046  -19.9273  -57.6168 C.3       20 UNK         0.1400 
    111 CB        -0.4688  -20.3563  -58.2422 C.3       20 UNK        -0.1800 
    112 C         -1.6341  -18.6065  -56.8362 C.2       20 UNK         0.5000 
    113 O         -1.6793  -17.5389  -57.4478 O.2       20 UNK        -0.5000 
    114 N         -1.4862  -18.6914  -55.5052 N.am      21 UNK        -0.5000 
    115 CA        -1.4388  -17.5451  -54.5957 C.3       21 UNK         0.1400 
    116 CB        -0.8839  -18.0102  -53.2392 C.3       21 UNK        -0.1800 
    117 C         -2.7952  -16.8246  -54.4208 C.2       21 UNK         0.5000 
    118 O         -2.8110  -15.7183  -53.8800 O.2       21 UNK        -0.5000 
    119 N         -3.8988  -17.4414  -54.8646 N.am      22 UNK        -0.5000 
    120 CA        -5.2661  -16.9040  -54.7779 C.3       22 UNK         0.1400 
    121 C         -6.0987  -17.0883  -56.0802 C.2       22 UNK         0.5000 
    122 N         -5.4845  -17.3784  -57.2208 N.am      22 UNK        -0.7600 
    123 O         -7.3162  -16.9253  -56.0741 O.2       22 UNK        -0.5000 
    124 C124       -5.9969  -17.3484  -53.4815 C.3       23 UNK        -0.0398 
    125 S125       -6.1368  -19.1595  -53.2381 S.3       23 UNK        -0.2404 
    126 C126       -4.6922  -19.5620  -52.1980 C.3       23 UNK        -0.0205 
    127 H127        3.9282  -15.6634  -48.2541 H         1 UNK         0.0600 
    128 H128        3.6121  -16.8637  -47.0003 H         1 UNK         0.0600 
    129 H129        4.3905  -15.3359  -46.5827 H         1 UNK         0.0600 
    130 H130        1.9180  -14.9363  -48.9146 H         1 UNK         0.3000 
    131 H131       -0.3346  -14.5271  -47.1223 H         1 UNK         0.0600 
    132 H132       -1.4055  -13.6621  -49.3238 H         1 UNK         0.0800 
    133 H133        0.0634  -14.1249  -50.1250 H         1 UNK         0.0800 
    134 H134       -3.1859  -15.0506  -50.2899 H         1 UNK         0.0800 
    135 H135       -3.2487  -15.1295  -48.5442 H         1 UNK         0.0800 
    136 H136       -3.1938  -17.3767  -51.5520 H         1 UNK         0.1150 
    137 H137       -6.1627  -20.0155  -49.9439 H         1 UNK         0.1150 
    138 H138       -4.6706  -16.7615  -47.5836 H         1 UNK         0.1150 
    139 H139       -6.7566  -17.9128  -46.9742 H         1 UNK         0.0800 
    140 H140       -7.3255  -19.3016  -47.8552 H         1 UNK         0.0800 
    141 H141       -6.1575  -21.3911  -48.0716 H         1 UNK         0.0800 
    142 H142       -6.4515  -22.1223  -46.5348 H         1 UNK         0.0800 
    143 H143       -4.5760  -23.0896  -47.9102 H         1 UNK         0.0600 
    144 H144       -3.4623  -20.4535  -47.8276 H         1 UNK         0.3000 
    145 H145       -0.1748  -21.4612  -48.7825 H         1 UNK         0.0600 
    146 H146       -0.5211  -20.1809  -50.8125 H         1 UNK         0.0600 
    147 H147       -1.5680  -21.5883  -50.9202 H         1 UNK         0.0600 
    148 H148       -2.2474  -20.0285  -50.5040 H         1 UNK         0.0600 
    149 H149       -1.0449  -18.8589  -48.7009 H         1 UNK         0.3000 
    150 H150       -0.0439  -17.5913  -47.0717 H         1 UNK         0.0600 
    151 H151       -2.5367  -17.4589  -46.7868 H         1 UNK         0.0600 
    152 H152       -1.6925  -16.4237  -45.6564 H         1 UNK         0.0600 
    153 H153       -2.3758  -17.9618  -45.1121 H         1 UNK         0.0600 
    154 H154       -0.0939  -17.9738  -44.2238 H         1 UNK         0.3000 
    155 H155        2.9245  -19.5385  -43.7663 H         1 UNK         0.0600 
    156 H156        2.9844  -16.4879  -43.8710 H         1 UNK         0.0600 
    157 H157        4.1503  -17.5780  -44.6048 H         1 UNK         0.0600 
    158 H158        4.0174  -17.4941  -42.8557 H         1 UNK         0.0600 
    159 H159        1.4829  -17.5388  -42.2140 H         1 UNK         0.3000 
    160 H160       -0.6283  -19.9927  -40.6937 H         1 UNK         0.0600 
    161 H161        1.8798  -18.7322  -39.4623 H         1 UNK         0.0600 
    162 H162        1.5282  -20.4566  -39.5220 H         1 UNK         0.0600 
    163 H163        0.5074  -19.3891  -38.5708 H         1 UNK         0.0600 
    164 H164        0.1598  -17.1317  -40.9745 H         1 UNK         0.3000 
    165 H165       -3.1665  -16.1458  -40.3805 H         1 UNK         0.0600 
    166 H166       -0.8432  -15.5284  -38.4745 H         1 UNK         0.0600 
    167 H167       -2.2865  -14.5388  -38.7015 H         1 UNK         0.0600 
    168 H168       -2.4214  -16.1405  -37.9942 H         1 UNK         0.0600 
    169 H169       -0.7344  -14.6640  -40.7696 H         1 UNK         0.3000 
    170 H170       -0.1411  -15.3128  -44.0803 H         1 UNK         0.0600 
    171 H171       -2.1331  -13.9312  -44.6622 H         1 UNK         0.0600 
    172 H172       -1.7411  -12.7961  -43.3751 H         1 UNK         0.0600 
    173 H173       -0.6636  -12.9772  -44.7574 H         1 UNK         0.0600 
    174 H174        0.7369  -13.0386  -42.7970 H         1 UNK         0.3000 
    175 H175        2.6026  -13.6920  -40.3479 H         1 UNK         0.0600 
    176 H176        4.2466  -14.7106  -42.7256 H         1 UNK         0.0600 
    177 H177        4.8986  -13.9787  -41.2622 H         1 UNK         0.0600 
    178 H178        4.0746  -15.5252  -41.1726 H         1 UNK         0.0600 
    179 H179        3.1837  -12.4981  -43.0222 H         1 UNK         0.3000 
    180 H180        1.9503   -9.3087  -42.0110 H         1 UNK         0.0600 
    181 H181        4.6280  -10.4117  -43.0071 H         1 UNK         0.0600 
    182 H182        4.3734   -9.4915  -41.5326 H         1 UNK         0.0600 
    183 H183        4.0963   -8.7340  -43.0929 H         1 UNK         0.0600 
    184 H184        1.1825   -9.6035  -44.0265 H         1 UNK         0.3000 
    185 H185        0.5831  -10.4348  -45.9592 H         1 UNK         0.0600 
    186 H186        2.5599   -9.0838  -46.7617 H         1 UNK         0.0600 
    187 H187        3.2950  -10.5440  -47.4140 H         1 UNK         0.0600 
    188 H188        1.7890   -9.9294  -48.0931 H         1 UNK         0.0600 
    189 H189        1.8318  -12.9930  -46.2333 H         1 UNK         0.3000 
    190 H190       -2.5061  -21.5487  -45.5830 H         1 UNK         0.3000 
    191 H191       -3.1156  -23.6003  -43.5003 H         1 UNK         0.0600 
    192 H192       -1.7422  -22.0890  -42.0477 H         1 UNK         0.0600 
    193 H193       -3.1575  -21.2769  -42.7015 H         1 UNK         0.0600 
    194 H194       -1.5677  -20.9613  -43.3872 H         1 UNK         0.0600 
    195 H195       -0.3970  -22.0831  -45.3114 H         1 UNK         0.3000 
    196 H196        1.5728  -23.8503  -44.2212 H         1 UNK         0.0600 
    197 H197        1.6873  -21.8726  -46.5576 H         1 UNK         0.0600 
    198 H198        2.0825  -21.5388  -44.8734 H         1 UNK         0.0600 
    199 H199        3.0858  -22.6354  -45.8064 H         1 UNK         0.0600 
    200 H200       -0.2389  -23.8810  -47.2981 H         1 UNK         0.3000 
    201 H201        1.2400  -26.3373  -48.1792 H         1 UNK         0.0600 
    202 H202       -0.0185  -24.1249  -49.8866 H         1 UNK         0.0600 
    203 H203        0.8589  -25.5303  -50.4754 H         1 UNK         0.0600 
    204 H204        1.7049  -24.2918  -49.5656 H         1 UNK         0.0600 
    205 H205       -1.5028  -25.6052  -46.6742 H         1 UNK         0.3000 
    206 H206       -3.5921  -26.3524  -46.5045 H         1 UNK         0.0600 
    207 H207       -2.3838  -28.5314  -46.2453 H         1 UNK         0.0600 
    208 H208       -3.9885  -28.7489  -46.9220 H         1 UNK         0.0600 
    209 H209       -2.5790  -28.8453  -47.9692 H         1 UNK         0.0600 
    210 H210       -3.0301  -24.6906  -48.7668 H         1 UNK         0.3000 
    211 H211       -3.9987  -23.6912  -50.4455 H         1 UNK         0.0600 
    212 H212       -6.3428  -23.9891  -51.0276 H         1 UNK         0.0600 
    213 H213       -6.2016  -24.1206  -49.2845 H         1 UNK         0.0600 
    214 H214       -6.4049  -25.5691  -50.2664 H         1 UNK         0.0600 
    215 H215       -2.4348  -26.4170  -50.7778 H         1 UNK         0.3000 
    216 H216       -3.1190  -27.2726  -53.4430 H         1 UNK         0.0600 
    217 H217       -0.4587  -27.5458  -51.9489 H         1 UNK         0.0600 
    218 H218       -0.9775  -28.4713  -53.3493 H         1 UNK         0.0600 
    219 H219       -1.8099  -28.6718  -51.8142 H         1 UNK         0.0600 
    220 H220       -1.0834  -24.7226  -52.1124 H         1 UNK         0.3000 
    221 H221        0.0094  -23.8628  -54.7062 H         1 UNK         0.0600 
    222 H222        1.4270  -23.7021  -52.6862 H         1 UNK         0.0600 
    223 H223        0.2443  -22.6646  -51.8976 H         1 UNK         0.0600 
    224 H224        1.0974  -22.1015  -53.3279 H         1 UNK         0.0600 
    225 H225       -2.5608  -23.9877  -55.1165 H         1 UNK         0.3000 
    226 H226       -4.2544  -21.8848  -54.3397 H         1 UNK         0.0600 
    227 H227       -4.3323  -23.6447  -56.8498 H         1 UNK         0.0600 
    228 H228       -5.0460  -24.0358  -55.2847 H         1 UNK         0.0600 
    229 H229       -5.6794  -22.6969  -56.2282 H         1 UNK         0.0600 
    230 H230       -1.7296  -21.8419  -56.7172 H         1 UNK         0.3000 
    231 H231       -2.5182  -19.7400  -58.4216 H         1 UNK         0.0600 
    232 H232        0.2765  -20.5857  -57.4794 H         1 UNK         0.0600 
    233 H233       -0.0603  -19.5656  -58.8731 H         1 UNK         0.0600 
    234 H234       -0.5914  -21.2392  -58.8698 H         1 UNK         0.0600 
    235 H235       -1.4691  -19.6079  -55.0723 H         1 UNK         0.3000 
    236 H236       -0.7415  -16.8137  -55.0092 H         1 UNK         0.0600 
    237 H237        0.1161  -18.4306  -53.3462 H         1 UNK         0.0600 
    238 H238       -0.8123  -17.1798  -52.5353 H         1 UNK         0.0600 
    239 H239       -1.5152  -18.7726  -52.7845 H         1 UNK         0.0600 
    240 H240       -3.8305  -18.3599  -55.2912 H         1 UNK         0.3000 
    241 H241       -5.1866  -15.8174  -54.7152 H         1 UNK         0.0600 
    242 H242       -4.4849  -17.4985  -57.2517 H         1 UNK         0.3800 
    243 H243       -6.0295  -17.4891  -58.0611 H         1 UNK         0.3800 
    244 H244       -5.5038  -16.8949  -52.6251 H         1 UNK         0.0800 
    245 H245       -7.0061  -16.9348  -53.4587 H         1 UNK         0.0800 
    246 H246       -3.7811  -19.3803  -52.7674 H         1 UNK         0.0800 
    247 H247       -4.7005  -20.6318  -51.9849 H         1 UNK         0.0800 
@<TRIPOS>BOND
     1    1    2 1    
     2    1  127 1    
     3    1  128 1    
     4    1  129 1    
     5    2    3 2    
     6    2    4 am   BACKBONE|DICT|INTERRES
     7    4    5 1    
     8    4  130 1    
     9    5    6 1    
    10    5   65 1    
    11    5  131 1    
    12    6    7 1    
    13    6  132 1    
    14    6  133 1    
    15    7    8 1    
    16    8    9 1    
    17    8  134 1    
    18    8  135 1    
    19    9   10 ar   
    20    9   14 ar   
    21   10   11 ar   
    22   10  136 1    
    23   11   12 ar   
    24   11  126 1    
    25   12   13 ar   
    26   12  137 1    
    27   13   14 ar   
    28   13   15 1    
    29   14  138 1    
    30   15   16 1    
    31   15  139 1    
    32   15  140 1    
    33   16   17 1    
    34   17   18 1    
    35   17  141 1    
    36   17  142 1    
    37   18   19 1    
    38   18   67 1    
    39   18  143 1    
    40   19   20 am   BACKBONE|DICT|INTERRES
    41   19  144 1    
    42   20   21 2    
    43   20   22 1    
    44   22   23 1    
    45   22   24 1    
    46   22  145 1    
    47   23  146 1    
    48   23  147 1    
    49   23  148 1    
    50   24   25 am   BACKBONE|DICT|INTERRES
    51   24  149 1    
    52   25   26 2    
    53   25   27 1    
    54   27   28 1    
    55   27   29 1    
    56   27  150 1    
    57   28  151 1    
    58   28  152 1    
    59   28  153 1    
    60   29   30 am   BACKBONE|DICT|INTERRES
    61   29  154 1    
    62   30   31 2    
    63   30   32 1    
    64   32   33 1    
    65   32   34 1    
    66   32  155 1    
    67   33  156 1    
    68   33  157 1    
    69   33  158 1    
    70   34   35 am   BACKBONE|DICT|INTERRES
    71   34  159 1    
    72   35   36 2    
    73   35   37 1    
    74   37   38 1    
    75   37   39 1    
    76   37  160 1    
    77   38  161 1    
    78   38  162 1    
    79   38  163 1    
    80   39   40 am   BACKBONE|DICT|INTERRES
    81   39  164 1    
    82   40   41 2    
    83   40   42 1    
    84   42   43 1    
    85   42   44 1    
    86   42  165 1    
    87   43  166 1    
    88   43  167 1    
    89   43  168 1    
    90   44   45 am   BACKBONE|DICT|INTERRES
    91   44  169 1    
    92   45   46 2    
    93   45   47 1    
    94   47   48 1    
    95   47   49 1    
    96   47  170 1    
    97   48  171 1    
    98   48  172 1    
    99   48  173 1    
   100   49   50 am   BACKBONE|DICT|INTERRES
   101   49  174 1    
   102   50   51 2    
   103   50   52 1    
   104   52   53 1    
   105   52   54 1    
   106   52  175 1    
   107   53  176 1    
   108   53  177 1    
   109   53  178 1    
   110   54   55 am   BACKBONE|DICT|INTERRES
   111   54  179 1    
   112   55   56 2    
   113   55   57 1    
   114   57   58 1    
   115   57   59 1    
   116   57  180 1    
   117   58  181 1    
   118   58  182 1    
   119   58  183 1    
   120   59   60 am   BACKBONE|DICT|INTERRES
   121   59  184 1    
   122   60   61 2    
   123   60   62 1    
   124   62   63 1    
   125   62   64 1    
   126   62  185 1    
   127   63  186 1    
   128   63  187 1    
   129   63  188 1    
   130   64   65 am   BACKBONE|DICT|INTERRES
   131   64  189 1    
   132   65   66 2    
   133   67   68 2    
   134   67   69 am   BACKBONE|DICT|INTERRES
   135   69   70 1    
   136   69  190 1    
   137   70   71 1    
   138   70   72 1    
   139   70  191 1    
   140   71  192 1    
   141   71  193 1    
   142   71  194 1    
   143   72   73 2    
   144   72   74 am   BACKBONE|DICT|INTERRES
   145   74   75 1    
   146   74  195 1    
   147   75   76 1    
   148   75   77 1    
   149   75  196 1    
   150   76  197 1    
   151   76  198 1    
   152   76  199 1    
   153   77   78 2    
   154   77   79 am   BACKBONE|DICT|INTERRES
   155   79   80 1    
   156   79  200 1    
   157   80   81 1    
   158   80   82 1    
   159   80  201 1    
   160   81  202 1    
   161   81  203 1    
   162   81  204 1    
   163   82   83 2    
   164   82   84 am   BACKBONE|DICT|INTERRES
   165   84   85 1    
   166   84  205 1    
   167   85   86 1    
   168   85   87 1    
   169   85  206 1    
   170   86  207 1    
   171   86  208 1    
   172   86  209 1    
   173   87   88 2    
   174   87   89 am   BACKBONE|DICT|INTERRES
   175   89   90 1    
   176   89  210 1    
   177   90   91 1    
   178   90   92 1    
   179   90  211 1    
   180   91  212 1    
   181   91  213 1    
   182   91  214 1    
   183   92   93 2    
   184   92   94 am   BACKBONE|DICT|INTERRES
   185   94   95 1    
   186   94  215 1    
   187   95   96 1    
   188   95   97 1    
   189   95  216 1    
   190   96  217 1    
   191   96  218 1    
   192   96  219 1    
   193   97   98 2    
   194   97   99 am   BACKBONE|DICT|INTERRES
   195   99  100 1    
   196   99  220 1    
   197  100  101 1    
   198  100  102 1    
   199  100  221 1    
   200  101  222 1    
   201  101  223 1    
   202  101  224 1    
   203  102  103 2    
   204  102  104 am   BACKBONE|DICT|INTERRES
   205  104  105 1    
   206  104  225 1    
   207  105  106 1    
   208  105  107 1    
   209  105  226 1    
   210  106  227 1    
   211  106  228 1    
   212  106  229 1    
   213  107  108 2    
   214  107  109 am   BACKBONE|DICT|INTERRES
   215  109  110 1    
   216  109  230 1    
   217  110  111 1    
   218  110  112 1    
   219  110  231 1    
   220  111  232 1    
   221  111  233 1    
   222  111  234 1    
   223  112  113 2    
   224  112  114 am   BACKBONE|DICT|INTERRES
   225  114  115 1    
   226  114  235 1    
   227  115  116 1    
   228  115  117 1    
   229  115  236 1    
   230  116  237 1    
   231  116  238 1    
   232  116  239 1    
   233  117  118 2    
   234  117  119 am   BACKBONE|DICT|INTERRES
   235  119  120 1    
   236  119  240 1    
   237  120  121 1    
   238  120  124 1    
   239  120  241 1    
   240  121  122 am   BACKBONE|DICT|INTERRES
   241  121  123 2    
   242  122  242 1    
   243  122  243 1    
   244  124  125 1    
   245  124  244 1    
   246  124  245 1    
   247  125  126 1    
   248  126  246 1    
   249  126  247 1    
@<TRIPOS>SUBSTRUCTURE
     1 UNK         1 GROUP             0       ****    0 ROOT    
