@<TRIPOS>MOLECULE
3R540
247   249    1
SMALL
USER_CHARGES


@<TRIPOS>ATOM
      1 CA          1.6255  -14.9821  -49.8333 C.3       0 UNK        -0.1800 
      2 C           1.2954  -13.9085  -48.8100 C.2       0 UNK         0.5000 
      3 O           2.1770  -13.1306  -48.4439 O.2       0 UNK        -0.5000 
      4 N           0.0358  -13.8653  -48.3533 N.am      1 UNK        -0.5000 
      5 CA         -0.5073  -12.8781  -47.4116 C.3       1 UNK         0.1400 
      6 C6         -1.9448  -13.2262  -46.9535 C.3       23 UNK        -0.0398 
      7 S7         -2.0012  -14.7288  -45.9231 S.3       23 UNK        -0.2404 
      8 C8         -3.0160  -15.8521  -46.9304 C.3       23 UNK        -0.0205 
      9 C9         -2.2608  -16.3603  -48.1469 C.ar      23 UNK        -0.0193 
     10 C10        -2.5671  -15.8724  -49.4187 C.ar      23 UNK        -0.1150 
     11 C11        -1.8914  -16.3468  -50.5479 C.ar      23 UNK        -0.0193 
     12 C12        -0.8874  -17.3078  -50.3858 C.ar      23 UNK        -0.1150 
     13 C13        -0.5537  -17.7865  -49.1144 C.ar      23 UNK        -0.0193 
     14 C14        -1.2519  -17.3153  -48.0005 C.ar      23 UNK        -0.1150 
     15 C15         0.5952  -18.7698  -48.9428 C.3       23 UNK        -0.0205 
     16 S16         0.0358  -20.4999  -48.9636 S.3       23 UNK        -0.2404 
     17 C17        -0.3719  -20.7965  -47.2084 C.3       23 UNK        -0.0398 
     18 CA         -0.5178  -22.3115  -46.9006 C.3       11 UNK         0.1400 
     19 N           0.0785  -22.6891  -45.6099 N.am      11 UNK        -0.5000 
     20 C           0.4215  -23.9493  -45.3020 C.2       10 UNK         0.5000 
     21 O           0.2128  -24.9096  -46.0418 O.2       10 UNK        -0.5000 
     22 CA          1.0640  -24.1966  -43.9275 C.3       10 UNK         0.1400 
     23 CB          2.5391  -23.7687  -43.9386 C.3       10 UNK        -0.1800 
     24 N           0.3875  -23.5417  -42.8099 N.am      10 UNK        -0.5000 
     25 C          -0.9148  -23.5768  -42.5036 C.2       9 UNK         0.5000 
     26 O          -1.7637  -24.1305  -43.2007 O.2       9 UNK        -0.5000 
     27 CA         -1.3591  -22.8459  -41.2196 C.3       9 UNK         0.1400 
     28 CB         -1.2487  -23.7659  -39.9897 C.3       9 UNK        -0.1800 
     29 N          -0.6852  -21.5578  -41.0039 N.am      9 UNK        -0.5000 
     30 C           0.6095  -21.3066  -40.7538 C.2       8 UNK         0.5000 
     31 O           1.4466  -22.1812  -40.5249 O.2       8 UNK        -0.5000 
     32 CA          1.0425  -19.8296  -40.8657 C.3       8 UNK         0.1400 
     33 CB          2.5568  -19.6707  -41.1133 C.3       8 UNK        -0.1800 
     34 N           0.2834  -19.0882  -41.8823 N.am      8 UNK        -0.5000 
     35 C           0.1715  -19.3658  -43.1933 C.2       7 UNK         0.5000 
     36 O           0.6803  -20.3429  -43.7474 O.2       7 UNK        -0.5000 
     37 CA         -0.7069  -18.4143  -44.0274 C.3       7 UNK         0.1400 
     38 CB         -2.0605  -19.0848  -44.3196 C.3       7 UNK        -0.1800 
     39 N          -0.9508  -17.1118  -43.3981 N.am      7 UNK        -0.5000 
     40 C          -0.0236  -16.1652  -43.1983 C.2       6 UNK         0.5000 
     41 O           1.1554  -16.2718  -43.5458 O.2       6 UNK        -0.5000 
     42 CA         -0.4918  -14.9084  -42.4485 C.3       6 UNK         0.1400 
     43 CB         -0.8363  -15.2393  -40.9819 C.3       6 UNK        -0.1800 
     44 N           0.5686  -13.9083  -42.4960 N.am      6 UNK        -0.5000 
     45 C           0.4356  -12.6014  -42.2428 C.2       5 UNK         0.5000 
     46 O          -0.6361  -12.0664  -41.9563 O.2       5 UNK        -0.5000 
     47 CA          1.7151  -11.7439  -42.3045 C.3       5 UNK         0.1400 
     48 CB          2.2904  -11.5414  -40.8939 C.3       5 UNK        -0.1800 
     49 N           2.7526  -12.3244  -43.1605 N.am      5 UNK        -0.5000 
     50 C           2.7444  -12.2504  -44.4956 C.2       4 UNK         0.5000 
     51 O           1.8753  -11.6601  -45.1446 O.2       4 UNK        -0.5000 
     52 CA          3.8840  -12.9798  -45.2261 C.3       4 UNK         0.1400 
     53 CB          3.5154  -14.4541  -45.4534 C.3       4 UNK        -0.1800 
     54 N           4.1061  -12.3475  -46.5200 N.am      4 UNK        -0.5000 
     55 C           4.8905  -11.2832  -46.7284 C.2       3 UNK         0.5000 
     56 O           5.6780  -10.8308  -45.8963 O.2       3 UNK        -0.5000 
     57 CA          4.7131  -10.5771  -48.0812 C.3       3 UNK         0.1400 
     58 CB          5.3349  -11.3979  -49.2222 C.3       3 UNK        -0.1800 
     59 N           3.2902  -10.3732  -48.3462 N.am      3 UNK        -0.5000 
     60 C           2.5738   -9.3250  -47.9156 C.2       2 UNK         0.5000 
     61 O           3.0554   -8.3451  -47.3464 O.2       2 UNK        -0.5000 
     62 CA          1.0567   -9.4112  -48.1356 C.3       2 UNK         0.1400 
     63 CB          0.7516   -9.1362  -49.6251 C.3       2 UNK        -0.1800 
     64 N           0.6185  -10.7314  -47.6725 N.am      2 UNK        -0.5000 
     65 C          -0.4489  -11.4596  -48.0173 C.2       1 UNK         0.5000 
     66 O          -1.3386  -11.0902  -48.7856 O.2       1 UNK        -0.5000 
     67 C          -1.9732  -22.8116  -47.0738 C.2       11 UNK         0.5000 
     68 O          -2.4543  -22.8880  -48.2044 O.2       11 UNK        -0.5000 
     69 N          -2.6449  -23.1728  -45.9719 N.am      12 UNK        -0.5000 
     70 CA         -3.9371  -23.8561  -45.9976 C.3       12 UNK         0.1400 
     71 CB         -4.7806  -23.4130  -44.7920 C.3       12 UNK        -0.1800 
     72 C          -3.7388  -25.3820  -46.0071 C.2       12 UNK         0.5000 
     73 O          -4.3614  -26.0732  -46.8143 O.2       12 UNK        -0.5000 
     74 N          -2.8613  -25.8743  -45.1207 N.am      13 UNK        -0.5000 
     75 CA         -2.5686  -27.2919  -44.9023 C.3       13 UNK         0.1400 
     76 CB         -1.6336  -27.4343  -43.6924 C.3       13 UNK        -0.1800 
     77 C          -1.9766  -28.0118  -46.1266 C.2       13 UNK         0.5000 
     78 O          -2.2845  -29.1856  -46.3395 O.2       13 UNK        -0.5000 
     79 N          -1.1727  -27.3032  -46.9312 N.am      14 UNK        -0.5000 
     80 CA         -0.5638  -27.7828  -48.1758 C.3       14 UNK         0.1400 
     81 CB          0.6443  -26.8899  -48.5128 C.3       14 UNK        -0.1800 
     82 C          -1.5734  -27.8764  -49.3433 C.2       14 UNK         0.5000 
     83 O          -1.3219  -27.3360  -50.4206 O.2       14 UNK        -0.5000 
     84 N          -2.7031  -28.5564  -49.1015 N.am      15 UNK        -0.5000 
     85 CA         -3.8149  -28.8138  -50.0229 C.3       15 UNK         0.1400 
     86 CB         -3.3802  -29.8105  -51.1179 C.3       15 UNK        -0.1800 
     87 C          -4.4449  -27.5252  -50.5949 C.2       15 UNK         0.5000 
     88 O          -4.7577  -27.4701  -51.7858 O.2       15 UNK        -0.5000 
     89 N          -4.6133  -26.5143  -49.7276 N.am      16 UNK        -0.5000 
     90 CA         -5.1300  -25.1754  -50.0249 C.3       16 UNK         0.1400 
     91 CB         -6.6267  -25.2321  -50.3937 C.3       16 UNK        -0.1800 
     92 C          -4.2710  -24.4296  -51.0662 C.2       16 UNK         0.5000 
     93 O          -4.7939  -23.9071  -52.0528 O.2       16 UNK        -0.5000 
     94 N          -2.9562  -24.3787  -50.8120 N.am      17 UNK        -0.5000 
     95 CA         -1.9664  -23.6635  -51.6210 C.3       17 UNK         0.1400 
     96 CB         -0.5639  -23.8719  -51.0303 C.3       17 UNK        -0.1800 
     97 C          -2.2735  -22.1624  -51.7752 C.2       17 UNK         0.5000 
     98 O          -2.0489  -21.6139  -52.8517 O.2       17 UNK        -0.5000 
     99 N          -2.8360  -21.5422  -50.7285 N.am      18 UNK        -0.5000 
    100 CA        -3.3131  -20.1588  -50.7377 C.3       18 UNK         0.1400 
    101 CB        -3.7714  -19.7625  -49.3261 C.3       18 UNK        -0.1800 
    102 C         -4.4427  -19.9259  -51.7575 C.2       18 UNK         0.5000 
    103 O         -4.4128  -18.9349  -52.4853 O.2       18 UNK        -0.5000 
    104 N         -5.3951  -20.8671  -51.8299 N.am      19 UNK        -0.5000 
    105 CA        -6.5048  -20.8347  -52.7837 C.3       19 UNK         0.1400 
    106 CB        -7.5634  -21.8774  -52.3954 C.3       19 UNK        -0.1800 
    107 C         -6.0323  -21.0417  -54.2332 C.2       19 UNK         0.5000 
    108 O         -6.5645  -20.4006  -55.1389 O.2       19 UNK        -0.5000 
    109 N         -5.0151  -21.8912  -54.4269 N.am      20 UNK        -0.5000 
    110 CA        -4.3488  -22.0803  -55.7154 C.3       20 UNK         0.1400 
    111 CB        -3.4503  -23.3250  -55.6502 C.3       20 UNK        -0.1800 
    112 C         -3.5455  -20.8376  -56.1521 C.2       20 UNK         0.5000 
    113 O         -3.5642  -20.4871  -57.3327 O.2       20 UNK        -0.5000 
    114 N         -2.8593  -20.1985  -55.1957 N.am      21 UNK        -0.5000 
    115 CA        -2.0094  -19.0301  -55.4118 C.3       21 UNK         0.1400 
    116 CB        -1.0691  -18.8558  -54.2089 C.3       21 UNK        -0.1800 
    117 C         -2.7892  -17.7309  -55.6817 C.2       21 UNK         0.5000 
    118 O         -2.3763  -16.9632  -56.5528 O.2       21 UNK        -0.5000 
    119 N         -3.8725  -17.4860  -54.9335 N.am      22 UNK        -0.5000 
    120 CA        -4.6146  -16.2127  -54.9621 C.3       22 UNK         0.1400 
    121 C         -6.1556  -16.3399  -54.7895 C.2       22 UNK         0.5000 
    122 N         -6.7473  -17.5247  -54.8420 N.am      22 UNK        -0.7600 
    123 O         -6.8466  -15.3351  -54.6408 O.2       22 UNK        -0.5000 
    124 C124       -3.9761  -15.1431  -54.0318 C.3       23 UNK        -0.0398 
    125 S125       -3.9804  -15.6072  -52.2641 S.3       23 UNK        -0.2404 
    126 C126       -2.1969  -15.7918  -51.9361 C.3       23 UNK        -0.0205 
    127 H127        0.8269  -15.0765  -50.5680 H         1 UNK         0.0600 
    128 H128        1.7696  -15.9424  -49.3395 H         1 UNK         0.0600 
    129 H129        2.5425  -14.7323  -50.3672 H         1 UNK         0.0600 
    130 H130       -0.6279  -14.5516  -48.6849 H         1 UNK         0.3000 
    131 H131        0.1272  -12.8975  -46.5251 H         1 UNK         0.0600 
    132 H132       -2.3564  -12.4159  -46.3488 H         1 UNK         0.0800 
    133 H133       -2.6117  -13.3290  -47.8109 H         1 UNK         0.0800 
    134 H134       -3.3202  -16.6999  -46.3174 H         1 UNK         0.0800 
    135 H135       -3.9385  -15.3483  -47.2235 H         1 UNK         0.0800 
    136 H136       -3.3364  -15.1214  -49.5305 H         1 UNK         0.1150 
    137 H137       -0.3442  -17.6676  -51.2484 H         1 UNK         0.1150 
    138 H138       -1.0004  -17.6773  -47.0159 H         1 UNK         0.1150 
    139 H139        1.3145  -18.6332  -49.7517 H         1 UNK         0.0800 
    140 H140        1.1409  -18.5591  -48.0220 H         1 UNK         0.0800 
    141 H141       -1.2690  -20.2352  -46.9468 H         1 UNK         0.0800 
    142 H142        0.4354  -20.3692  -46.6120 H         1 UNK         0.0800 
    143 H143        0.0618  -22.8543  -47.6509 H         1 UNK         0.0600 
    144 H144        0.2767  -21.9467  -44.9452 H         1 UNK         0.3000 
    145 H145        1.0272  -25.2703  -43.7379 H         1 UNK         0.0600 
    146 H146        3.0378  -24.0500  -43.0109 H         1 UNK         0.0600 
    147 H147        3.0807  -24.2461  -44.7565 H         1 UNK         0.0600 
    148 H148        2.6425  -22.6893  -44.0589 H         1 UNK         0.0600 
    149 H149        0.9874  -23.0554  -42.1505 H         1 UNK         0.3000 
    150 H150       -2.4153  -22.6057  -41.3521 H         1 UNK         0.0600 
    151 H151       -1.8547  -24.6629  -40.1232 H         1 UNK         0.0600 
    152 H152       -1.6036  -23.2645  -39.0894 H         1 UNK         0.0600 
    153 H153       -0.2241  -24.0926  -39.8111 H         1 UNK         0.0600 
    154 H154       -1.2615  -20.7510  -41.1959 H         1 UNK         0.3000 
    155 H155        0.8114  -19.3691  -39.9042 H         1 UNK         0.0600 
    156 H156        2.8690  -20.1645  -42.0342 H         1 UNK         0.0600 
    157 H157        3.1362  -20.1027  -40.2966 H         1 UNK         0.0600 
    158 H158        2.8352  -18.6193  -41.1868 H         1 UNK         0.0600 
    159 H159       -0.2026  -18.2696  -41.5466 H         1 UNK         0.3000 
    160 H160       -0.1835  -18.2479  -44.9701 H         1 UNK         0.0600 
    161 H161       -2.6747  -19.1570  -43.4214 H         1 UNK         0.0600 
    162 H162       -1.9332  -20.0986  -44.7004 H         1 UNK         0.0600 
    163 H163       -2.6246  -18.5287  -45.0666 H         1 UNK         0.0600 
    164 H164       -1.8974  -16.9352  -43.0936 H         1 UNK         0.3000 
    165 H165       -1.3754  -14.5153  -42.9547 H         1 UNK         0.0600 
    166 H166       -1.1811  -14.3562  -40.4440 H         1 UNK         0.0600 
    167 H167       -1.6339  -15.9798  -40.9170 H         1 UNK         0.0600 
    168 H168        0.0279  -15.6369  -40.4482 H         1 UNK         0.0600 
    169 H169        1.4669  -14.2766  -42.7819 H         1 UNK         0.3000 
    170 H170        1.4376  -10.7643  -42.7001 H         1 UNK         0.0600 
    171 H171        1.5528  -11.0834  -40.2334 H         1 UNK         0.0600 
    172 H172        2.5928  -12.4870  -40.4421 H         1 UNK         0.0600 
    173 H173        3.1597  -10.8838  -40.9129 H         1 UNK         0.0600 
    174 H174        3.4984  -12.8215  -42.6949 H         1 UNK         0.3000 
    175 H175        4.7950  -12.9283  -44.6262 H         1 UNK         0.0600 
    176 H176        2.5643  -14.5582  -45.9777 H         1 UNK         0.0600 
    177 H177        4.2782  -14.9666  -46.0395 H         1 UNK         0.0600 
    178 H178        3.4251  -14.9843  -44.5049 H         1 UNK         0.0600 
    179 H179        3.4562  -12.6209  -47.2541 H         1 UNK         0.3000 
    180 H180        5.2231   -9.6124  -48.0371 H         1 UNK         0.0600 
    181 H181        5.2455  -10.8753  -50.1746 H         1 UNK         0.0600 
    182 H182        4.8564  -12.3722  -49.3302 H         1 UNK         0.0600 
    183 H183        6.3970  -11.5706  -49.0438 H         1 UNK         0.0600 
    184 H184        2.7922  -11.1622  -48.7437 H         1 UNK         0.3000 
    185 H185        0.5722   -8.6523  -47.5194 H         1 UNK         0.0600 
    186 H186       -0.3117   -8.9676  -49.7920 H         1 UNK         0.0600 
    187 H187        1.2647   -8.2379  -49.9714 H         1 UNK         0.0600 
    188 H188        1.0688   -9.9613  -50.2639 H         1 UNK         0.0600 
    189 H189        1.2435  -11.1440  -46.9835 H         1 UNK         0.3000 
    190 H190       -2.1717  -23.1371  -45.0779 H         1 UNK         0.3000 
    191 H191       -4.4881  -23.5815  -46.8993 H         1 UNK         0.0600 
    192 H192       -5.7592  -23.8944  -44.8054 H         1 UNK         0.0600 
    193 H193       -4.9480  -22.3359  -44.8060 H         1 UNK         0.0600 
    194 H194       -4.3060  -23.6642  -43.8434 H         1 UNK         0.0600 
    195 H195       -2.4088  -25.2269  -44.4790 H         1 UNK         0.3000 
    196 H196       -3.5126  -27.7843  -44.6607 H         1 UNK         0.0600 
    197 H197       -0.6768  -26.9427  -43.8677 H         1 UNK         0.0600 
    198 H198       -2.0759  -26.9972  -42.7970 H         1 UNK         0.0600 
    199 H199       -1.4297  -28.4837  -43.4757 H         1 UNK         0.0600 
    200 H200       -0.9302  -26.3554  -46.6554 H         1 UNK         0.3000 
    201 H201       -0.1863  -28.7930  -48.0053 H         1 UNK         0.0600 
    202 H202        0.3421  -25.8566  -48.6876 H         1 UNK         0.0600 
    203 H203        1.1580  -27.2407  -49.4087 H         1 UNK         0.0600 
    204 H204        1.3731  -26.8916  -47.7022 H         1 UNK         0.0600 
    205 H205       -2.8032  -28.9445  -48.1674 H         1 UNK         0.3000 
    206 H206       -4.5959  -29.2946  -49.4323 H         1 UNK         0.0600 
    207 H207       -2.9656  -30.7192  -50.6816 H         1 UNK         0.0600 
    208 H208       -4.2275  -30.1073  -51.7370 H         1 UNK         0.0600 
    209 H209       -2.6260  -29.3813  -51.7784 H         1 UNK         0.0600 
    210 H210       -4.3404  -26.6571  -48.7599 H         1 UNK         0.3000 
    211 H211       -5.0465  -24.6034  -49.1003 H         1 UNK         0.0600 
    212 H212       -7.0471  -24.2287  -50.4611 H         1 UNK         0.0600 
    213 H213       -7.1983  -25.7707  -49.6380 H         1 UNK         0.0600 
    214 H214       -6.7924  -25.7223  -51.3535 H         1 UNK         0.0600 
    215 H215       -2.6087  -24.8256  -49.9764 H         1 UNK         0.3000 
    216 H216       -1.9834  -24.1046  -52.6193 H         1 UNK         0.0600 
    217 H217       -0.5024  -23.5191  -50.0011 H         1 UNK         0.0600 
    218 H218        0.1871  -23.3301  -51.6067 H         1 UNK         0.0600 
    219 H219       -0.2824  -24.9243  -51.0426 H         1 UNK         0.0600 
    220 H220       -2.9081  -22.0540  -49.8530 H         1 UNK         0.3000 
    221 H221       -2.4740  -19.5215  -51.0190 H         1 UNK         0.0600 
    222 H222       -2.9547  -19.8416  -48.6107 H         1 UNK         0.0600 
    223 H223       -4.5877  -20.3932  -48.9726 H         1 UNK         0.0600 
    224 H224       -4.1167  -18.7278  -49.3062 H         1 UNK         0.0600 
    225 H225       -5.3066  -21.6963  -51.2608 H         1 UNK         0.3000 
    226 H226       -6.9680  -19.8474  -52.7224 H         1 UNK         0.0600 
    227 H227       -7.1888  -22.8950  -52.5028 H         1 UNK         0.0600 
    228 H228       -7.8934  -21.7445  -51.3650 H         1 UNK         0.0600 
    229 H229       -8.4438  -21.7885  -53.0329 H         1 UNK         0.0600 
    230 H230       -4.6561  -22.4090  -53.6332 H         1 UNK         0.3000 
    231 H231       -5.1176  -22.2613  -56.4696 H         1 UNK         0.0600 
    232 H232       -2.6464  -23.2074  -54.9239 H         1 UNK         0.0600 
    233 H233       -2.9894  -23.5224  -56.6186 H         1 UNK         0.0600 
    234 H234       -4.0227  -24.2109  -55.3744 H         1 UNK         0.0600 
    235 H235       -2.8387  -20.6005  -54.2625 H         1 UNK         0.3000 
    236 H236       -1.3891  -19.2253  -56.2892 H         1 UNK         0.0600 
    237 H237       -0.4033  -19.7125  -54.1039 H         1 UNK         0.0600 
    238 H238       -0.4427  -17.9700  -54.3212 H         1 UNK         0.0600 
    239 H239       -1.6266  -18.7540  -53.2776 H         1 UNK         0.0600 
    240 H240       -4.1210  -18.1230  -54.1795 H         1 UNK         0.3000 
    241 H241       -4.5355  -15.8164  -55.9759 H         1 UNK         0.0600 
    242 H242       -7.7488  -17.5665  -54.7448 H         1 UNK         0.3800 
    243 H243       -6.2387  -18.3814  -55.0177 H         1 UNK         0.3800 
    244 H244       -4.4946  -14.1887  -54.1343 H         1 UNK         0.0800 
    245 H245       -2.9527  -14.9461  -54.3531 H         1 UNK         0.0800 
    246 H246       -1.7693  -16.4370  -52.7030 H         1 UNK         0.0800 
    247 H247       -1.7124  -14.8200  -52.0384 H         1 UNK         0.0800 
@<TRIPOS>BOND
     1    1    2 1    
     2    1  127 1    
     3    1  128 1    
     4    1  129 1    
     5    2    3 2    
     6    2    4 am   BACKBONE|DICT|INTERRES
     7    4    5 1    
     8    4  130 1    
     9    5    6 1    
    10    5   65 1    
    11    5  131 1    
    12    6    7 1    
    13    6  132 1    
    14    6  133 1    
    15    7    8 1    
    16    8    9 1    
    17    8  134 1    
    18    8  135 1    
    19    9   10 ar   
    20    9   14 ar   
    21   10   11 ar   
    22   10  136 1    
    23   11   12 ar   
    24   11  126 1    
    25   12   13 ar   
    26   12  137 1    
    27   13   14 ar   
    28   13   15 1    
    29   14  138 1    
    30   15   16 1    
    31   15  139 1    
    32   15  140 1    
    33   16   17 1    
    34   17   18 1    
    35   17  141 1    
    36   17  142 1    
    37   18   19 1    
    38   18   67 1    
    39   18  143 1    
    40   19   20 am   BACKBONE|DICT|INTERRES
    41   19  144 1    
    42   20   21 2    
    43   20   22 1    
    44   22   23 1    
    45   22   24 1    
    46   22  145 1    
    47   23  146 1    
    48   23  147 1    
    49   23  148 1    
    50   24   25 am   BACKBONE|DICT|INTERRES
    51   24  149 1    
    52   25   26 2    
    53   25   27 1    
    54   27   28 1    
    55   27   29 1    
    56   27  150 1    
    57   28  151 1    
    58   28  152 1    
    59   28  153 1    
    60   29   30 am   BACKBONE|DICT|INTERRES
    61   29  154 1    
    62   30   31 2    
    63   30   32 1    
    64   32   33 1    
    65   32   34 1    
    66   32  155 1    
    67   33  156 1    
    68   33  157 1    
    69   33  158 1    
    70   34   35 am   BACKBONE|DICT|INTERRES
    71   34  159 1    
    72   35   36 2    
    73   35   37 1    
    74   37   38 1    
    75   37   39 1    
    76   37  160 1    
    77   38  161 1    
    78   38  162 1    
    79   38  163 1    
    80   39   40 am   BACKBONE|DICT|INTERRES
    81   39  164 1    
    82   40   41 2    
    83   40   42 1    
    84   42   43 1    
    85   42   44 1    
    86   42  165 1    
    87   43  166 1    
    88   43  167 1    
    89   43  168 1    
    90   44   45 am   BACKBONE|DICT|INTERRES
    91   44  169 1    
    92   45   46 2    
    93   45   47 1    
    94   47   48 1    
    95   47   49 1    
    96   47  170 1    
    97   48  171 1    
    98   48  172 1    
    99   48  173 1    
   100   49   50 am   BACKBONE|DICT|INTERRES
   101   49  174 1    
   102   50   51 2    
   103   50   52 1    
   104   52   53 1    
   105   52   54 1    
   106   52  175 1    
   107   53  176 1    
   108   53  177 1    
   109   53  178 1    
   110   54   55 am   BACKBONE|DICT|INTERRES
   111   54  179 1    
   112   55   56 2    
   113   55   57 1    
   114   57   58 1    
   115   57   59 1    
   116   57  180 1    
   117   58  181 1    
   118   58  182 1    
   119   58  183 1    
   120   59   60 am   BACKBONE|DICT|INTERRES
   121   59  184 1    
   122   60   61 2    
   123   60   62 1    
   124   62   63 1    
   125   62   64 1    
   126   62  185 1    
   127   63  186 1    
   128   63  187 1    
   129   63  188 1    
   130   64   65 am   BACKBONE|DICT|INTERRES
   131   64  189 1    
   132   65   66 2    
   133   67   68 2    
   134   67   69 am   BACKBONE|DICT|INTERRES
   135   69   70 1    
   136   69  190 1    
   137   70   71 1    
   138   70   72 1    
   139   70  191 1    
   140   71  192 1    
   141   71  193 1    
   142   71  194 1    
   143   72   73 2    
   144   72   74 am   BACKBONE|DICT|INTERRES
   145   74   75 1    
   146   74  195 1    
   147   75   76 1    
   148   75   77 1    
   149   75  196 1    
   150   76  197 1    
   151   76  198 1    
   152   76  199 1    
   153   77   78 2    
   154   77   79 am   BACKBONE|DICT|INTERRES
   155   79   80 1    
   156   79  200 1    
   157   80   81 1    
   158   80   82 1    
   159   80  201 1    
   160   81  202 1    
   161   81  203 1    
   162   81  204 1    
   163   82   83 2    
   164   82   84 am   BACKBONE|DICT|INTERRES
   165   84   85 1    
   166   84  205 1    
   167   85   86 1    
   168   85   87 1    
   169   85  206 1    
   170   86  207 1    
   171   86  208 1    
   172   86  209 1    
   173   87   88 2    
   174   87   89 am   BACKBONE|DICT|INTERRES
   175   89   90 1    
   176   89  210 1    
   177   90   91 1    
   178   90   92 1    
   179   90  211 1    
   180   91  212 1    
   181   91  213 1    
   182   91  214 1    
   183   92   93 2    
   184   92   94 am   BACKBONE|DICT|INTERRES
   185   94   95 1    
   186   94  215 1    
   187   95   96 1    
   188   95   97 1    
   189   95  216 1    
   190   96  217 1    
   191   96  218 1    
   192   96  219 1    
   193   97   98 2    
   194   97   99 am   BACKBONE|DICT|INTERRES
   195   99  100 1    
   196   99  220 1    
   197  100  101 1    
   198  100  102 1    
   199  100  221 1    
   200  101  222 1    
   201  101  223 1    
   202  101  224 1    
   203  102  103 2    
   204  102  104 am   BACKBONE|DICT|INTERRES
   205  104  105 1    
   206  104  225 1    
   207  105  106 1    
   208  105  107 1    
   209  105  226 1    
   210  106  227 1    
   211  106  228 1    
   212  106  229 1    
   213  107  108 2    
   214  107  109 am   BACKBONE|DICT|INTERRES
   215  109  110 1    
   216  109  230 1    
   217  110  111 1    
   218  110  112 1    
   219  110  231 1    
   220  111  232 1    
   221  111  233 1    
   222  111  234 1    
   223  112  113 2    
   224  112  114 am   BACKBONE|DICT|INTERRES
   225  114  115 1    
   226  114  235 1    
   227  115  116 1    
   228  115  117 1    
   229  115  236 1    
   230  116  237 1    
   231  116  238 1    
   232  116  239 1    
   233  117  118 2    
   234  117  119 am   BACKBONE|DICT|INTERRES
   235  119  120 1    
   236  119  240 1    
   237  120  121 1    
   238  120  124 1    
   239  120  241 1    
   240  121  122 am   BACKBONE|DICT|INTERRES
   241  121  123 2    
   242  122  242 1    
   243  122  243 1    
   244  124  125 1    
   245  124  244 1    
   246  124  245 1    
   247  125  126 1    
   248  126  246 1    
   249  126  247 1    
@<TRIPOS>SUBSTRUCTURE
     1 UNK         1 GROUP             0       ****    0 ROOT    
