@<TRIPOS>MOLECULE
3R540
247   249    1
SMALL
USER_CHARGES


@<TRIPOS>ATOM
      1 CA          4.2712  -16.8188  -44.1169 C.3       0 UNK        -0.1800 
      2 C           3.8663  -15.4354  -43.6262 C.2       0 UNK         0.5000 
      3 O           4.6932  -14.7069  -43.0768 O.2       0 UNK        -0.5000 
      4 N           2.5971  -15.0646  -43.8346 N.am      1 UNK        -0.5000 
      5 CA          2.0023  -13.7633  -43.5142 C.3       1 UNK         0.1400 
      6 C6          0.4572  -13.8598  -43.3789 C.3       23 UNK        -0.0398 
      7 S7         -0.4004  -14.7049  -44.7603 S.3       23 UNK        -0.2404 
      8 C8         -2.1147  -14.6199  -44.1572 C.3       23 UNK        -0.0205 
      9 C9         -2.9998  -15.6555  -44.8317 C.ar      23 UNK        -0.0193 
     10 C10        -3.8136  -15.3065  -45.9141 C.ar      23 UNK        -0.1150 
     11 C11        -4.6350  -16.2637  -46.5199 C.ar      23 UNK        -0.0193 
     12 C12        -4.6449  -17.5730  -46.0291 C.ar      23 UNK        -0.1150 
     13 C13        -3.8334  -17.9332  -44.9497 C.ar      23 UNK        -0.0193 
     14 C14        -3.0156  -16.9692  -44.3550 C.ar      23 UNK        -0.1150 
     15 C15        -3.8314  -19.3630  -44.4317 C.3       23 UNK        -0.0205 
     16 S16        -2.9056  -20.4514  -45.5522 S.3       23 UNK        -0.2404 
     17 C17        -2.5651  -21.8801  -44.4732 C.3       23 UNK        -0.0398 
     18 CA         -2.0620  -23.0811  -45.3033 C.3       11 UNK         0.1400 
     19 N          -0.7763  -22.8226  -45.9728 N.am      11 UNK        -0.5000 
     20 C          -0.2248  -23.5956  -46.9211 C.2       10 UNK         0.5000 
     21 O          -0.7507  -24.6332  -47.3263 O.2       10 UNK        -0.5000 
     22 CA          1.1169  -23.1544  -47.5289 C.3       10 UNK         0.1400 
     23 CB          0.8929  -22.5684  -48.9322 C.3       10 UNK        -0.1800 
     24 N           1.7995  -22.1632  -46.6985 N.am      10 UNK        -0.5000 
     25 C           2.6987  -22.4445  -45.7457 C.2       9 UNK         0.5000 
     26 O           3.0731  -23.5867  -45.4790 O.2       9 UNK        -0.5000 
     27 CA          3.2712  -21.2552  -44.9455 C.3       9 UNK         0.1400 
     28 CB          4.5730  -20.7511  -45.5864 C.3       9 UNK        -0.1800 
     29 N           2.3399  -20.1323  -44.8244 N.am      9 UNK        -0.5000 
     30 C           1.2067  -20.1568  -44.1103 C.2       8 UNK         0.5000 
     31 O           0.8485  -21.1200  -43.4327 O.2       8 UNK        -0.5000 
     32 CA          0.2970  -18.9141  -44.1964 C.3       8 UNK         0.1400 
     33 CB          0.6102  -17.9560  -43.0378 C.3       8 UNK        -0.1800 
     34 N           0.3312  -18.1819  -45.4731 N.am      8 UNK        -0.5000 
     35 C           0.1617  -18.7190  -46.6931 C.2       7 UNK         0.5000 
     36 O           0.1001  -19.9283  -46.9047 O.2       7 UNK        -0.5000 
     37 CA          0.0450  -17.7645  -47.8905 C.3       7 UNK         0.1400 
     38 CB         -1.4268  -17.5912  -48.2861 C.3       7 UNK        -0.1800 
     39 N           0.6292  -16.4459  -47.6585 N.am      7 UNK        -0.5000 
     40 C           1.9374  -16.1632  -47.7151 C.2       6 UNK         0.5000 
     41 O           2.8096  -17.0245  -47.8321 O.2       6 UNK        -0.5000 
     42 CA          2.3367  -14.6734  -47.6066 C.3       6 UNK         0.1400 
     43 CB          3.5438  -14.3155  -48.4973 C.3       6 UNK        -0.1800 
     44 N           1.2176  -13.7404  -47.8178 N.am      6 UNK        -0.5000 
     45 C           0.5176  -13.5608  -48.9495 C.2       5 UNK         0.5000 
     46 O           0.7997  -14.0978  -50.0207 O.2       5 UNK        -0.5000 
     47 CA         -0.7540  -12.6953  -48.8722 C.3       5 UNK         0.1400 
     48 CB         -1.9945  -13.6023  -48.8994 C.3       5 UNK        -0.1800 
     49 N          -0.8391  -11.8456  -47.6840 N.am      5 UNK        -0.5000 
     50 C          -0.2324  -10.6606  -47.5425 C.2       4 UNK         0.5000 
     51 O           0.5474  -10.1944  -48.3751 O.2       4 UNK        -0.5000 
     52 CA         -0.5690   -9.8406  -46.2816 C.3       4 UNK         0.1400 
     53 CB         -1.5552  -10.5344  -45.3180 C.3       4 UNK        -0.1800 
     54 N           0.6670   -9.5637  -45.5635 N.am      4 UNK        -0.5000 
     55 C           1.1474   -8.3568  -45.2416 C.2       3 UNK         0.5000 
     56 O           0.5732   -7.2997  -45.5076 O.2       3 UNK        -0.5000 
     57 CA          2.4877   -8.3110  -44.4740 C.3       3 UNK         0.1400 
     58 CB          2.2514   -7.9239  -43.0054 C.3       3 UNK        -0.1800 
     59 N           3.2202   -9.5789  -44.5087 N.am      3 UNK        -0.5000 
     60 C           3.8879  -10.0488  -45.5705 C.2       2 UNK         0.5000 
     61 O           4.0568   -9.4072  -46.6077 O.2       2 UNK        -0.5000 
     62 CA          4.4403  -11.4857  -45.4707 C.3       2 UNK         0.1400 
     63 CB          5.9399  -11.4652  -45.1391 C.3       2 UNK        -0.1800 
     64 N           3.7554  -12.3551  -44.5056 N.am      2 UNK        -0.5000 
     65 C           2.4579  -12.6870  -44.5236 C.2       1 UNK         0.5000 
     66 O           1.6546  -12.2159  -45.3277 O.2       1 UNK        -0.5000 
     67 C          -2.0751  -24.3930  -44.4897 C.2       11 UNK         0.5000 
     68 O          -3.1427  -24.9817  -44.3187 O.2       11 UNK        -0.5000 
     69 N          -0.8917  -24.8796  -44.0887 N.am      12 UNK        -0.5000 
     70 CA         -0.6766  -26.2127  -43.5179 C.3       12 UNK         0.1400 
     71 CB          0.7753  -26.3074  -43.0249 C.3       12 UNK        -0.1800 
     72 C          -0.9884  -27.3663  -44.4993 C.2       12 UNK         0.5000 
     73 O          -1.2818  -28.4750  -44.0517 O.2       12 UNK        -0.5000 
     74 N          -0.9424  -27.0820  -45.8080 N.am      13 UNK        -0.5000 
     75 CA         -1.2859  -27.9842  -46.9067 C.3       13 UNK         0.1400 
     76 CB         -0.0856  -28.0655  -47.8680 C.3       13 UNK        -0.1800 
     77 C          -2.5662  -27.5043  -47.6223 C.2       13 UNK         0.5000 
     78 O          -2.7016  -27.6964  -48.8322 O.2       13 UNK        -0.5000 
     79 N          -3.4733  -26.8565  -46.8729 N.am      14 UNK        -0.5000 
     80 CA         -4.7567  -26.3006  -47.3212 C.3       14 UNK         0.1400 
     81 CB         -5.7279  -27.4303  -47.7242 C.3       14 UNK        -0.1800 
     82 C          -4.5950  -25.2290  -48.4196 C.2       14 UNK         0.5000 
     83 O          -5.3505  -25.2164  -49.3910 O.2       14 UNK        -0.5000 
     84 N          -3.5776  -24.3726  -48.2549 N.am      15 UNK        -0.5000 
     85 CA         -3.1318  -23.3263  -49.1810 C.3       15 UNK         0.1400 
     86 CB         -4.2052  -22.2371  -49.3678 C.3       15 UNK        -0.1800 
     87 C          -2.6262  -23.9367  -50.4986 C.2       15 UNK         0.5000 
     88 O          -3.0026  -23.4796  -51.5778 O.2       15 UNK        -0.5000 
     89 N          -1.8094  -24.9934  -50.3668 N.am      16 UNK        -0.5000 
     90 CA         -1.2897  -25.8472  -51.4399 C.3       16 UNK         0.1400 
     91 CB         -0.2638  -25.0735  -52.2948 C.3       16 UNK        -0.1800 
     92 C          -2.4285  -26.4698  -52.2753 C.2       16 UNK         0.5000 
     93 O          -2.4265  -26.3639  -53.5016 O.2       16 UNK        -0.5000 
     94 N          -3.4138  -27.0558  -51.5783 N.am      17 UNK        -0.5000 
     95 CA         -4.6848  -27.5650  -52.1092 C.3       17 UNK         0.1400 
     96 CB         -4.4527  -28.8366  -52.9511 C.3       17 UNK        -0.1800 
     97 C          -5.4845  -26.4740  -52.8584 C.2       17 UNK         0.5000 
     98 O          -5.9330  -26.6866  -53.9863 O.2       17 UNK        -0.5000 
     99 N          -5.6124  -25.3106  -52.2063 N.am      18 UNK        -0.5000 
    100 CA        -6.2727  -24.0775  -52.6453 C.3       18 UNK         0.1400 
    101 CB        -7.7815  -24.3120  -52.8634 C.3       18 UNK        -0.1800 
    102 C         -5.6122  -23.3616  -53.8447 C.2       18 UNK         0.5000 
    103 O         -6.2009  -22.4147  -54.3676 O.2       18 UNK        -0.5000 
    104 N         -4.4081  -23.7818  -54.2567 N.am      19 UNK        -0.5000 
    105 CA        -3.6644  -23.1764  -55.3630 C.3       19 UNK         0.1400 
    106 CB        -2.6042  -24.1633  -55.8721 C.3       19 UNK        -0.1800 
    107 C         -3.0066  -21.8359  -54.9871 C.2       19 UNK         0.5000 
    108 O         -2.8859  -20.9644  -55.8491 O.2       19 UNK        -0.5000 
    109 N         -2.5853  -21.6907  -53.7230 N.am      20 UNK        -0.5000 
    110 CA        -1.9236  -20.4883  -53.2108 C.3       20 UNK         0.1400 
    111 CB        -0.9787  -20.8798  -52.0616 C.3       20 UNK        -0.1800 
    112 C         -2.9219  -19.4167  -52.7365 C.2       20 UNK         0.5000 
    113 O         -2.5323  -18.2575  -52.5947 O.2       20 UNK        -0.5000 
    114 N         -4.1741  -19.8149  -52.4758 N.am      21 UNK        -0.5000 
    115 CA        -5.2318  -18.9412  -51.9772 C.3       21 UNK         0.1400 
    116 CB        -6.3506  -19.8030  -51.3683 C.3       21 UNK        -0.1800 
    117 C         -5.7962  -18.0406  -53.0992 C.2       21 UNK         0.5000 
    118 O         -6.2488  -18.5790  -54.1096 O.2       21 UNK        -0.5000 
    119 N         -5.8254  -16.7092  -52.9597 N.am      22 UNK        -0.5000 
    120 CA        -5.1654  -15.8729  -51.9488 C.3       22 UNK         0.1400 
    121 C         -5.0039  -14.4134  -52.4591 C.2       22 UNK         0.5000 
    122 N         -4.3860  -13.5403  -51.6764 N.am      22 UNK        -0.7600 
    123 O         -5.4334  -14.0605  -53.5564 O.2       22 UNK        -0.5000 
    124 C124       -5.8230  -15.9520  -50.5365 C.3       23 UNK        -0.0398 
    125 S125       -4.5448  -16.1452  -49.2530 S.3       23 UNK        -0.2404 
    126 C126       -5.4892  -15.8980  -47.7234 C.3       23 UNK        -0.0205 
    127 H127        5.2146  -16.7640  -44.6600 H         1 UNK         0.0600 
    128 H128        3.5242  -17.2441  -44.7873 H         1 UNK         0.0600 
    129 H129        4.4010  -17.4954  -43.2723 H         1 UNK         0.0600 
    130 H130        1.9651  -15.7051  -44.2879 H         1 UNK         0.3000 
    131 H131        2.3838  -13.4488  -42.5403 H         1 UNK         0.0600 
    132 H132        0.0195  -12.8699  -43.2385 H         1 UNK         0.0800 
    133 H133        0.2254  -14.4107  -42.4663 H         1 UNK         0.0800 
    134 H134       -2.1351  -14.7838  -43.0787 H         1 UNK         0.0800 
    135 H135       -2.5062  -13.6150  -44.3214 H         1 UNK         0.0800 
    136 H136       -3.8022  -14.2940  -46.2917 H         1 UNK         0.1150 
    137 H137       -5.2677  -18.3199  -46.5013 H         1 UNK         0.1150 
    138 H138       -2.3882  -17.2406  -43.5187 H         1 UNK         0.1150 
    139 H139       -3.3902  -19.4036  -43.4346 H         1 UNK         0.0800 
    140 H140       -4.8556  -19.7257  -44.3350 H         1 UNK         0.0800 
    141 H141       -3.4885  -22.1330  -43.9482 H         1 UNK         0.0800 
    142 H142       -1.8376  -21.5985  -43.7109 H         1 UNK         0.0800 
    143 H143       -2.7983  -23.2266  -46.0908 H         1 UNK         0.0600 
    144 H144       -0.3188  -21.9509  -45.7426 H         1 UNK         0.3000 
    145 H145        1.7409  -24.0447  -47.6304 H         1 UNK         0.0600 
    146 H146        0.2300  -21.7027  -48.9118 H         1 UNK         0.0600 
    147 H147        1.8347  -22.2576  -49.3844 H         1 UNK         0.0600 
    148 H148        0.4447  -23.3071  -49.5968 H         1 UNK         0.0600 
    149 H149        1.4791  -21.2050  -46.8100 H         1 UNK         0.3000 
    150 H150        3.5022  -21.6150  -43.9406 H         1 UNK         0.0600 
    151 H151        5.3036  -21.5564  -45.6731 H         1 UNK         0.0600 
    152 H152        5.0289  -19.9631  -44.9865 H         1 UNK         0.0600 
    153 H153        4.4009  -20.3539  -46.5877 H         1 UNK         0.0600 
    154 H154        2.5384  -19.3144  -45.3813 H         1 UNK         0.3000 
    155 H155       -0.7271  -19.2618  -44.0637 H         1 UNK         0.0600 
    156 H156        0.4891  -18.4588  -42.0774 H         1 UNK         0.0600 
    157 H157       -0.0576  -17.0961  -43.0320 H         1 UNK         0.0600 
    158 H158        1.6352  -17.5924  -43.0817 H         1 UNK         0.0600 
    159 H159        0.3190  -17.1749  -45.4143 H         1 UNK         0.3000 
    160 H160        0.5657  -18.2313  -48.7295 H         1 UNK         0.0600 
    161 H161       -1.5243  -16.9969  -49.1949 H         1 UNK         0.0600 
    162 H162       -1.9956  -17.0975  -47.4982 H         1 UNK         0.0600 
    163 H163       -1.9021  -18.5547  -48.4762 H         1 UNK         0.0600 
    164 H164       -0.0167  -15.6812  -47.5309 H         1 UNK         0.3000 
    165 H165        2.6562  -14.5392  -46.5767 H         1 UNK         0.0600 
    166 H166        3.3611  -14.5541  -49.5452 H         1 UNK         0.0600 
    167 H167        3.7827  -13.2544  -48.4328 H         1 UNK         0.0600 
    168 H168        4.4324  -14.8677  -48.1894 H         1 UNK         0.0600 
    169 H169        0.9379  -13.2133  -46.9966 H         1 UNK         0.3000 
    170 H170       -0.7750  -12.0611  -49.7611 H         1 UNK         0.0600 
    171 H171       -2.0183  -14.2763  -48.0424 H         1 UNK         0.0600 
    172 H172       -2.9147  -13.0180  -48.8922 H         1 UNK         0.0600 
    173 H173       -2.0068  -14.2210  -49.7978 H         1 UNK         0.0600 
    174 H174       -1.4447  -12.1656  -46.9428 H         1 UNK         0.3000 
    175 H175       -1.0278   -8.9128  -46.6284 H         1 UNK         0.0600 
    176 H176       -1.1599  -11.4788  -44.9428 H         1 UNK         0.0600 
    177 H177       -1.7621   -9.9013  -44.4550 H         1 UNK         0.0600 
    178 H178       -2.5122  -10.7340  -45.8016 H         1 UNK         0.0600 
    179 H179        1.2293  -10.3868  -45.3662 H         1 UNK         0.3000 
    180 H180        3.1048   -7.5379  -44.9366 H         1 UNK         0.0600 
    181 H181        1.6382   -8.6630  -42.4883 H         1 UNK         0.0600 
    182 H182        1.7398   -6.9634  -42.9311 H         1 UNK         0.0600 
    183 H183        3.1937   -7.8304  -42.4651 H         1 UNK         0.0600 
    184 H184        3.1430  -10.1705  -43.6947 H         1 UNK         0.3000 
    185 H185        4.3173  -11.9395  -46.4554 H         1 UNK         0.0600 
    186 H186        6.3647  -12.4688  -45.1716 H         1 UNK         0.0600 
    187 H187        6.4925  -10.8564  -45.8561 H         1 UNK         0.0600 
    188 H188        6.1249  -11.0537  -44.1461 H         1 UNK         0.0600 
    189 H189        4.3484  -12.8524  -43.8489 H         1 UNK         0.3000 
    190 H190       -0.0649  -24.3284  -44.2698 H         1 UNK         0.3000 
    191 H191       -1.3411  -26.3236  -42.6587 H         1 UNK         0.0600 
    192 H192        1.4865  -26.1768  -43.8419 H         1 UNK         0.0600 
    193 H193        0.9866  -25.5484  -42.2715 H         1 UNK         0.0600 
    194 H194        0.9719  -27.2791  -42.5698 H         1 UNK         0.0600 
    195 H195       -0.7228  -26.1339  -46.0961 H         1 UNK         0.3000 
    196 H196       -1.4906  -28.9879  -46.5301 H         1 UNK         0.0600 
    197 H197        0.8121  -28.3988  -47.3473 H         1 UNK         0.0600 
    198 H198        0.1317  -27.0986  -48.3233 H         1 UNK         0.0600 
    199 H199       -0.2730  -28.7756  -48.6744 H         1 UNK         0.0600 
    200 H200       -3.2602  -26.7144  -45.8938 H         1 UNK         0.3000 
    201 H201       -5.1868  -25.7878  -46.4597 H         1 UNK         0.0600 
    202 H202       -6.7203  -27.0336  -47.9417 H         1 UNK         0.0600 
    203 H203       -5.8400  -28.1582  -46.9207 H         1 UNK         0.0600 
    204 H204       -5.3877  -27.9622  -48.6130 H         1 UNK         0.0600 
    205 H205       -2.9520  -24.5471  -47.4806 H         1 UNK         0.3000 
    206 H206       -2.2722  -22.8367  -48.7259 H         1 UNK         0.0600 
    207 H207       -4.5004  -21.8100  -48.4094 H         1 UNK         0.0600 
    208 H208       -5.1007  -22.6218  -49.8534 H         1 UNK         0.0600 
    209 H209       -3.8236  -21.4199  -49.9805 H         1 UNK         0.0600 
    210 H210       -1.5826  -25.2907  -49.4266 H         1 UNK         0.3000 
    211 H211       -0.7683  -26.6759  -50.9587 H         1 UNK         0.0600 
    212 H212        0.5459  -24.6816  -51.6799 H         1 UNK         0.0600 
    213 H213        0.1861  -25.7228  -53.0466 H         1 UNK         0.0600 
    214 H214       -0.7209  -24.2345  -52.8200 H         1 UNK         0.0600 
    215 H215       -3.2973  -27.1276  -50.5703 H         1 UNK         0.3000 
    216 H216       -5.2871  -27.8469  -51.2444 H         1 UNK         0.0600 
    217 H217       -5.4011  -29.2794  -53.2574 H         1 UNK         0.0600 
    218 H218       -3.8826  -28.6266  -53.8566 H         1 UNK         0.0600 
    219 H219       -3.9111  -29.5916  -52.3814 H         1 UNK         0.0600 
    220 H220       -5.2436  -25.2662  -51.2588 H         1 UNK         0.3000 
    221 H221       -6.1739  -23.3862  -51.8085 H         1 UNK         0.0600 
    222 H222       -7.9725  -24.9429  -53.7317 H         1 UNK         0.0600 
    223 H223       -8.2356  -24.7884  -51.9944 H         1 UNK         0.0600 
    224 H224       -8.3063  -23.3696  -53.0242 H         1 UNK         0.0600 
    225 H225       -3.9595  -24.5429  -53.7625 H         1 UNK         0.3000 
    226 H226       -4.3622  -22.9869  -56.1815 H         1 UNK         0.0600 
    227 H227       -3.0490  -25.1235  -56.1341 H         1 UNK         0.0600 
    228 H228       -2.1104  -23.7774  -56.7647 H         1 UNK         0.0600 
    229 H229       -1.8310  -24.3432  -55.1247 H         1 UNK         0.0600 
    230 H230       -2.7402  -22.4443  -53.0545 H         1 UNK         0.3000 
    231 H231       -1.3170  -20.0477  -54.0049 H         1 UNK         0.0600 
    232 H232       -0.3787  -20.0258  -51.7449 H         1 UNK         0.0600 
    233 H233       -0.2887  -21.6679  -52.3634 H         1 UNK         0.0600 
    234 H234       -1.5272  -21.2288  -51.1872 H         1 UNK         0.0600 
    235 H235       -4.4266  -20.7695  -52.6827 H         1 UNK         0.3000 
    236 H236       -4.8043  -18.3482  -51.1720 H         1 UNK         0.0600 
    237 H237       -6.7475  -20.5192  -52.0891 H         1 UNK         0.0600 
    238 H238       -5.9960  -20.3583  -50.5017 H         1 UNK         0.0600 
    239 H239       -7.1822  -19.1831  -51.0313 H         1 UNK         0.0600 
    240 H240       -6.2119  -16.1566  -53.7140 H         1 UNK         0.3000 
    241 H241       -4.1408  -16.2448  -51.9019 H         1 UNK         0.0600 
    242 H242       -4.0394  -13.8100  -50.7698 H         1 UNK         0.3800 
    243 H243       -4.2746  -12.5899  -51.9938 H         1 UNK         0.3800 
    244 H244       -6.4329  -15.0730  -50.3191 H         1 UNK         0.0800 
    245 H245       -6.5039  -16.7996  -50.4581 H         1 UNK         0.0800 
    246 H246       -6.3911  -16.5118  -47.7445 H         1 UNK         0.0800 
    247 H247       -5.8165  -14.8593  -47.6575 H         1 UNK         0.0800 
@<TRIPOS>BOND
     1    1    2 1    
     2    1  127 1    
     3    1  128 1    
     4    1  129 1    
     5    2    3 2    
     6    2    4 am   BACKBONE|DICT|INTERRES
     7    4    5 1    
     8    4  130 1    
     9    5    6 1    
    10    5   65 1    
    11    5  131 1    
    12    6    7 1    
    13    6  132 1    
    14    6  133 1    
    15    7    8 1    
    16    8    9 1    
    17    8  134 1    
    18    8  135 1    
    19    9   10 ar   
    20    9   14 ar   
    21   10   11 ar   
    22   10  136 1    
    23   11   12 ar   
    24   11  126 1    
    25   12   13 ar   
    26   12  137 1    
    27   13   14 ar   
    28   13   15 1    
    29   14  138 1    
    30   15   16 1    
    31   15  139 1    
    32   15  140 1    
    33   16   17 1    
    34   17   18 1    
    35   17  141 1    
    36   17  142 1    
    37   18   19 1    
    38   18   67 1    
    39   18  143 1    
    40   19   20 am   BACKBONE|DICT|INTERRES
    41   19  144 1    
    42   20   21 2    
    43   20   22 1    
    44   22   23 1    
    45   22   24 1    
    46   22  145 1    
    47   23  146 1    
    48   23  147 1    
    49   23  148 1    
    50   24   25 am   BACKBONE|DICT|INTERRES
    51   24  149 1    
    52   25   26 2    
    53   25   27 1    
    54   27   28 1    
    55   27   29 1    
    56   27  150 1    
    57   28  151 1    
    58   28  152 1    
    59   28  153 1    
    60   29   30 am   BACKBONE|DICT|INTERRES
    61   29  154 1    
    62   30   31 2    
    63   30   32 1    
    64   32   33 1    
    65   32   34 1    
    66   32  155 1    
    67   33  156 1    
    68   33  157 1    
    69   33  158 1    
    70   34   35 am   BACKBONE|DICT|INTERRES
    71   34  159 1    
    72   35   36 2    
    73   35   37 1    
    74   37   38 1    
    75   37   39 1    
    76   37  160 1    
    77   38  161 1    
    78   38  162 1    
    79   38  163 1    
    80   39   40 am   BACKBONE|DICT|INTERRES
    81   39  164 1    
    82   40   41 2    
    83   40   42 1    
    84   42   43 1    
    85   42   44 1    
    86   42  165 1    
    87   43  166 1    
    88   43  167 1    
    89   43  168 1    
    90   44   45 am   BACKBONE|DICT|INTERRES
    91   44  169 1    
    92   45   46 2    
    93   45   47 1    
    94   47   48 1    
    95   47   49 1    
    96   47  170 1    
    97   48  171 1    
    98   48  172 1    
    99   48  173 1    
   100   49   50 am   BACKBONE|DICT|INTERRES
   101   49  174 1    
   102   50   51 2    
   103   50   52 1    
   104   52   53 1    
   105   52   54 1    
   106   52  175 1    
   107   53  176 1    
   108   53  177 1    
   109   53  178 1    
   110   54   55 am   BACKBONE|DICT|INTERRES
   111   54  179 1    
   112   55   56 2    
   113   55   57 1    
   114   57   58 1    
   115   57   59 1    
   116   57  180 1    
   117   58  181 1    
   118   58  182 1    
   119   58  183 1    
   120   59   60 am   BACKBONE|DICT|INTERRES
   121   59  184 1    
   122   60   61 2    
   123   60   62 1    
   124   62   63 1    
   125   62   64 1    
   126   62  185 1    
   127   63  186 1    
   128   63  187 1    
   129   63  188 1    
   130   64   65 am   BACKBONE|DICT|INTERRES
   131   64  189 1    
   132   65   66 2    
   133   67   68 2    
   134   67   69 am   BACKBONE|DICT|INTERRES
   135   69   70 1    
   136   69  190 1    
   137   70   71 1    
   138   70   72 1    
   139   70  191 1    
   140   71  192 1    
   141   71  193 1    
   142   71  194 1    
   143   72   73 2    
   144   72   74 am   BACKBONE|DICT|INTERRES
   145   74   75 1    
   146   74  195 1    
   147   75   76 1    
   148   75   77 1    
   149   75  196 1    
   150   76  197 1    
   151   76  198 1    
   152   76  199 1    
   153   77   78 2    
   154   77   79 am   BACKBONE|DICT|INTERRES
   155   79   80 1    
   156   79  200 1    
   157   80   81 1    
   158   80   82 1    
   159   80  201 1    
   160   81  202 1    
   161   81  203 1    
   162   81  204 1    
   163   82   83 2    
   164   82   84 am   BACKBONE|DICT|INTERRES
   165   84   85 1    
   166   84  205 1    
   167   85   86 1    
   168   85   87 1    
   169   85  206 1    
   170   86  207 1    
   171   86  208 1    
   172   86  209 1    
   173   87   88 2    
   174   87   89 am   BACKBONE|DICT|INTERRES
   175   89   90 1    
   176   89  210 1    
   177   90   91 1    
   178   90   92 1    
   179   90  211 1    
   180   91  212 1    
   181   91  213 1    
   182   91  214 1    
   183   92   93 2    
   184   92   94 am   BACKBONE|DICT|INTERRES
   185   94   95 1    
   186   94  215 1    
   187   95   96 1    
   188   95   97 1    
   189   95  216 1    
   190   96  217 1    
   191   96  218 1    
   192   96  219 1    
   193   97   98 2    
   194   97   99 am   BACKBONE|DICT|INTERRES
   195   99  100 1    
   196   99  220 1    
   197  100  101 1    
   198  100  102 1    
   199  100  221 1    
   200  101  222 1    
   201  101  223 1    
   202  101  224 1    
   203  102  103 2    
   204  102  104 am   BACKBONE|DICT|INTERRES
   205  104  105 1    
   206  104  225 1    
   207  105  106 1    
   208  105  107 1    
   209  105  226 1    
   210  106  227 1    
   211  106  228 1    
   212  106  229 1    
   213  107  108 2    
   214  107  109 am   BACKBONE|DICT|INTERRES
   215  109  110 1    
   216  109  230 1    
   217  110  111 1    
   218  110  112 1    
   219  110  231 1    
   220  111  232 1    
   221  111  233 1    
   222  111  234 1    
   223  112  113 2    
   224  112  114 am   BACKBONE|DICT|INTERRES
   225  114  115 1    
   226  114  235 1    
   227  115  116 1    
   228  115  117 1    
   229  115  236 1    
   230  116  237 1    
   231  116  238 1    
   232  116  239 1    
   233  117  118 2    
   234  117  119 am   BACKBONE|DICT|INTERRES
   235  119  120 1    
   236  119  240 1    
   237  120  121 1    
   238  120  124 1    
   239  120  241 1    
   240  121  122 am   BACKBONE|DICT|INTERRES
   241  121  123 2    
   242  122  242 1    
   243  122  243 1    
   244  124  125 1    
   245  124  244 1    
   246  124  245 1    
   247  125  126 1    
   248  126  246 1    
   249  126  247 1    
@<TRIPOS>SUBSTRUCTURE
     1 UNK         1 GROUP             0       ****    0 ROOT    
