@<TRIPOS>MOLECULE
3R540
247   249    1
SMALL
USER_CHARGES


@<TRIPOS>ATOM
      1 CA          1.5735  -13.2643  -51.0539 C.3       0 UNK        -0.1800 
      2 C           2.4541  -14.0872  -50.1153 C.2       0 UNK         0.5000 
      3 O           3.6706  -14.0894  -50.2884 O.2       0 UNK        -0.5000 
      4 N           1.9142  -14.7932  -49.1091 N.am      1 UNK        -0.5000 
      5 CA          0.5010  -14.9287  -48.7185 C.3       1 UNK         0.1400 
      6 C6         -0.4127  -15.4568  -49.8601 C.3       23 UNK        -0.0398 
      7 S7         -1.7815  -16.5303  -49.3024 S.3       23 UNK        -0.2404 
      8 C8         -0.9400  -17.9993  -48.6204 C.3       23 UNK        -0.0205 
      9 C9          0.1412  -18.5547  -49.5355 C.ar      23 UNK        -0.0193 
     10 C10        -0.1991  -19.0800  -50.7835 C.ar      23 UNK        -0.1150 
     11 C11         0.7855  -19.5721  -51.6432 C.ar      23 UNK        -0.0193 
     12 C12         2.1209  -19.5612  -51.2310 C.ar      23 UNK        -0.1150 
     13 C13         2.4788  -19.0434  -49.9822 C.ar      23 UNK        -0.0193 
     14 C14         1.4821  -18.5349  -49.1415 C.ar      23 UNK        -0.1150 
     15 C15         3.9493  -19.0009  -49.5776 C.3       23 UNK        -0.0205 
     16 S16         4.2654  -19.5961  -47.8844 S.3       23 UNK        -0.2404 
     17 C17         3.5867  -21.2888  -47.9551 C.3       23 UNK        -0.0398 
     18 CA          4.2282  -22.2195  -46.8976 C.3       11 UNK         0.1400 
     19 N           3.9610  -21.7600  -45.5294 N.am      11 UNK        -0.5000 
     20 C           4.6427  -22.1424  -44.4419 C.2       10 UNK         0.5000 
     21 O           5.5975  -22.9198  -44.4705 O.2       10 UNK        -0.5000 
     22 CA          4.1654  -21.5743  -43.0927 C.3       10 UNK         0.1400 
     23 CB          4.6657  -20.1353  -42.8915 C.3       10 UNK        -0.1800 
     24 N           2.7085  -21.6116  -42.9575 N.am      10 UNK        -0.5000 
     25 C           1.9959  -22.7293  -42.7571 C.2       9 UNK         0.5000 
     26 O           2.4977  -23.8469  -42.6346 O.2       9 UNK        -0.5000 
     27 CA          0.4633  -22.5819  -42.6963 C.3       9 UNK         0.1400 
     28 CB          0.0127  -22.2108  -41.2756 C.3       9 UNK        -0.1800 
     29 N          -0.0590  -21.5962  -43.6419 N.am      9 UNK        -0.5000 
     30 C           0.0113  -21.7081  -44.9761 C.2       8 UNK         0.5000 
     31 O           0.4872  -22.6836  -45.5552 O.2       8 UNK        -0.5000 
     32 CA         -0.4822  -20.5023  -45.7946 C.3       8 UNK         0.1400 
     33 CB         -2.0117  -20.5206  -45.8928 C.3       8 UNK        -0.1800 
     34 N          -0.0509  -19.2200  -45.2361 N.am      8 UNK        -0.5000 
     35 C           1.2242  -18.8605  -45.0372 C.2       7 UNK         0.5000 
     36 O           2.1850  -19.5713  -45.3186 O.2       7 UNK        -0.5000 
     37 CA          1.4665  -17.5066  -44.3541 C.3       7 UNK         0.1400 
     38 CB          1.3505  -16.3508  -45.3572 C.3       7 UNK        -0.1800 
     39 N           0.5446  -17.3047  -43.2381 N.am      7 UNK        -0.5000 
     40 C           0.6359  -17.9575  -42.0706 C.2       6 UNK         0.5000 
     41 O           1.5543  -18.7270  -41.7871 O.2       6 UNK        -0.5000 
     42 CA         -0.5168  -17.7517  -41.0724 C.3       6 UNK         0.1400 
     43 CB         -0.2572  -16.5361  -40.1723 C.3       6 UNK        -0.1800 
     44 N          -1.8098  -17.6027  -41.7432 N.am      6 UNK        -0.5000 
     45 C          -2.4523  -18.6173  -42.3401 C.2       5 UNK         0.5000 
     46 O          -2.0214  -19.7698  -42.3664 O.2       5 UNK        -0.5000 
     47 CA         -3.7811  -18.2930  -43.0489 C.3       5 UNK         0.1400 
     48 CB         -4.9518  -18.4160  -42.0621 C.3       5 UNK        -0.1800 
     49 N          -3.8171  -16.9696  -43.6734 N.am      5 UNK        -0.5000 
     50 C          -2.9829  -16.5340  -44.6276 C.2       4 UNK         0.5000 
     51 O          -2.0591  -17.2059  -45.0862 O.2       4 UNK        -0.5000 
     52 CA         -3.1850  -15.0951  -45.1415 C.3       4 UNK         0.1400 
     53 CB         -4.4968  -14.4332  -44.6621 C.3       4 UNK        -0.1800 
     54 N          -2.0420  -14.2340  -44.8270 N.am      4 UNK        -0.5000 
     55 C          -1.5152  -13.9888  -43.6156 C.2       3 UNK         0.5000 
     56 O          -1.9111  -14.5297  -42.5816 O.2       3 UNK        -0.5000 
     57 CA         -0.3474  -12.9814  -43.5358 C.3       3 UNK         0.1400 
     58 CB          0.7881  -13.4899  -42.6309 C.3       3 UNK        -0.1800 
     59 N           0.2015  -12.6493  -44.8535 N.am      3 UNK        -0.5000 
     60 C          -0.1659  -11.5932  -45.5916 C.2       2 UNK         0.5000 
     61 O          -0.9913  -10.7552  -45.2278 O.2       2 UNK        -0.5000 
     62 CA          0.4794  -11.4647  -46.9850 C.3       2 UNK         0.1400 
     63 CB          1.7407  -10.5908  -46.9156 C.3       2 UNK        -0.1800 
     64 N           0.8222  -12.7480  -47.6072 N.am      2 UNK        -0.5000 
     65 C          -0.0601  -13.6863  -47.9838 C.2       1 UNK         0.5000 
     66 O          -1.2651  -13.6021  -47.7481 O.2       1 UNK        -0.5000 
     67 C           3.7776  -23.6786  -47.1258 C.2       11 UNK         0.5000 
     68 O           4.3107  -24.3363  -48.0203 O.2       11 UNK        -0.5000 
     69 N           2.8096  -24.1465  -46.3233 N.am      12 UNK        -0.5000 
     70 CA          2.1328  -25.4441  -46.3875 C.3       12 UNK         0.1400 
     71 CB          3.1135  -26.5995  -46.0970 C.3       12 UNK        -0.1800 
     72 C           1.3441  -25.6170  -47.7020 C.2       12 UNK         0.5000 
     73 O           1.3984  -26.6785  -48.3267 O.2       12 UNK        -0.5000 
     74 N           0.6320  -24.5579  -48.1034 N.am      13 UNK        -0.5000 
     75 CA         -0.1554  -24.4807  -49.3297 C.3       13 UNK         0.1400 
     76 CB          0.7686  -24.1647  -50.5194 C.3       13 UNK        -0.1800 
     77 C          -1.2377  -23.4040  -49.1665 C.2       13 UNK         0.5000 
     78 O          -1.0708  -22.4996  -48.3487 O.2       13 UNK        -0.5000 
     79 N          -2.3130  -23.5207  -49.9563 N.am      14 UNK        -0.5000 
     80 CA         -3.5193  -22.6839  -49.9333 C.3       14 UNK         0.1400 
     81 CB         -3.1958  -21.2165  -50.2764 C.3       14 UNK        -0.1800 
     82 C          -4.3484  -22.8764  -48.6420 C.2       14 UNK         0.5000 
     83 O          -4.3438  -23.9818  -48.0930 O.2       14 UNK        -0.5000 
     84 N          -5.0963  -21.8512  -48.2110 N.am      15 UNK        -0.5000 
     85 CA         -6.0443  -21.9304  -47.0982 C.3       15 UNK         0.1400 
     86 CB         -7.4138  -22.4116  -47.6249 C.3       15 UNK        -0.1800 
     87 C          -6.0893  -20.5843  -46.3544 C.2       15 UNK         0.5000 
     88 O          -5.0355  -20.0492  -46.0125 O.2       15 UNK        -0.5000 
     89 N          -7.2887  -20.0388  -46.1089 N.am      16 UNK        -0.5000 
     90 CA         -7.5057  -18.7034  -45.5463 C.3       16 UNK         0.1400 
     91 CB         -8.9439  -18.6153  -45.0071 C.3       16 UNK        -0.1800 
     92 C          -7.1998  -17.6311  -46.6103 C.2       16 UNK         0.5000 
     93 O          -8.1192  -17.0805  -47.2181 O.2       16 UNK        -0.5000 
     94 N          -5.8984  -17.4390  -46.8645 N.am      17 UNK        -0.5000 
     95 CA         -5.3155  -16.8412  -48.0655 C.3       17 UNK         0.1400 
     96 CB         -5.7170  -15.3588  -48.2442 C.3       17 UNK        -0.1800 
     97 C          -5.6132  -17.7506  -49.2758 C.2       17 UNK         0.5000 
     98 O          -5.3212  -18.9452  -49.1949 O.2       17 UNK        -0.5000 
     99 N          -6.2078  -17.1947  -50.3420 N.am      18 UNK        -0.5000 
    100 CA        -6.6487  -17.8860  -51.5595 C.3       18 UNK         0.1400 
    101 CB        -7.7800  -18.8886  -51.2432 C.3       18 UNK        -0.1800 
    102 C         -5.4777  -18.5255  -52.3312 C.2       18 UNK         0.5000 
    103 O         -5.5229  -19.7088  -52.6691 O.2       18 UNK        -0.5000 
    104 N         -4.4458  -17.7155  -52.6104 N.am      19 UNK        -0.5000 
    105 CA        -3.1954  -18.1132  -53.2703 C.3       19 UNK         0.1400 
    106 CB        -2.2500  -16.9034  -53.3240 C.3       19 UNK        -0.1800 
    107 C         -3.3514  -18.7461  -54.6685 C.2       19 UNK         0.5000 
    108 O         -2.4551  -19.4655  -55.1070 O.2       19 UNK        -0.5000 
    109 N         -4.5001  -18.5245  -55.3216 N.am      20 UNK        -0.5000 
    110 CA        -4.9109  -19.1913  -56.5598 C.3       20 UNK         0.1400 
    111 CB        -6.2232  -18.5581  -57.0473 C.3       20 UNK        -0.1800 
    112 C         -5.0666  -20.7238  -56.4282 C.2       20 UNK         0.5000 
    113 O         -5.0392  -21.4170  -57.4456 O.2       20 UNK        -0.5000 
    114 N         -5.2185  -21.2299  -55.1944 N.am      21 UNK        -0.5000 
    115 CA        -5.2711  -22.6570  -54.8773 C.3       21 UNK         0.1400 
    116 CB        -5.8491  -22.8331  -53.4647 C.3       21 UNK        -0.1800 
    117 C         -3.9074  -23.3702  -54.9925 C.2       21 UNK         0.5000 
    118 O         -3.8909  -24.5977  -55.0971 O.2       21 UNK        -0.5000 
    119 N         -2.7965  -22.6189  -54.9623 N.am      22 UNK        -0.5000 
    120 CA        -1.4371  -23.1472  -55.1586 C.3       22 UNK         0.1400 
    121 C         -1.2041  -23.6393  -56.6147 C.2       22 UNK         0.5000 
    122 N         -0.5354  -24.7703  -56.7955 N.am      22 UNK        -0.7600 
    123 O         -1.5825  -22.9829  -57.5822 O.2       22 UNK        -0.5000 
    124 C124       -0.3490  -22.1175  -54.7672 C.3       23 UNK        -0.0398 
    125 S125       -0.3613  -21.7101  -52.9905 S.3       23 UNK        -0.2404 
    126 C126        0.4169  -20.0695  -53.0326 C.3       23 UNK        -0.0205 
    127 H127        1.1287  -13.9053  -51.8148 H         1 UNK         0.0600 
    128 H128        2.1717  -12.5097  -51.5650 H         1 UNK         0.0600 
    129 H129        0.7791  -12.7406  -50.5251 H         1 UNK         0.0600 
    130 H130        2.5538  -15.3182  -48.5298 H         1 UNK         0.3000 
    131 H131        0.5288  -15.7012  -47.9552 H         1 UNK         0.0600 
    132 H132        0.1718  -16.0284  -50.5819 H         1 UNK         0.0800 
    133 H133       -0.8460  -14.6326  -50.4282 H         1 UNK         0.0800 
    134 H134       -0.5365  -17.7589  -47.6369 H         1 UNK         0.0800 
    135 H135       -1.6883  -18.7739  -48.4567 H         1 UNK         0.0800 
    136 H136       -1.2335  -19.0877  -51.0864 H         1 UNK         0.1150 
    137 H137        2.8863  -19.9386  -51.8943 H         1 UNK         0.1150 
    138 H138        1.7535  -18.1265  -48.1790 H         1 UNK         0.1150 
    139 H139        4.5572  -19.5872  -50.2683 H         1 UNK         0.0800 
    140 H140        4.3004  -17.9713  -49.6571 H         1 UNK         0.0800 
    141 H141        2.5045  -21.2360  -47.8181 H         1 UNK         0.0800 
    142 H142        3.7523  -21.6813  -48.9604 H         1 UNK         0.0800 
    143 H143        5.3097  -22.2001  -47.0493 H         1 UNK         0.0600 
    144 H144        3.2331  -21.0541  -45.4281 H         1 UNK         0.3000 
    145 H145        4.5963  -22.1905  -42.3007 H         1 UNK         0.0600 
    146 H146        4.3677  -19.7474  -41.9173 H         1 UNK         0.0600 
    147 H147        4.2767  -19.4590  -43.6526 H         1 UNK         0.0600 
    148 H148        5.7543  -20.0916  -42.9410 H         1 UNK         0.0600 
    149 H149        2.2202  -20.7308  -43.0511 H         1 UNK         0.3000 
    150 H150        0.0275  -23.5504  -42.9501 H         1 UNK         0.0600 
    151 H151        0.3799  -22.9340  -40.5463 H         1 UNK         0.0600 
    152 H152       -1.0747  -22.1954  -41.1990 H         1 UNK         0.0600 
    153 H153        0.3821  -21.2279  -40.9806 H         1 UNK         0.0600 
    154 H154       -0.5257  -20.7868  -43.2448 H         1 UNK         0.3000 
    155 H155       -0.0647  -20.5780  -46.8004 H         1 UNK         0.0600 
    156 H156       -2.3679  -21.4220  -46.3908 H         1 UNK         0.0600 
    157 H157       -2.3888  -19.6685  -46.4561 H         1 UNK         0.0600 
    158 H158       -2.4768  -20.4992  -44.9091 H         1 UNK         0.0600 
    159 H159       -0.7867  -18.5529  -45.0166 H         1 UNK         0.3000 
    160 H160        2.4880  -17.5109  -43.9672 H         1 UNK         0.0600 
    161 H161        0.3222  -16.2020  -45.6850 H         1 UNK         0.0600 
    162 H162        1.9619  -16.5450  -46.2390 H         1 UNK         0.0600 
    163 H163        1.7070  -15.4172  -44.9262 H         1 UNK         0.0600 
    164 H164       -0.2800  -16.7495  -43.4155 H         1 UNK         0.3000 
    165 H165       -0.5608  -18.6367  -40.4337 H         1 UNK         0.0600 
    166 H166       -1.0338  -16.4345  -39.4142 H         1 UNK         0.0600 
    167 H167        0.6963  -16.6319  -39.6514 H         1 UNK         0.0600 
    168 H168       -0.2269  -15.6109  -40.7452 H         1 UNK         0.0600 
    169 H169       -2.1946  -16.6676  -41.8023 H         1 UNK         0.3000 
    170 H170       -3.9237  -19.0314  -43.8379 H         1 UNK         0.0600 
    171 H171       -4.9811  -19.4108  -41.6153 H         1 UNK         0.0600 
    172 H172       -4.8696  -17.6936  -41.2490 H         1 UNK         0.0600 
    173 H173       -5.9098  -18.2557  -42.5552 H         1 UNK         0.0600 
    174 H174       -4.5159  -16.3293  -43.3264 H         1 UNK         0.3000 
    175 H175       -3.2255  -15.1670  -46.2293 H         1 UNK         0.0600 
    176 H176       -4.6349  -13.4630  -45.1395 H         1 UNK         0.0600 
    177 H177       -5.3661  -15.0402  -44.9188 H         1 UNK         0.0600 
    178 H178       -4.5088  -14.2705  -43.5838 H         1 UNK         0.0600 
    179 H179       -1.6317  -13.7703  -45.6286 H         1 UNK         0.3000 
    180 H180       -0.7478  -12.0776  -43.0721 H         1 UNK         0.0600 
    181 H181        0.4590  -13.5412  -41.5931 H         1 UNK         0.0600 
    182 H182        1.6469  -12.8190  -42.6576 H         1 UNK         0.0600 
    183 H183        1.1290  -14.4842  -42.9150 H         1 UNK         0.0600 
    184 H184        0.8871  -13.2835  -45.2351 H         1 UNK         0.3000 
    185 H185       -0.2443  -10.9658  -47.6331 H         1 UNK         0.0600 
    186 H186        2.1549  -10.4157  -47.9088 H         1 UNK         0.0600 
    187 H187        1.5171   -9.6150  -46.4821 H         1 UNK         0.0600 
    188 H188        2.5170  -11.0517  -46.3036 H         1 UNK         0.0600 
    189 H189        1.7984  -12.9004  -47.8167 H         1 UNK         0.3000 
    190 H190        2.3841  -23.4870  -45.6817 H         1 UNK         0.3000 
    191 H191        1.3914  -25.4369  -45.5872 H         1 UNK         0.0600 
    192 H192        2.5821  -27.5477  -46.0095 H         1 UNK         0.0600 
    193 H193        3.6442  -26.4372  -45.1586 H         1 UNK         0.0600 
    194 H194        3.8557  -26.7139  -46.8873 H         1 UNK         0.0600 
    195 H195        0.5677  -23.7384  -47.5055 H         1 UNK         0.3000 
    196 H196       -0.6489  -25.4406  -49.4954 H         1 UNK         0.0600 
    197 H197        0.2126  -24.1834  -51.4566 H         1 UNK         0.0600 
    198 H198        1.5722  -24.8956  -50.6093 H         1 UNK         0.0600 
    199 H199        1.2229  -23.1773  -50.4227 H         1 UNK         0.0600 
    200 H200       -2.3567  -24.3114  -50.5825 H         1 UNK         0.3000 
    201 H201       -4.1453  -23.0691  -50.7379 H         1 UNK         0.0600 
    202 H202       -2.7383  -20.6901  -49.4389 H         1 UNK         0.0600 
    203 H203       -4.0989  -20.6808  -50.5609 H         1 UNK         0.0600 
    204 H204       -2.5188  -21.1516  -51.1256 H         1 UNK         0.0600 
    205 H205       -5.0232  -20.9405  -48.6576 H         1 UNK         0.3000 
    206 H206       -5.6849  -22.6557  -46.3656 H         1 UNK         0.0600 
    207 H207       -7.3247  -23.3810  -48.1157 H         1 UNK         0.0600 
    208 H208       -8.1332  -22.5356  -46.8146 H         1 UNK         0.0600 
    209 H209       -7.8345  -21.7138  -48.3504 H         1 UNK         0.0600 
    210 H210       -8.1112  -20.5221  -46.4386 H         1 UNK         0.3000 
    211 H211       -6.8232  -18.5523  -44.7084 H         1 UNK         0.0600 
    212 H212       -9.6827  -18.7952  -45.7891 H         1 UNK         0.0600 
    213 H213       -9.1423  -17.6283  -44.5874 H         1 UNK         0.0600 
    214 H214       -9.1115  -19.3445  -44.2143 H         1 UNK         0.0600 
    215 H215       -5.2727  -18.0745  -46.3788 H         1 UNK         0.3000 
    216 H216       -4.2382  -16.8763  -47.9122 H         1 UNK         0.0600 
    217 H217       -5.1520  -14.8998  -49.0565 H         1 UNK         0.0600 
    218 H218       -5.5014  -14.7823  -47.3465 H         1 UNK         0.0600 
    219 H219       -6.7770  -15.2337  -48.4651 H         1 UNK         0.0600 
    220 H220       -6.4147  -16.2069  -50.3010 H         1 UNK         0.3000 
    221 H221       -7.0665  -17.1212  -52.2155 H         1 UNK         0.0600 
    222 H222       -8.1931  -19.3109  -52.1599 H         1 UNK         0.0600 
    223 H223       -7.4297  -19.7214  -50.6323 H         1 UNK         0.0600 
    224 H224       -8.5983  -18.4045  -50.7103 H         1 UNK         0.0600 
    225 H225       -4.4933  -16.7592  -52.2908 H         1 UNK         0.3000 
    226 H226       -2.7419  -18.8816  -52.6449 H         1 UNK         0.0600 
    227 H227       -2.0237  -16.5347  -52.3242 H         1 UNK         0.0600 
    228 H228       -1.3002  -17.1638  -53.7924 H         1 UNK         0.0600 
    229 H229       -2.6828  -16.0820  -53.8960 H         1 UNK         0.0600 
    230 H230       -5.1835  -17.9249  -54.8844 H         1 UNK         0.3000 
    231 H231       -4.1391  -19.0066  -57.3097 H         1 UNK         0.0600 
    232 H232       -6.5478  -19.0053  -57.9878 H         1 UNK         0.0600 
    233 H233       -6.1052  -17.4885  -57.2221 H         1 UNK         0.0600 
    234 H234       -7.0279  -18.6950  -56.3238 H         1 UNK         0.0600 
    235 H235       -5.2582  -20.5965  -54.4006 H         1 UNK         0.3000 
    236 H236       -5.9514  -23.1384  -55.5828 H         1 UNK         0.0600 
    237 H237       -5.2101  -22.3685  -52.7142 H         1 UNK         0.0600 
    238 H238       -6.8394  -22.3844  -53.3835 H         1 UNK         0.0600 
    239 H239       -5.9466  -23.8885  -53.2073 H         1 UNK         0.0600 
    240 H240       -2.8785  -21.6113  -54.9105 H         1 UNK         0.3000 
    241 H241       -1.3284  -24.0083  -54.4958 H         1 UNK         0.0600 
    242 H242       -0.3634  -25.0923  -57.7355 H         1 UNK         0.3800 
    243 H243       -0.2089  -25.3233  -56.0178 H         1 UNK         0.3800 
    244 H244       -0.4635  -21.2049  -55.3544 H         1 UNK         0.0800 
    245 H245        0.6451  -22.5046  -54.9987 H         1 UNK         0.0800 
    246 H246       -0.2616  -19.3605  -53.5059 H         1 UNK         0.0800 
    247 H247        1.3052  -20.1110  -53.6649 H         1 UNK         0.0800 
@<TRIPOS>BOND
     1    1    2 1    
     2    1  127 1    
     3    1  128 1    
     4    1  129 1    
     5    2    3 2    
     6    2    4 am   BACKBONE|DICT|INTERRES
     7    4    5 1    
     8    4  130 1    
     9    5    6 1    
    10    5   65 1    
    11    5  131 1    
    12    6    7 1    
    13    6  132 1    
    14    6  133 1    
    15    7    8 1    
    16    8    9 1    
    17    8  134 1    
    18    8  135 1    
    19    9   10 ar   
    20    9   14 ar   
    21   10   11 ar   
    22   10  136 1    
    23   11   12 ar   
    24   11  126 1    
    25   12   13 ar   
    26   12  137 1    
    27   13   14 ar   
    28   13   15 1    
    29   14  138 1    
    30   15   16 1    
    31   15  139 1    
    32   15  140 1    
    33   16   17 1    
    34   17   18 1    
    35   17  141 1    
    36   17  142 1    
    37   18   19 1    
    38   18   67 1    
    39   18  143 1    
    40   19   20 am   BACKBONE|DICT|INTERRES
    41   19  144 1    
    42   20   21 2    
    43   20   22 1    
    44   22   23 1    
    45   22   24 1    
    46   22  145 1    
    47   23  146 1    
    48   23  147 1    
    49   23  148 1    
    50   24   25 am   BACKBONE|DICT|INTERRES
    51   24  149 1    
    52   25   26 2    
    53   25   27 1    
    54   27   28 1    
    55   27   29 1    
    56   27  150 1    
    57   28  151 1    
    58   28  152 1    
    59   28  153 1    
    60   29   30 am   BACKBONE|DICT|INTERRES
    61   29  154 1    
    62   30   31 2    
    63   30   32 1    
    64   32   33 1    
    65   32   34 1    
    66   32  155 1    
    67   33  156 1    
    68   33  157 1    
    69   33  158 1    
    70   34   35 am   BACKBONE|DICT|INTERRES
    71   34  159 1    
    72   35   36 2    
    73   35   37 1    
    74   37   38 1    
    75   37   39 1    
    76   37  160 1    
    77   38  161 1    
    78   38  162 1    
    79   38  163 1    
    80   39   40 am   BACKBONE|DICT|INTERRES
    81   39  164 1    
    82   40   41 2    
    83   40   42 1    
    84   42   43 1    
    85   42   44 1    
    86   42  165 1    
    87   43  166 1    
    88   43  167 1    
    89   43  168 1    
    90   44   45 am   BACKBONE|DICT|INTERRES
    91   44  169 1    
    92   45   46 2    
    93   45   47 1    
    94   47   48 1    
    95   47   49 1    
    96   47  170 1    
    97   48  171 1    
    98   48  172 1    
    99   48  173 1    
   100   49   50 am   BACKBONE|DICT|INTERRES
   101   49  174 1    
   102   50   51 2    
   103   50   52 1    
   104   52   53 1    
   105   52   54 1    
   106   52  175 1    
   107   53  176 1    
   108   53  177 1    
   109   53  178 1    
   110   54   55 am   BACKBONE|DICT|INTERRES
   111   54  179 1    
   112   55   56 2    
   113   55   57 1    
   114   57   58 1    
   115   57   59 1    
   116   57  180 1    
   117   58  181 1    
   118   58  182 1    
   119   58  183 1    
   120   59   60 am   BACKBONE|DICT|INTERRES
   121   59  184 1    
   122   60   61 2    
   123   60   62 1    
   124   62   63 1    
   125   62   64 1    
   126   62  185 1    
   127   63  186 1    
   128   63  187 1    
   129   63  188 1    
   130   64   65 am   BACKBONE|DICT|INTERRES
   131   64  189 1    
   132   65   66 2    
   133   67   68 2    
   134   67   69 am   BACKBONE|DICT|INTERRES
   135   69   70 1    
   136   69  190 1    
   137   70   71 1    
   138   70   72 1    
   139   70  191 1    
   140   71  192 1    
   141   71  193 1    
   142   71  194 1    
   143   72   73 2    
   144   72   74 am   BACKBONE|DICT|INTERRES
   145   74   75 1    
   146   74  195 1    
   147   75   76 1    
   148   75   77 1    
   149   75  196 1    
   150   76  197 1    
   151   76  198 1    
   152   76  199 1    
   153   77   78 2    
   154   77   79 am   BACKBONE|DICT|INTERRES
   155   79   80 1    
   156   79  200 1    
   157   80   81 1    
   158   80   82 1    
   159   80  201 1    
   160   81  202 1    
   161   81  203 1    
   162   81  204 1    
   163   82   83 2    
   164   82   84 am   BACKBONE|DICT|INTERRES
   165   84   85 1    
   166   84  205 1    
   167   85   86 1    
   168   85   87 1    
   169   85  206 1    
   170   86  207 1    
   171   86  208 1    
   172   86  209 1    
   173   87   88 2    
   174   87   89 am   BACKBONE|DICT|INTERRES
   175   89   90 1    
   176   89  210 1    
   177   90   91 1    
   178   90   92 1    
   179   90  211 1    
   180   91  212 1    
   181   91  213 1    
   182   91  214 1    
   183   92   93 2    
   184   92   94 am   BACKBONE|DICT|INTERRES
   185   94   95 1    
   186   94  215 1    
   187   95   96 1    
   188   95   97 1    
   189   95  216 1    
   190   96  217 1    
   191   96  218 1    
   192   96  219 1    
   193   97   98 2    
   194   97   99 am   BACKBONE|DICT|INTERRES
   195   99  100 1    
   196   99  220 1    
   197  100  101 1    
   198  100  102 1    
   199  100  221 1    
   200  101  222 1    
   201  101  223 1    
   202  101  224 1    
   203  102  103 2    
   204  102  104 am   BACKBONE|DICT|INTERRES
   205  104  105 1    
   206  104  225 1    
   207  105  106 1    
   208  105  107 1    
   209  105  226 1    
   210  106  227 1    
   211  106  228 1    
   212  106  229 1    
   213  107  108 2    
   214  107  109 am   BACKBONE|DICT|INTERRES
   215  109  110 1    
   216  109  230 1    
   217  110  111 1    
   218  110  112 1    
   219  110  231 1    
   220  111  232 1    
   221  111  233 1    
   222  111  234 1    
   223  112  113 2    
   224  112  114 am   BACKBONE|DICT|INTERRES
   225  114  115 1    
   226  114  235 1    
   227  115  116 1    
   228  115  117 1    
   229  115  236 1    
   230  116  237 1    
   231  116  238 1    
   232  116  239 1    
   233  117  118 2    
   234  117  119 am   BACKBONE|DICT|INTERRES
   235  119  120 1    
   236  119  240 1    
   237  120  121 1    
   238  120  124 1    
   239  120  241 1    
   240  121  122 am   BACKBONE|DICT|INTERRES
   241  121  123 2    
   242  122  242 1    
   243  122  243 1    
   244  124  125 1    
   245  124  244 1    
   246  124  245 1    
   247  125  126 1    
   248  126  246 1    
   249  126  247 1    
@<TRIPOS>SUBSTRUCTURE
     1 UNK         1 GROUP             0       ****    0 ROOT    
