@<TRIPOS>MOLECULE
3R540
247   249    1
SMALL
USER_CHARGES


@<TRIPOS>ATOM
      1 CA         -1.0225  -14.8192  -51.5075 C.3       0 UNK        -0.1800 
      2 C          -0.3195  -13.8652  -50.5564 C.2       0 UNK         0.5000 
      3 O          -0.5735  -12.6607  -50.5965 O.2       0 UNK        -0.5000 
      4 N           0.5611  -14.3933  -49.6985 N.am      1 UNK        -0.5000 
      5 CA          1.3845  -13.6476  -48.7379 C.3       1 UNK         0.1400 
      6 C6          2.6475  -14.4492  -48.3316 C.3       23 UNK        -0.0398 
      7 S7          3.7695  -14.7173  -49.7447 S.3       23 UNK        -0.2404 
      8 C8          3.9424  -16.5304  -49.7675 C.3       23 UNK        -0.0205 
      9 C9          2.7407  -17.2467  -50.3716 C.ar      23 UNK        -0.0193 
     10 C10         2.3562  -16.9912  -51.6925 C.ar      23 UNK        -0.1150 
     11 C11         1.3090  -17.7010  -52.2894 C.ar      23 UNK        -0.0193 
     12 C12         0.6446  -18.6791  -51.5382 C.ar      23 UNK        -0.1150 
     13 C13         1.0270  -18.9582  -50.2246 C.ar      23 UNK        -0.0193 
     14 C14         2.0614  -18.2235  -49.6378 C.ar      23 UNK        -0.1150 
     15 C15         0.3450  -20.0813  -49.4593 C.3       23 UNK        -0.0205 
     16 S16         1.4843  -21.4843  -49.2025 S.3       23 UNK        -0.2404 
     17 C17         1.6303  -21.5335  -47.3766 C.3       23 UNK        -0.0398 
     18 CA          0.9827  -22.7442  -46.6417 C.3       11 UNK         0.1400 
     19 N           0.7389  -22.4376  -45.2302 N.am      11 UNK        -0.5000 
     20 C           0.3351  -23.3103  -44.2966 C.2       10 UNK         0.5000 
     21 O           0.1911  -24.5161  -44.4986 O.2       10 UNK        -0.5000 
     22 CA         -0.0239  -22.7213  -42.9195 C.3       10 UNK         0.1400 
     23 CB          1.2383  -22.4678  -42.0821 C.3       10 UNK        -0.1800 
     24 N          -0.8045  -21.4858  -43.0266 N.am      10 UNK        -0.5000 
     25 C          -2.0306  -21.4150  -43.5666 C.2       9 UNK         0.5000 
     26 O          -2.6502  -22.3934  -43.9823 O.2       9 UNK        -0.5000 
     27 CA         -2.6551  -20.0162  -43.7086 C.3       9 UNK         0.1400 
     28 CB         -3.2545  -19.5495  -42.3739 C.3       9 UNK        -0.1800 
     29 N          -1.7041  -19.0205  -44.2039 N.am      9 UNK        -0.5000 
     30 C          -1.1244  -19.0576  -45.4121 C.2       8 UNK         0.5000 
     31 O          -1.3684  -19.9143  -46.2594 O.2       8 UNK        -0.5000 
     32 CA         -0.0475  -17.9985  -45.7073 C.3       8 UNK         0.1400 
     33 CB         -0.6810  -16.6707  -46.1392 C.3       8 UNK        -0.1800 
     34 N           0.8524  -17.7842  -44.5739 N.am      8 UNK        -0.5000 
     35 C           1.6598  -18.7245  -44.0612 C.2       7 UNK         0.5000 
     36 O           1.7747  -19.8569  -44.5281 O.2       7 UNK        -0.5000 
     37 CA          2.4249  -18.3590  -42.7805 C.3       7 UNK         0.1400 
     38 CB          3.7089  -17.5816  -43.1075 C.3       7 UNK        -0.1800 
     39 N           1.5893  -17.5856  -41.8633 N.am      7 UNK        -0.5000 
     40 C           0.5766  -18.1013  -41.1528 C.2       6 UNK         0.5000 
     41 O           0.2699  -19.2940  -41.1687 O.2       6 UNK        -0.5000 
     42 CA         -0.2542  -17.1124  -40.3128 C.3       6 UNK         0.1400 
     43 CB          0.4211  -16.8521  -38.9581 C.3       6 UNK        -0.1800 
     44 N          -0.4818  -15.8365  -40.9951 N.am      6 UNK        -0.5000 
     45 C          -1.2316  -15.6973  -42.0971 C.2       5 UNK         0.5000 
     46 O          -1.8302  -16.6272  -42.6343 O.2       5 UNK        -0.5000 
     47 CA         -1.2946  -14.2967  -42.7346 C.3       5 UNK         0.1400 
     48 CB         -2.4114  -13.4665  -42.0848 C.3       5 UNK        -0.1800 
     49 N          -0.0414  -13.5363  -42.6958 N.am      5 UNK        -0.5000 
     50 C           1.1549  -13.9643  -43.1243 C.2       4 UNK         0.5000 
     51 O           1.3748  -15.1157  -43.5021 O.2       4 UNK        -0.5000 
     52 CA          2.2632  -12.9017  -43.1791 C.3       4 UNK         0.1400 
     53 CB          3.6155  -13.4705  -43.6456 C.3       4 UNK        -0.1800 
     54 N           1.8311  -11.8730  -44.1169 N.am      4 UNK        -0.5000 
     55 C           1.6923  -10.5680  -43.8532 C.2       3 UNK         0.5000 
     56 O           2.0022  -10.0517  -42.7791 O.2       3 UNK        -0.5000 
     57 CA          1.0879   -9.6873  -44.9691 C.3       3 UNK         0.1400 
     58 CB          2.1995   -8.9465  -45.7280 C.3       3 UNK        -0.1800 
     59 N           0.2798  -10.4403  -45.9320 N.am      3 UNK        -0.5000 
     60 C          -0.8827  -11.0475  -45.6541 C.2       2 UNK         0.5000 
     61 O          -1.4645  -10.9371  -44.5749 O.2       2 UNK        -0.5000 
     62 CA         -1.4819  -11.9597  -46.7455 C.3       2 UNK         0.1400 
     63 CB         -2.6349  -11.2483  -47.4687 C.3       2 UNK        -0.1800 
     64 N          -0.5237  -12.4442  -47.7468 N.am      2 UNK        -0.5000 
     65 C           0.5682  -13.1830  -47.5090 C.2       1 UNK         0.5000 
     66 O           0.9369  -13.4816  -46.3740 O.2       1 UNK        -0.5000 
     67 C          -0.2921  -23.2982  -47.3151 C.2       11 UNK         0.5000 
     68 O          -0.2331  -24.3630  -47.9288 O.2       11 UNK        -0.5000 
     69 N          -1.4227  -22.5971  -47.1532 N.am      12 UNK        -0.5000 
     70 CA         -2.7204  -22.9865  -47.7028 C.3       12 UNK         0.1400 
     71 CB         -3.7426  -21.8665  -47.4594 C.3       12 UNK        -0.1800 
     72 C          -3.2338  -24.3318  -47.1571 C.2       12 UNK         0.5000 
     73 O          -3.7562  -25.1405  -47.9248 O.2       12 UNK        -0.5000 
     74 N          -3.0391  -24.5690  -45.8525 N.am      13 UNK        -0.5000 
     75 CA         -3.3556  -25.8310  -45.1842 C.3       13 UNK         0.1400 
     76 CB         -3.2027  -25.6640  -43.6649 C.3       13 UNK        -0.1800 
     77 C          -2.5016  -27.0060  -45.6958 C.2       13 UNK         0.5000 
     78 O          -3.0394  -28.0927  -45.9101 O.2       13 UNK        -0.5000 
     79 N          -1.2001  -26.7637  -45.9075 N.am      14 UNK        -0.5000 
     80 CA         -0.2567  -27.7356  -46.4629 C.3       14 UNK         0.1400 
     81 CB          1.1800  -27.2289  -46.2640 C.3       14 UNK        -0.1800 
     82 C          -0.5288  -28.0481  -47.9466 C.2       14 UNK         0.5000 
     83 O          -0.4634  -29.2121  -48.3441 O.2       14 UNK        -0.5000 
     84 N          -0.8424  -27.0095  -48.7329 N.am      15 UNK        -0.5000 
     85 CA         -1.1904  -27.1062  -50.1520 C.3       15 UNK         0.1400 
     86 CB         -1.1376  -25.7024  -50.7761 C.3       15 UNK        -0.1800 
     87 C          -2.5723  -27.7394  -50.4018 C.2       15 UNK         0.5000 
     88 O          -2.7901  -28.2997  -51.4767 O.2       15 UNK        -0.5000 
     89 N          -3.4747  -27.6162  -49.4174 N.am      16 UNK        -0.5000 
     90 CA         -4.8914  -27.9920  -49.4468 C.3       16 UNK         0.1400 
     91 CB         -5.0646  -29.5171  -49.6040 C.3       16 UNK        -0.1800 
     92 C          -5.6916  -27.1704  -50.4811 C.2       16 UNK         0.5000 
     93 O          -6.6072  -27.6922  -51.1204 O.2       16 UNK        -0.5000 
     94 N          -5.3264  -25.8919  -50.6222 N.am      17 UNK        -0.5000 
     95 CA         -5.9191  -24.9155  -51.5282 C.3       17 UNK         0.1400 
     96 CB         -5.3837  -25.1213  -52.9564 C.3       17 UNK        -0.1800 
     97 C          -5.5649  -23.5187  -51.0061 C.2       17 UNK         0.5000 
     98 O          -4.4926  -23.3477  -50.4252 O.2       17 UNK        -0.5000 
     99 N          -6.4631  -22.5488  -51.2110 N.am      18 UNK        -0.5000 
    100 CA        -6.3094  -21.1693  -50.7465 C.3       18 UNK         0.1400 
    101 CB        -7.6142  -20.4039  -51.0180 C.3       18 UNK        -0.1800 
    102 C         -5.1243  -20.4420  -51.4079 C.2       18 UNK         0.5000 
    103 O         -4.8826  -20.6217  -52.6034 O.2       18 UNK        -0.5000 
    104 N         -4.4577  -19.5711  -50.6364 N.am      19 UNK        -0.5000 
    105 CA        -3.3493  -18.7211  -51.0905 C.3       19 UNK         0.1400 
    106 CB        -2.7374  -18.0096  -49.8736 C.3       19 UNK        -0.1800 
    107 C         -3.7630  -17.7031  -52.1754 C.2       19 UNK         0.5000 
    108 O         -2.9240  -17.2671  -52.9638 O.2       19 UNK        -0.5000 
    109 N         -5.0659  -17.3934  -52.2418 N.am      20 UNK        -0.5000 
    110 CA        -5.7176  -16.5836  -53.2739 C.3       20 UNK         0.1400 
    111 CB        -7.1941  -16.4010  -52.8890 C.3       20 UNK        -0.1800 
    112 C         -5.5998  -17.1515  -54.7063 C.2       20 UNK         0.5000 
    113 O         -5.8399  -16.4121  -55.6612 O.2       20 UNK        -0.5000 
    114 N         -5.2148  -18.4308  -54.8436 N.am      21 UNK        -0.5000 
    115 CA        -4.8842  -19.0732  -56.1179 C.3       21 UNK         0.1400 
    116 CB        -4.7067  -20.5817  -55.8892 C.3       21 UNK        -0.1800 
    117 C         -3.6309  -18.4818  -56.7990 C.2       21 UNK         0.5000 
    118 O         -3.5146  -18.5801  -58.0216 O.2       21 UNK        -0.5000 
    119 N         -2.7337  -17.8733  -56.0127 N.am      22 UNK        -0.5000 
    120 CA        -1.5404  -17.1516  -56.4828 C.3       22 UNK         0.1400 
    121 C         -1.4386  -15.6992  -55.9407 C.2       22 UNK         0.5000 
    122 N         -2.0879  -15.3429  -54.8399 N.am      22 UNK        -0.7600 
    123 O         -0.7749  -14.8655  -56.5508 O.2       22 UNK        -0.5000 
    124 C124       -0.2274  -17.9518  -56.2666 C.3       23 UNK        -0.0398 
    125 S125       -0.0277  -18.6703  -54.5980 S.3       23 UNK        -0.2404 
    126 C126        0.9290  -17.3738  -53.7357 C.3       23 UNK        -0.0205 
    127 H127       -2.0999  -14.7974  -51.3440 H         1 UNK         0.0600 
    128 H128       -0.6780  -15.8445  -51.3825 H         1 UNK         0.0600 
    129 H129       -0.8231  -14.5211  -52.5353 H         1 UNK         0.0600 
    130 H130        0.7284  -15.3889  -49.7233 H         1 UNK         0.3000 
    131 H131        1.7275  -12.7338  -49.2280 H         1 UNK         0.0600 
    132 H132        3.2196  -13.9112  -47.5733 H         1 UNK         0.0800 
    133 H133        2.3688  -15.4035  -47.8812 H         1 UNK         0.0800 
    134 H134        4.8225  -16.7836  -50.3600 H         1 UNK         0.0800 
    135 H135        4.1479  -16.8864  -48.7567 H         1 UNK         0.0800 
    136 H136        2.8873  -16.2417  -52.2628 H         1 UNK         0.1150 
    137 H137       -0.1643  -19.2451  -51.9745 H         1 UNK         0.1150 
    138 H138        2.3660  -18.4490  -48.6254 H         1 UNK         0.1150 
    139 H139       -0.0425  -19.6919  -48.5199 H         1 UNK         0.0800 
    140 H140       -0.5257  -20.4473  -50.0056 H         1 UNK         0.0800 
    141 H141        1.2233  -20.6060  -46.9802 H         1 UNK         0.0800 
    142 H142        2.6915  -21.4956  -47.1281 H         1 UNK         0.0800 
    143 H143        1.7119  -23.5568  -46.6645 H         1 UNK         0.0600 
    144 H144        0.8820  -21.4701  -44.9522 H         1 UNK         0.3000 
    145 H145       -0.6361  -23.4572  -42.3941 H         1 UNK         0.0600 
    146 H146        0.9831  -22.1151  -41.0827 H         1 UNK         0.0600 
    147 H147        1.8193  -23.3835  -41.9661 H         1 UNK         0.0600 
    148 H148        1.8873  -21.7232  -42.5428 H         1 UNK         0.0600 
    149 H149       -0.3756  -20.6405  -42.6669 H         1 UNK         0.3000 
    150 H150       -3.4668  -20.0890  -44.4351 H         1 UNK         0.0600 
    151 H151       -3.9661  -20.2803  -41.9877 H         1 UNK         0.0600 
    152 H152       -3.7893  -18.6069  -42.4915 H         1 UNK         0.0600 
    153 H153       -2.4857  -19.4051  -41.6145 H         1 UNK         0.0600 
    154 H154       -1.5026  -18.2401  -43.5846 H         1 UNK         0.3000 
    155 H155        0.5576  -18.3602  -46.5400 H         1 UNK         0.0600 
    156 H156        0.0872  -15.9486  -46.4083 H         1 UNK         0.0600 
    157 H157       -1.3202  -16.8074  -47.0125 H         1 UNK         0.0600 
    158 H158       -1.2906  -16.2359  -45.3480 H         1 UNK         0.0600 
    159 H159        0.8576  -16.8599  -44.1505 H         1 UNK         0.3000 
    160 H160        2.7120  -19.2879  -42.2830 H         1 UNK         0.0600 
    161 H161        3.5012  -16.6604  -43.6516 H         1 UNK         0.0600 
    162 H162        4.3757  -18.1813  -43.7282 H         1 UNK         0.0600 
    163 H163        4.2550  -17.3208  -42.2010 H         1 UNK         0.0600 
    164 H164        1.7117  -16.5821  -41.8817 H         1 UNK         0.3000 
    165 H165       -1.2261  -17.5738  -40.1247 H         1 UNK         0.0600 
    166 H166       -0.1988  -16.2181  -38.3240 H         1 UNK         0.0600 
    167 H167        0.5867  -17.7861  -38.4193 H         1 UNK         0.0600 
    168 H168        1.3898  -16.3651  -39.0766 H         1 UNK         0.0600 
    169 H169       -0.0164  -15.0229  -40.6209 H         1 UNK         0.3000 
    170 H170       -1.5468  -14.4316  -43.7877 H         1 UNK         0.0600 
    171 H171       -2.5546  -12.5194  -42.6048 H         1 UNK         0.0600 
    172 H172       -2.1922  -13.2457  -41.0394 H         1 UNK         0.0600 
    173 H173       -3.3634  -13.9982  -42.1162 H         1 UNK         0.0600 
    174 H174       -0.1265  -12.5644  -42.4352 H         1 UNK         0.3000 
    175 H175        2.3827  -12.4960  -42.1727 H         1 UNK         0.0600 
    176 H176        3.9705  -14.2431  -42.9629 H         1 UNK         0.0600 
    177 H177        3.5441  -13.9138  -44.6400 H         1 UNK         0.0600 
    178 H178        4.3775  -12.6919  -43.6810 H         1 UNK         0.0600 
    179 H179        1.4997  -12.2335  -45.0080 H         1 UNK         0.3000 
    180 H180        0.4440   -8.9460  -44.4912 H         1 UNK         0.0600 
    181 H181        2.8678   -9.6400  -46.2401 H         1 UNK         0.0600 
    182 H182        2.8063   -8.3487  -45.0466 H         1 UNK         0.0600 
    183 H183        1.7844   -8.2667  -46.4723 H         1 UNK         0.0600 
    184 H184        0.6780  -10.5775  -46.8489 H         1 UNK         0.3000 
    185 H185       -1.8873  -12.8367  -46.2366 H         1 UNK         0.0600 
    186 H186       -3.3888  -10.9020  -46.7604 H         1 UNK         0.0600 
    187 H187       -2.2827  -10.3794  -48.0260 H         1 UNK         0.0600 
    188 H188       -3.1333  -11.9176  -48.1703 H         1 UNK         0.0600 
    189 H189       -0.7472  -12.2584  -48.7209 H         1 UNK         0.3000 
    190 H190       -1.3879  -21.7058  -46.6632 H         1 UNK         0.3000 
    191 H191       -2.5834  -23.0982  -48.7788 H         1 UNK         0.0600 
    192 H192       -3.8677  -21.6601  -46.3964 H         1 UNK         0.0600 
    193 H193       -4.7198  -22.1381  -47.8592 H         1 UNK         0.0600 
    194 H194       -3.4345  -20.9420  -47.9476 H         1 UNK         0.0600 
    195 H195       -2.6559  -23.8279  -45.2719 H         1 UNK         0.3000 
    196 H196       -4.4011  -26.0652  -45.3948 H         1 UNK         0.0600 
    197 H197       -3.4487  -26.5895  -43.1429 H         1 UNK         0.0600 
    198 H198       -3.8691  -24.8892  -43.2854 H         1 UNK         0.0600 
    199 H199       -2.1837  -25.3915  -43.3895 H         1 UNK         0.0600 
    200 H200       -0.8253  -25.8510  -45.6684 H         1 UNK         0.3000 
    201 H201       -0.3646  -28.6670  -45.9031 H         1 UNK         0.0600 
    202 H202        1.4021  -27.0814  -45.2070 H         1 UNK         0.0600 
    203 H203        1.3486  -26.2805  -46.7748 H         1 UNK         0.0600 
    204 H204        1.9047  -27.9455  -46.6526 H         1 UNK         0.0600 
    205 H205       -0.7997  -26.0707  -48.3405 H         1 UNK         0.3000 
    206 H206       -0.4434  -27.7306  -50.6464 H         1 UNK         0.0600 
    207 H207       -0.1480  -25.2582  -50.6674 H         1 UNK         0.0600 
    208 H208       -1.3638  -25.7378  -51.8425 H         1 UNK         0.0600 
    209 H209       -1.8590  -25.0293  -50.3104 H         1 UNK         0.0600 
    210 H210       -3.2012  -27.0673  -48.6106 H         1 UNK         0.3000 
    211 H211       -5.2918  -27.7171  -48.4699 H         1 UNK         0.0600 
    212 H212       -4.7563  -29.8633  -50.5906 H         1 UNK         0.0600 
    213 H213       -6.1074  -29.8062  -49.4690 H         1 UNK         0.0600 
    214 H214       -4.4796  -30.0576  -48.8597 H         1 UNK         0.0600 
    215 H215       -4.6048  -25.5129  -50.0156 H         1 UNK         0.3000 
    216 H216       -7.0049  -25.0313  -51.5204 H         1 UNK         0.0600 
    217 H217       -4.2965  -25.0383  -52.9905 H         1 UNK         0.0600 
    218 H218       -5.7927  -24.3753  -53.6389 H         1 UNK         0.0600 
    219 H219       -5.6562  -26.1023  -53.3458 H         1 UNK         0.0600 
    220 H220       -7.3025  -22.7565  -51.7315 H         1 UNK         0.3000 
    221 H221       -6.1441  -21.1985  -49.6677 H         1 UNK         0.0600 
    222 H222       -8.4609  -20.8766  -50.5198 H         1 UNK         0.0600 
    223 H223       -7.8369  -20.3544  -52.0849 H         1 UNK         0.0600 
    224 H224       -7.5539  -19.3795  -50.6481 H         1 UNK         0.0600 
    225 H225       -4.7292  -19.4678  -49.6695 H         1 UNK         0.3000 
    226 H226       -2.5894  -19.3715  -51.5280 H         1 UNK         0.0600 
    227 H227       -2.4295  -18.7236  -49.1092 H         1 UNK         0.0600 
    228 H228       -1.8508  -17.4438  -50.1574 H         1 UNK         0.0600 
    229 H229       -3.4410  -17.3125  -49.4171 H         1 UNK         0.0600 
    230 H230       -5.6758  -17.8028  -51.5508 H         1 UNK         0.3000 
    231 H231       -5.2372  -15.6032  -53.2764 H         1 UNK         0.0600 
    232 H232       -7.7191  -17.3564  -52.8478 H         1 UNK         0.0600 
    233 H233       -7.7135  -15.7719  -53.6131 H         1 UNK         0.0600 
    234 H234       -7.2925  -15.9203  -51.9155 H         1 UNK         0.0600 
    235 H235       -5.0609  -18.9887  -54.0115 H         1 UNK         0.3000 
    236 H236       -5.7274  -18.9271  -56.7960 H         1 UNK         0.0600 
    237 H237       -3.8722  -20.7894  -55.2179 H         1 UNK         0.0600 
    238 H238       -5.6034  -21.0246  -55.4552 H         1 UNK         0.0600 
    239 H239       -4.5094  -21.0997  -56.8285 H         1 UNK         0.0600 
    240 H240       -2.8941  -17.8465  -55.0135 H         1 UNK         0.3000 
    241 H241       -1.6336  -17.0108  -57.5613 H         1 UNK         0.0600 
    242 H242       -2.0294  -14.3858  -54.5345 H         1 UNK         0.3800 
    243 H243       -2.5183  -16.0353  -54.2328 H         1 UNK         0.3800 
    244 H244        0.6486  -17.3516  -56.5189 H         1 UNK         0.0800 
    245 H245       -0.2131  -18.7861  -56.9688 H         1 UNK         0.0800 
    246 H246        1.8359  -17.1785  -54.3098 H         1 UNK         0.0800 
    247 H247        0.3532  -16.4490  -53.7341 H         1 UNK         0.0800 
@<TRIPOS>BOND
     1    1    2 1    
     2    1  127 1    
     3    1  128 1    
     4    1  129 1    
     5    2    3 2    
     6    2    4 am   BACKBONE|DICT|INTERRES
     7    4    5 1    
     8    4  130 1    
     9    5    6 1    
    10    5   65 1    
    11    5  131 1    
    12    6    7 1    
    13    6  132 1    
    14    6  133 1    
    15    7    8 1    
    16    8    9 1    
    17    8  134 1    
    18    8  135 1    
    19    9   10 ar   
    20    9   14 ar   
    21   10   11 ar   
    22   10  136 1    
    23   11   12 ar   
    24   11  126 1    
    25   12   13 ar   
    26   12  137 1    
    27   13   14 ar   
    28   13   15 1    
    29   14  138 1    
    30   15   16 1    
    31   15  139 1    
    32   15  140 1    
    33   16   17 1    
    34   17   18 1    
    35   17  141 1    
    36   17  142 1    
    37   18   19 1    
    38   18   67 1    
    39   18  143 1    
    40   19   20 am   BACKBONE|DICT|INTERRES
    41   19  144 1    
    42   20   21 2    
    43   20   22 1    
    44   22   23 1    
    45   22   24 1    
    46   22  145 1    
    47   23  146 1    
    48   23  147 1    
    49   23  148 1    
    50   24   25 am   BACKBONE|DICT|INTERRES
    51   24  149 1    
    52   25   26 2    
    53   25   27 1    
    54   27   28 1    
    55   27   29 1    
    56   27  150 1    
    57   28  151 1    
    58   28  152 1    
    59   28  153 1    
    60   29   30 am   BACKBONE|DICT|INTERRES
    61   29  154 1    
    62   30   31 2    
    63   30   32 1    
    64   32   33 1    
    65   32   34 1    
    66   32  155 1    
    67   33  156 1    
    68   33  157 1    
    69   33  158 1    
    70   34   35 am   BACKBONE|DICT|INTERRES
    71   34  159 1    
    72   35   36 2    
    73   35   37 1    
    74   37   38 1    
    75   37   39 1    
    76   37  160 1    
    77   38  161 1    
    78   38  162 1    
    79   38  163 1    
    80   39   40 am   BACKBONE|DICT|INTERRES
    81   39  164 1    
    82   40   41 2    
    83   40   42 1    
    84   42   43 1    
    85   42   44 1    
    86   42  165 1    
    87   43  166 1    
    88   43  167 1    
    89   43  168 1    
    90   44   45 am   BACKBONE|DICT|INTERRES
    91   44  169 1    
    92   45   46 2    
    93   45   47 1    
    94   47   48 1    
    95   47   49 1    
    96   47  170 1    
    97   48  171 1    
    98   48  172 1    
    99   48  173 1    
   100   49   50 am   BACKBONE|DICT|INTERRES
   101   49  174 1    
   102   50   51 2    
   103   50   52 1    
   104   52   53 1    
   105   52   54 1    
   106   52  175 1    
   107   53  176 1    
   108   53  177 1    
   109   53  178 1    
   110   54   55 am   BACKBONE|DICT|INTERRES
   111   54  179 1    
   112   55   56 2    
   113   55   57 1    
   114   57   58 1    
   115   57   59 1    
   116   57  180 1    
   117   58  181 1    
   118   58  182 1    
   119   58  183 1    
   120   59   60 am   BACKBONE|DICT|INTERRES
   121   59  184 1    
   122   60   61 2    
   123   60   62 1    
   124   62   63 1    
   125   62   64 1    
   126   62  185 1    
   127   63  186 1    
   128   63  187 1    
   129   63  188 1    
   130   64   65 am   BACKBONE|DICT|INTERRES
   131   64  189 1    
   132   65   66 2    
   133   67   68 2    
   134   67   69 am   BACKBONE|DICT|INTERRES
   135   69   70 1    
   136   69  190 1    
   137   70   71 1    
   138   70   72 1    
   139   70  191 1    
   140   71  192 1    
   141   71  193 1    
   142   71  194 1    
   143   72   73 2    
   144   72   74 am   BACKBONE|DICT|INTERRES
   145   74   75 1    
   146   74  195 1    
   147   75   76 1    
   148   75   77 1    
   149   75  196 1    
   150   76  197 1    
   151   76  198 1    
   152   76  199 1    
   153   77   78 2    
   154   77   79 am   BACKBONE|DICT|INTERRES
   155   79   80 1    
   156   79  200 1    
   157   80   81 1    
   158   80   82 1    
   159   80  201 1    
   160   81  202 1    
   161   81  203 1    
   162   81  204 1    
   163   82   83 2    
   164   82   84 am   BACKBONE|DICT|INTERRES
   165   84   85 1    
   166   84  205 1    
   167   85   86 1    
   168   85   87 1    
   169   85  206 1    
   170   86  207 1    
   171   86  208 1    
   172   86  209 1    
   173   87   88 2    
   174   87   89 am   BACKBONE|DICT|INTERRES
   175   89   90 1    
   176   89  210 1    
   177   90   91 1    
   178   90   92 1    
   179   90  211 1    
   180   91  212 1    
   181   91  213 1    
   182   91  214 1    
   183   92   93 2    
   184   92   94 am   BACKBONE|DICT|INTERRES
   185   94   95 1    
   186   94  215 1    
   187   95   96 1    
   188   95   97 1    
   189   95  216 1    
   190   96  217 1    
   191   96  218 1    
   192   96  219 1    
   193   97   98 2    
   194   97   99 am   BACKBONE|DICT|INTERRES
   195   99  100 1    
   196   99  220 1    
   197  100  101 1    
   198  100  102 1    
   199  100  221 1    
   200  101  222 1    
   201  101  223 1    
   202  101  224 1    
   203  102  103 2    
   204  102  104 am   BACKBONE|DICT|INTERRES
   205  104  105 1    
   206  104  225 1    
   207  105  106 1    
   208  105  107 1    
   209  105  226 1    
   210  106  227 1    
   211  106  228 1    
   212  106  229 1    
   213  107  108 2    
   214  107  109 am   BACKBONE|DICT|INTERRES
   215  109  110 1    
   216  109  230 1    
   217  110  111 1    
   218  110  112 1    
   219  110  231 1    
   220  111  232 1    
   221  111  233 1    
   222  111  234 1    
   223  112  113 2    
   224  112  114 am   BACKBONE|DICT|INTERRES
   225  114  115 1    
   226  114  235 1    
   227  115  116 1    
   228  115  117 1    
   229  115  236 1    
   230  116  237 1    
   231  116  238 1    
   232  116  239 1    
   233  117  118 2    
   234  117  119 am   BACKBONE|DICT|INTERRES
   235  119  120 1    
   236  119  240 1    
   237  120  121 1    
   238  120  124 1    
   239  120  241 1    
   240  121  122 am   BACKBONE|DICT|INTERRES
   241  121  123 2    
   242  122  242 1    
   243  122  243 1    
   244  124  125 1    
   245  124  244 1    
   246  124  245 1    
   247  125  126 1    
   248  126  246 1    
   249  126  247 1    
@<TRIPOS>SUBSTRUCTURE
     1 UNK         1 GROUP             0       ****    0 ROOT    
