@<TRIPOS>MOLECULE
3R540
247   249    1
SMALL
USER_CHARGES


@<TRIPOS>ATOM
      1 CA          1.7930   -7.9711  -43.7425 C.3       0 UNK        -0.1800 
      2 C           1.6045   -9.2743  -44.5058 C.2       0 UNK         0.5000 
      3 O           2.3726   -9.5637  -45.4222 O.2       0 UNK        -0.5000 
      4 N           0.5840  -10.0591  -44.1352 N.am      1 UNK        -0.5000 
      5 CA          0.2743  -11.3618  -44.7375 C.3       1 UNK         0.1400 
      6 C6         -1.1671  -11.8071  -44.3866 C.3       23 UNK        -0.0398 
      7 S7         -1.8323  -13.1025  -45.4866 S.3       23 UNK        -0.2404 
      8 C8         -3.5125  -13.2329  -44.8062 C.3       23 UNK        -0.0205 
      9 C9         -4.2792  -14.4080  -45.3921 C.ar      23 UNK        -0.0193 
     10 C10        -5.0964  -14.2353  -46.5126 C.ar      23 UNK        -0.1150 
     11 C11        -5.8566  -15.2960  -47.0164 C.ar      23 UNK        -0.0193 
     12 C12        -5.7929  -16.5389  -46.3713 C.ar      23 UNK        -0.1150 
     13 C13        -4.9496  -16.7389  -45.2735 C.ar      23 UNK        -0.0193 
     14 C14        -4.2017  -15.6637  -44.7859 C.ar      23 UNK        -0.1150 
     15 C15        -4.8601  -18.0969  -44.5844 C.3       23 UNK        -0.0205 
     16 S16        -4.7333  -19.4948  -45.7513 S.3       23 UNK        -0.2404 
     17 C17        -4.1552  -20.8087  -44.6288 C.3       23 UNK        -0.0398 
     18 CA         -3.4613  -21.9657  -45.3861 C.3       11 UNK         0.1400 
     19 N          -2.1495  -21.5902  -45.9422 N.am      11 UNK        -0.5000 
     20 C          -1.3794  -22.3796  -46.7075 C.2       10 UNK         0.5000 
     21 O          -1.7163  -23.5137  -47.0526 O.2       10 UNK        -0.5000 
     22 CA         -0.0029  -21.8542  -47.1536 C.3       10 UNK         0.1400 
     23 CB         -0.0863  -21.2360  -48.5559 C.3       10 UNK        -0.1800 
     24 N           0.6151  -20.8987  -46.2348 N.am      10 UNK        -0.5000 
     25 C           1.0181  -21.1788  -44.9873 C.2       9 UNK         0.5000 
     26 O           0.8162  -22.2580  -44.4304 O.2       9 UNK        -0.5000 
     27 CA          1.7679  -20.0641  -44.2380 C.3       9 UNK         0.1400 
     28 CB          3.2156  -19.9416  -44.7400 C.3       9 UNK        -0.1800 
     29 N           1.0889  -18.7815  -44.4013 N.am      9 UNK        -0.5000 
     30 C           0.1341  -18.3291  -43.5779 C.2       8 UNK         0.5000 
     31 O          -0.1855  -18.8875  -42.5278 O.2       8 UNK        -0.5000 
     32 CA         -0.6083  -17.0440  -43.9987 C.3       8 UNK         0.1400 
     33 CB          0.0285  -15.8176  -43.3333 C.3       8 UNK        -0.1800 
     34 N          -0.6761  -16.8209  -45.4461 N.am      8 UNK        -0.5000 
     35 C          -1.2297  -17.6707  -46.3224 C.2       7 UNK         0.5000 
     36 O          -1.6863  -18.7672  -46.0100 O.2       7 UNK        -0.5000 
     37 CA         -1.1863  -17.2686  -47.8051 C.3       7 UNK         0.1400 
     38 CB         -2.2442  -16.1984  -48.1070 C.3       7 UNK        -0.1800 
     39 N           0.1238  -16.7975  -48.2592 N.am      7 UNK        -0.5000 
     40 C           1.3064  -17.4034  -48.0897 C.2       6 UNK         0.5000 
     41 O           1.4620  -18.4252  -47.4205 O.2       6 UNK        -0.5000 
     42 CA          2.5352  -16.7625  -48.7642 C.3       6 UNK         0.1400 
     43 CB          2.6994  -17.2772  -50.2065 C.3       6 UNK        -0.1800 
     44 N           2.5817  -15.2946  -48.7058 N.am      6 UNK        -0.5000 
     45 C           1.7737  -14.3922  -49.2843 C.2       5 UNK         0.5000 
     46 O           0.8238  -14.6960  -50.0054 O.2       5 UNK        -0.5000 
     47 CA          2.0268  -12.9039  -48.9785 C.3       5 UNK         0.1400 
     48 CB          0.7599  -12.2536  -48.4046 C.3       5 UNK        -0.1800 
     49 N           3.1352  -12.7067  -48.0392 N.am      5 UNK        -0.5000 
     50 C           4.3910  -12.4241  -48.4123 C.2       4 UNK         0.5000 
     51 O           4.7334  -12.2536  -49.5832 O.2       4 UNK        -0.5000 
     52 CA          5.4576  -12.3403  -47.3043 C.3       4 UNK         0.1400 
     53 CB          5.6015  -10.8980  -46.7979 C.3       4 UNK        -0.1800 
     54 N           5.2201  -13.2241  -46.1620 N.am      4 UNK        -0.5000 
     55 C           5.1798  -14.5609  -46.1934 C.2       3 UNK         0.5000 
     56 O           5.2360  -15.2152  -47.2341 O.2       3 UNK        -0.5000 
     57 CA          5.0431  -15.3020  -44.8477 C.3       3 UNK         0.1400 
     58 CB          6.4122  -15.4550  -44.1592 C.3       3 UNK        -0.1800 
     59 N           4.0427  -14.7408  -43.9306 N.am      3 UNK        -0.5000 
     60 C           4.0214  -13.5494  -43.3165 C.2       2 UNK         0.5000 
     61 O           4.8992  -12.6910  -43.4265 O.2       2 UNK        -0.5000 
     62 CA          2.7715  -13.2588  -42.4658 C.3       2 UNK         0.1400 
     63 CB          3.1554  -12.6787  -41.0947 C.3       2 UNK        -0.1800 
     64 N           1.8313  -12.3441  -43.1168 N.am      2 UNK        -0.5000 
     65 C           1.3144  -12.4396  -44.3532 C.2       1 UNK         0.5000 
     66 O           1.6162  -13.3125  -45.1695 O.2       1 UNK        -0.5000 
     67 C          -3.4142  -23.2282  -44.4966 C.2       11 UNK         0.5000 
     68 O          -4.4123  -23.9466  -44.4328 O.2       11 UNK        -0.5000 
     69 N          -2.2555  -23.5259  -43.8879 N.am      12 UNK        -0.5000 
     70 CA         -2.0036  -24.7618  -43.1383 C.3       12 UNK         0.1400 
     71 CB         -0.6507  -24.6466  -42.4208 C.3       12 UNK        -0.1800 
     72 C          -2.0435  -26.0345  -44.0132 C.2       12 UNK         0.5000 
     73 O          -2.2720  -27.1230  -43.4849 O.2       12 UNK        -0.5000 
     74 N          -1.8460  -25.8713  -45.3277 N.am      13 UNK        -0.5000 
     75 CA         -1.9419  -26.9091  -46.3514 C.3       13 UNK         0.1400 
     76 CB         -0.6074  -26.9580  -47.1176 C.3       13 UNK        -0.1800 
     77 C          -3.1325  -26.6452  -47.2968 C.2       13 UNK         0.5000 
     78 O          -3.1135  -27.1152  -48.4345 O.2       13 UNK        -0.5000 
     79 N          -4.1332  -25.8752  -46.8367 N.am      14 UNK        -0.5000 
     80 CA         -5.3374  -25.4615  -47.5702 C.3       14 UNK         0.1400 
     81 CB         -6.2544  -26.6732  -47.8391 C.3       14 UNK        -0.1800 
     82 C          -5.0061  -24.6631  -48.8490 C.2       14 UNK         0.5000 
     83 O          -5.5337  -24.9559  -49.9231 O.2       14 UNK        -0.5000 
     84 N          -4.0858  -23.6984  -48.7085 N.am      15 UNK        -0.5000 
     85 CA         -3.4875  -22.8842  -49.7713 C.3       15 UNK         0.1400 
     86 CB         -4.5277  -21.9620  -50.4350 C.3       15 UNK        -0.1800 
     87 C          -2.7023  -23.7543  -50.7705 C.2       15 UNK         0.5000 
     88 O          -2.8262  -23.5731  -51.9818 O.2       15 UNK        -0.5000 
     89 N          -1.9358  -24.7147  -50.2314 N.am      16 UNK        -0.5000 
     90 CA         -1.1916  -25.7573  -50.9497 C.3       16 UNK         0.1400 
     91 CB         -0.0006  -25.1395  -51.7101 C.3       16 UNK        -0.1800 
     92 C          -2.1090  -26.6087  -51.8554 C.2       16 UNK         0.5000 
     93 O          -1.7879  -26.8396  -53.0210 O.2       16 UNK        -0.5000 
     94 N          -3.2577  -27.0189  -51.2985 N.am      17 UNK        -0.5000 
     95 CA         -4.3900  -27.6657  -51.9688 C.3       17 UNK         0.1400 
     96 CB         -4.0149  -29.0879  -52.4345 C.3       17 UNK        -0.1800 
     97 C          -4.9804  -26.7857  -53.0937 C.2       17 UNK         0.5000 
     98 O          -5.1766  -27.2562  -54.2159 O.2       17 UNK        -0.5000 
     99 N          -5.2439  -25.5153  -52.7534 N.am      18 UNK        -0.5000 
    100 CA        -5.7882  -24.4503  -53.6027 C.3       18 UNK         0.1400 
    101 CB        -7.2672  -24.7350  -53.9358 C.3       18 UNK        -0.1800 
    102 C         -4.9310  -24.1465  -54.8522 C.2       18 UNK         0.5000 
    103 O         -5.4764  -23.9545  -55.9413 O.2       18 UNK        -0.5000 
    104 N         -3.6058  -24.1050  -54.6702 N.am      19 UNK        -0.5000 
    105 CA        -2.6220  -23.8095  -55.7147 C.3       19 UNK         0.1400 
    106 CB        -1.6748  -25.0092  -55.8642 C.3       19 UNK        -0.1800 
    107 C         -1.8139  -22.5338  -55.4173 C.2       19 UNK         0.5000 
    108 O         -1.3297  -21.9019  -56.3579 O.2       19 UNK        -0.5000 
    109 N         -1.6675  -22.1775  -54.1353 N.am      20 UNK        -0.5000 
    110 CA        -0.9624  -20.9855  -53.6693 C.3       20 UNK         0.1400 
    111 CB        -0.2444  -21.3263  -52.3501 C.3       20 UNK        -0.1800 
    112 C         -1.9318  -19.8016  -53.4904 C.2       20 UNK         0.5000 
    113 O         -3.1117  -19.8890  -53.8460 O.2       20 UNK        -0.5000 
    114 N         -1.4063  -18.7049  -52.9283 N.am      21 UNK        -0.5000 
    115 CA        -2.1467  -17.5001  -52.5561 C.3       21 UNK         0.1400 
    116 CB        -1.1764  -16.5016  -51.9104 C.3       21 UNK        -0.1800 
    117 C         -3.3194  -17.8106  -51.6064 C.2       21 UNK         0.5000 
    118 O         -3.1468  -18.5657  -50.6476 O.2       21 UNK        -0.5000 
    119 N         -4.4845  -17.2307  -51.9147 N.am      22 UNK        -0.5000 
    120 CA        -5.7832  -17.5020  -51.2757 C.3       22 UNK         0.1400 
    121 C         -6.4275  -18.8702  -51.6688 C.2       22 UNK         0.5000 
    122 N         -5.8704  -19.6365  -52.6005 N.am      22 UNK        -0.7600 
    123 O         -7.4814  -19.2324  -51.1544 O.2       22 UNK        -0.5000 
    124 C124       -5.7696  -17.2484  -49.7398 C.3       23 UNK        -0.0398 
    125 S125       -7.3329  -16.5343  -49.1188 S.3       23 UNK        -0.2404 
    126 C126       -6.7433  -15.0432  -48.2392 C.3       23 UNK        -0.0205 
    127 H127        1.7599   -7.1254  -44.4302 H         1 UNK         0.0600 
    128 H128        2.7620   -7.9672  -43.2421 H         1 UNK         0.0600 
    129 H129        1.0189   -7.8266  -42.9880 H         1 UNK         0.0600 
    130 H130       -0.0230   -9.7580  -43.3856 H         1 UNK         0.3000 
    131 H131        0.3262  -11.2245  -45.8172 H         1 UNK         0.0600 
    132 H132       -1.8405  -10.9520  -44.4650 H         1 UNK         0.0800 
    133 H133       -1.2311  -12.1461  -43.3507 H         1 UNK         0.0800 
    134 H134       -4.0507  -12.3027  -44.9951 H         1 UNK         0.0800 
    135 H135       -3.4570  -13.3393  -43.7216 H         1 UNK         0.0800 
    136 H136       -5.1506  -13.2649  -46.9863 H         1 UNK         0.1150 
    137 H137       -6.3887  -17.3675  -46.7233 H         1 UNK         0.1150 
    138 H138       -3.5674  -15.7958  -43.9214 H         1 UNK         0.1150 
    139 H139       -3.9920  -18.1140  -43.9239 H         1 UNK         0.0800 
    140 H140       -5.7383  -18.2352  -43.9528 H         1 UNK         0.0800 
    141 H141       -5.0319  -21.1623  -44.0821 H         1 UNK         0.0800 
    142 H142       -3.4751  -20.3905  -43.8848 H         1 UNK         0.0800 
    143 H143       -4.0956  -22.2260  -46.2353 H         1 UNK         0.0600 
    144 H144       -1.8521  -20.6289  -45.7839 H         1 UNK         0.3000 
    145 H145        0.6635  -22.7173  -47.2110 H         1 UNK         0.0600 
    146 H146       -0.8086  -20.4206  -48.5959 H         1 UNK         0.0600 
    147 H147        0.8796  -20.8459  -48.8774 H         1 UNK         0.0600 
    148 H148       -0.3869  -21.9860  -49.2869 H         1 UNK         0.0600 
    149 H149        0.8260  -19.9814  -46.6192 H         1 UNK         0.3000 
    150 H150        1.8052  -20.3349  -43.1806 H         1 UNK         0.0600 
    151 H151        3.7507  -20.8840  -44.6169 H         1 UNK         0.0600 
    152 H152        3.7621  -19.1821  -44.1809 H         1 UNK         0.0600 
    153 H153        3.2606  -19.6751  -45.7965 H         1 UNK         0.0600 
    154 H154        1.2411  -18.2993  -45.2783 H         1 UNK         0.3000 
    155 H155       -1.6321  -17.1376  -43.6337 H         1 UNK         0.0600 
    156 H156        0.1272  -15.9571  -42.2559 H         1 UNK         0.0600 
    157 H157       -0.5765  -14.9252  -43.4877 H         1 UNK         0.0600 
    158 H158        1.0222  -15.6263  -43.7367 H         1 UNK         0.0600 
    159 H159       -0.3031  -15.9481  -45.7910 H         1 UNK         0.3000 
    160 H160       -1.4315  -18.1544  -48.3928 H         1 UNK         0.0600 
    161 H161       -2.3083  -15.9915  -49.1744 H         1 UNK         0.0600 
    162 H162       -2.0291  -15.2598  -47.5966 H         1 UNK         0.0600 
    163 H163       -3.2297  -16.5315  -47.7825 H         1 UNK         0.0600 
    164 H164        0.1253  -15.9716  -48.8520 H         1 UNK         0.3000 
    165 H165        3.4044  -17.1027  -48.1992 H         1 UNK         0.0600 
    166 H166        1.8608  -16.9932  -50.8424 H         1 UNK         0.0600 
    167 H167        3.6110  -16.8891  -50.6606 H         1 UNK         0.0600 
    168 H168        2.7650  -18.3659  -50.2245 H         1 UNK         0.0600 
    169 H169        3.3441  -14.9323  -48.1454 H         1 UNK         0.3000 
    170 H170        2.2467  -12.4131  -49.9287 H         1 UNK         0.0600 
    171 H171        0.4009  -12.7926  -47.5286 H         1 UNK         0.0600 
    172 H172        0.9387  -11.2155  -48.1246 H         1 UNK         0.0600 
    173 H173       -0.0478  -12.2564  -49.1375 H         1 UNK         0.0600 
    174 H174        2.9277  -12.8407  -47.0566 H         1 UNK         0.3000 
    175 H175        6.4088  -12.6373  -47.7510 H         1 UNK         0.0600 
    176 H176        4.6980  -10.5618  -46.2891 H         1 UNK         0.0600 
    177 H177        6.4326  -10.8067  -46.0982 H         1 UNK         0.0600 
    178 H178        5.7923  -10.2086  -47.6215 H         1 UNK         0.0600 
    179 H179        5.1528  -12.7848  -45.2466 H         1 UNK         0.3000 
    180 H180        4.6874  -16.3062  -45.0852 H         1 UNK         0.0600 
    181 H181        6.8480  -14.4909  -43.8960 H         1 UNK         0.0600 
    182 H182        7.1213  -15.9636  -44.8137 H         1 UNK         0.0600 
    183 H183        6.3304  -16.0464  -43.2472 H         1 UNK         0.0600 
    184 H184        3.2296  -15.3260  -43.8073 H         1 UNK         0.3000 
    185 H185        2.2473  -14.1980  -42.2857 H         1 UNK         0.0600 
    186 H186        2.2817  -12.5738  -40.4510 H         1 UNK         0.0600 
    187 H187        3.8612  -13.3308  -40.5782 H         1 UNK         0.0600 
    188 H188        3.6229  -11.6975  -41.1881 H         1 UNK         0.0600 
    189 H189        1.5409  -11.5550  -42.5594 H         1 UNK         0.3000 
    190 H190       -1.4640  -22.9078  -44.0151 H         1 UNK         0.3000 
    191 H191       -2.7847  -24.8595  -42.3816 H         1 UNK         0.0600 
    192 H192        0.1743  -24.5713  -43.1302 H         1 UNK         0.0600 
    193 H193       -0.6183  -23.7700  -41.7736 H         1 UNK         0.0600 
    194 H194       -0.4650  -25.5203  -41.7947 H         1 UNK         0.0600 
    195 H195       -1.6862  -24.9344  -45.6843 H         1 UNK         0.3000 
    196 H196       -2.1115  -27.8863  -45.8957 H         1 UNK         0.0600 
    197 H197        0.2253  -27.1522  -46.4414 H         1 UNK         0.0600 
    198 H198       -0.4054  -26.0184  -47.6331 H         1 UNK         0.0600 
    199 H199       -0.6072  -27.7534  -47.8638 H         1 UNK         0.0600 
    200 H200       -4.0613  -25.5181  -45.8914 H         1 UNK         0.3000 
    201 H201       -5.8787  -24.7777  -46.9149 H         1 UNK         0.0600 
    202 H202       -7.1991  -26.3562  -48.2824 H         1 UNK         0.0600 
    203 H203       -6.4912  -27.2003  -46.9150 H         1 UNK         0.0600 
    204 H204       -5.7967  -27.3872  -48.5244 H         1 UNK         0.0600 
    205 H205       -3.6260  -23.6181  -47.8102 H         1 UNK         0.3000 
    206 H206       -2.7563  -22.2335  -49.2954 H         1 UNK         0.0600 
    207 H207       -5.0011  -21.3112  -49.6999 H         1 UNK         0.0600 
    208 H208       -5.3132  -22.5205  -50.9412 H         1 UNK         0.0600 
    209 H209       -4.0540  -21.3161  -51.1754 H         1 UNK         0.0600 
    210 H210       -1.9256  -24.7887  -49.2235 H         1 UNK         0.3000 
    211 H211       -0.7904  -26.4332  -50.1937 H         1 UNK         0.0600 
    212 H212        0.6152  -24.5279  -51.0509 H         1 UNK         0.0600 
    213 H213        0.6405  -25.9170  -52.1264 H         1 UNK         0.0600 
    214 H214       -0.3316  -24.5135  -52.5388 H         1 UNK         0.0600 
    215 H215       -3.3866  -26.8330  -50.3072 H         1 UNK         0.3000 
    216 H216       -5.1725  -27.7631  -51.2150 H         1 UNK         0.0600 
    217 H217       -4.8877  -29.6116  -52.8255 H         1 UNK         0.0600 
    218 H218       -3.2627  -29.0736  -53.2234 H         1 UNK         0.0600 
    219 H219       -3.6235  -29.6816  -51.6084 H         1 UNK         0.0600 
    220 H220       -5.0862  -25.2508  -51.7846 H         1 UNK         0.3000 
    221 H221       -5.7609  -23.5425  -53.0005 H         1 UNK         0.0600 
    222 H222       -7.3766  -25.6133  -54.5724 H         1 UNK         0.0600 
    223 H223       -7.8486  -24.9030  -53.0293 H         1 UNK         0.0600 
    224 H224       -7.7209  -23.8923  -54.4587 H         1 UNK         0.0600 
    225 H225       -3.2510  -24.2324  -53.7268 H         1 UNK         0.3000 
    226 H226       -3.1193  -23.6545  -56.6740 H         1 UNK         0.0600 
    227 H227       -2.2279  -25.9282  -56.0591 H         1 UNK         0.0600 
    228 H228       -0.9840  -24.8599  -56.6948 H         1 UNK         0.0600 
    229 H229       -1.0772  -25.1623  -54.9654 H         1 UNK         0.0600 
    230 H230       -2.1431  -22.7124  -53.4132 H         1 UNK         0.3000 
    231 H231       -0.2081  -20.6919  -54.4020 H         1 UNK         0.0600 
    232 H232        0.4140  -20.5189  -52.0291 H         1 UNK         0.0600 
    233 H233        0.3774  -22.2145  -52.4562 H         1 UNK         0.0600 
    234 H234       -0.9568  -21.5060  -51.5460 H         1 UNK         0.0600 
    235 H235       -0.4361  -18.7253  -52.6538 H         1 UNK         0.3000 
    236 H236       -2.5381  -17.0590  -53.4748 H         1 UNK         0.0600 
    237 H237       -0.3720  -16.2285  -52.5934 H         1 UNK         0.0600 
    238 H238       -1.6880  -15.5804  -51.6291 H         1 UNK         0.0600 
    239 H239       -0.7231  -16.9132  -51.0084 H         1 UNK         0.0600 
    240 H240       -4.5265  -16.6323  -52.7275 H         1 UNK         0.3000 
    241 H241       -6.4428  -16.7585  -51.7242 H         1 UNK         0.0600 
    242 H242       -6.3257  -20.4980  -52.8502 H         1 UNK         0.3800 
    243 H243       -4.9768  -19.4094  -53.0203 H         1 UNK         0.3800 
    244 H244       -5.5448  -18.1633  -49.1884 H         1 UNK         0.0800 
    245 H245       -4.9666  -16.5554  -49.4892 H         1 UNK         0.0800 
    246 H246       -7.6144  -14.4726  -47.9152 H         1 UNK         0.0800 
    247 H247       -6.2102  -14.4126  -48.9525 H         1 UNK         0.0800 
@<TRIPOS>BOND
     1    1    2 1    
     2    1  127 1    
     3    1  128 1    
     4    1  129 1    
     5    2    3 2    
     6    2    4 am   BACKBONE|DICT|INTERRES
     7    4    5 1    
     8    4  130 1    
     9    5    6 1    
    10    5   65 1    
    11    5  131 1    
    12    6    7 1    
    13    6  132 1    
    14    6  133 1    
    15    7    8 1    
    16    8    9 1    
    17    8  134 1    
    18    8  135 1    
    19    9   10 ar   
    20    9   14 ar   
    21   10   11 ar   
    22   10  136 1    
    23   11   12 ar   
    24   11  126 1    
    25   12   13 ar   
    26   12  137 1    
    27   13   14 ar   
    28   13   15 1    
    29   14  138 1    
    30   15   16 1    
    31   15  139 1    
    32   15  140 1    
    33   16   17 1    
    34   17   18 1    
    35   17  141 1    
    36   17  142 1    
    37   18   19 1    
    38   18   67 1    
    39   18  143 1    
    40   19   20 am   BACKBONE|DICT|INTERRES
    41   19  144 1    
    42   20   21 2    
    43   20   22 1    
    44   22   23 1    
    45   22   24 1    
    46   22  145 1    
    47   23  146 1    
    48   23  147 1    
    49   23  148 1    
    50   24   25 am   BACKBONE|DICT|INTERRES
    51   24  149 1    
    52   25   26 2    
    53   25   27 1    
    54   27   28 1    
    55   27   29 1    
    56   27  150 1    
    57   28  151 1    
    58   28  152 1    
    59   28  153 1    
    60   29   30 am   BACKBONE|DICT|INTERRES
    61   29  154 1    
    62   30   31 2    
    63   30   32 1    
    64   32   33 1    
    65   32   34 1    
    66   32  155 1    
    67   33  156 1    
    68   33  157 1    
    69   33  158 1    
    70   34   35 am   BACKBONE|DICT|INTERRES
    71   34  159 1    
    72   35   36 2    
    73   35   37 1    
    74   37   38 1    
    75   37   39 1    
    76   37  160 1    
    77   38  161 1    
    78   38  162 1    
    79   38  163 1    
    80   39   40 am   BACKBONE|DICT|INTERRES
    81   39  164 1    
    82   40   41 2    
    83   40   42 1    
    84   42   43 1    
    85   42   44 1    
    86   42  165 1    
    87   43  166 1    
    88   43  167 1    
    89   43  168 1    
    90   44   45 am   BACKBONE|DICT|INTERRES
    91   44  169 1    
    92   45   46 2    
    93   45   47 1    
    94   47   48 1    
    95   47   49 1    
    96   47  170 1    
    97   48  171 1    
    98   48  172 1    
    99   48  173 1    
   100   49   50 am   BACKBONE|DICT|INTERRES
   101   49  174 1    
   102   50   51 2    
   103   50   52 1    
   104   52   53 1    
   105   52   54 1    
   106   52  175 1    
   107   53  176 1    
   108   53  177 1    
   109   53  178 1    
   110   54   55 am   BACKBONE|DICT|INTERRES
   111   54  179 1    
   112   55   56 2    
   113   55   57 1    
   114   57   58 1    
   115   57   59 1    
   116   57  180 1    
   117   58  181 1    
   118   58  182 1    
   119   58  183 1    
   120   59   60 am   BACKBONE|DICT|INTERRES
   121   59  184 1    
   122   60   61 2    
   123   60   62 1    
   124   62   63 1    
   125   62   64 1    
   126   62  185 1    
   127   63  186 1    
   128   63  187 1    
   129   63  188 1    
   130   64   65 am   BACKBONE|DICT|INTERRES
   131   64  189 1    
   132   65   66 2    
   133   67   68 2    
   134   67   69 am   BACKBONE|DICT|INTERRES
   135   69   70 1    
   136   69  190 1    
   137   70   71 1    
   138   70   72 1    
   139   70  191 1    
   140   71  192 1    
   141   71  193 1    
   142   71  194 1    
   143   72   73 2    
   144   72   74 am   BACKBONE|DICT|INTERRES
   145   74   75 1    
   146   74  195 1    
   147   75   76 1    
   148   75   77 1    
   149   75  196 1    
   150   76  197 1    
   151   76  198 1    
   152   76  199 1    
   153   77   78 2    
   154   77   79 am   BACKBONE|DICT|INTERRES
   155   79   80 1    
   156   79  200 1    
   157   80   81 1    
   158   80   82 1    
   159   80  201 1    
   160   81  202 1    
   161   81  203 1    
   162   81  204 1    
   163   82   83 2    
   164   82   84 am   BACKBONE|DICT|INTERRES
   165   84   85 1    
   166   84  205 1    
   167   85   86 1    
   168   85   87 1    
   169   85  206 1    
   170   86  207 1    
   171   86  208 1    
   172   86  209 1    
   173   87   88 2    
   174   87   89 am   BACKBONE|DICT|INTERRES
   175   89   90 1    
   176   89  210 1    
   177   90   91 1    
   178   90   92 1    
   179   90  211 1    
   180   91  212 1    
   181   91  213 1    
   182   91  214 1    
   183   92   93 2    
   184   92   94 am   BACKBONE|DICT|INTERRES
   185   94   95 1    
   186   94  215 1    
   187   95   96 1    
   188   95   97 1    
   189   95  216 1    
   190   96  217 1    
   191   96  218 1    
   192   96  219 1    
   193   97   98 2    
   194   97   99 am   BACKBONE|DICT|INTERRES
   195   99  100 1    
   196   99  220 1    
   197  100  101 1    
   198  100  102 1    
   199  100  221 1    
   200  101  222 1    
   201  101  223 1    
   202  101  224 1    
   203  102  103 2    
   204  102  104 am   BACKBONE|DICT|INTERRES
   205  104  105 1    
   206  104  225 1    
   207  105  106 1    
   208  105  107 1    
   209  105  226 1    
   210  106  227 1    
   211  106  228 1    
   212  106  229 1    
   213  107  108 2    
   214  107  109 am   BACKBONE|DICT|INTERRES
   215  109  110 1    
   216  109  230 1    
   217  110  111 1    
   218  110  112 1    
   219  110  231 1    
   220  111  232 1    
   221  111  233 1    
   222  111  234 1    
   223  112  113 2    
   224  112  114 am   BACKBONE|DICT|INTERRES
   225  114  115 1    
   226  114  235 1    
   227  115  116 1    
   228  115  117 1    
   229  115  236 1    
   230  116  237 1    
   231  116  238 1    
   232  116  239 1    
   233  117  118 2    
   234  117  119 am   BACKBONE|DICT|INTERRES
   235  119  120 1    
   236  119  240 1    
   237  120  121 1    
   238  120  124 1    
   239  120  241 1    
   240  121  122 am   BACKBONE|DICT|INTERRES
   241  121  123 2    
   242  122  242 1    
   243  122  243 1    
   244  124  125 1    
   245  124  244 1    
   246  124  245 1    
   247  125  126 1    
   248  126  246 1    
   249  126  247 1    
@<TRIPOS>SUBSTRUCTURE
     1 UNK         1 GROUP             0       ****    0 ROOT    
