@<TRIPOS>MOLECULE
3R540
247   249    1
SMALL
USER_CHARGES


@<TRIPOS>ATOM
      1 CA         -0.4694  -12.1335  -48.0905 C.3       0 UNK        -0.1800 
      2 C          -0.3534  -12.6205  -46.6530 C.2       0 UNK         0.5000 
      3 O           0.5576  -13.3792  -46.3247 O.2       0 UNK        -0.5000 
      4 N          -1.2962  -12.2206  -45.7953 N.am      1 UNK        -0.5000 
      5 CA         -1.3530  -12.6253  -44.3887 C.3       1 UNK         0.1400 
      6 C6         -2.7732  -12.4331  -43.7968 C.3       23 UNK        -0.0398 
      7 S7         -4.1454  -13.2981  -44.6554 S.3       23 UNK        -0.2404 
      8 C8         -3.3825  -14.7805  -45.3916 C.3       23 UNK        -0.0205 
      9 C9         -4.4084  -15.6336  -46.1174 C.ar      23 UNK        -0.0193 
     10 C10        -4.7940  -15.3077  -47.4215 C.ar      23 UNK        -0.1150 
     11 C11        -5.7386  -16.0855  -48.0971 C.ar      23 UNK        -0.0193 
     12 C12        -6.2923  -17.1996  -47.4607 C.ar      23 UNK        -0.1150 
     13 C13        -5.9041  -17.5439  -46.1625 C.ar      23 UNK        -0.0193 
     14 C14        -4.9648  -16.7537  -45.4932 C.ar      23 UNK        -0.1150 
     15 C15        -6.5093  -18.7640  -45.4834 C.3       23 UNK        -0.0205 
     16 S16        -6.0141  -20.3176  -46.2937 S.3       23 UNK        -0.2404 
     17 C17        -4.2265  -20.3520  -45.9373 C.3       23 UNK        -0.0398 
     18 CA         -3.5574  -21.6594  -46.4230 C.3       11 UNK         0.1400 
     19 N          -2.1170  -21.4900  -46.6551 N.am      11 UNK        -0.5000 
     20 C          -1.2818  -22.4294  -47.1248 C.2       10 UNK         0.5000 
     21 O          -1.6411  -23.5613  -47.4445 O.2       10 UNK        -0.5000 
     22 CA          0.2076  -22.0654  -47.2107 C.3       10 UNK         0.1400 
     23 CB          0.5034  -21.2393  -48.4713 C.3       10 UNK        -0.1800 
     24 N           0.6387  -21.3454  -46.0142 N.am      10 UNK        -0.5000 
     25 C           0.8219  -21.9273  -44.8196 C.2       9 UNK         0.5000 
     26 O           0.7624  -23.1429  -44.6352 O.2       9 UNK        -0.5000 
     27 CA          1.0721  -20.9923  -43.6224 C.3       9 UNK         0.1400 
     28 CB          2.5727  -20.7093  -43.4583 C.3       9 UNK        -0.1800 
     29 N           0.3432  -19.7275  -43.7397 N.am      9 UNK        -0.5000 
     30 C          -0.9913  -19.6179  -43.6404 C.2       8 UNK         0.5000 
     31 O          -1.7369  -20.5710  -43.4145 O.2       8 UNK        -0.5000 
     32 CA         -1.6058  -18.2238  -43.8831 C.3       8 UNK         0.1400 
     33 CB         -1.6831  -17.4398  -42.5643 C.3       8 UNK        -0.1800 
     34 N          -0.8739  -17.4332  -44.8740 N.am      8 UNK        -0.5000 
     35 C          -0.6551  -17.7991  -46.1456 C.2       7 UNK         0.5000 
     36 O          -1.1592  -18.7999  -46.6530 O.2       7 UNK        -0.5000 
     37 CA          0.3439  -16.9565  -46.9667 C.3       7 UNK         0.1400 
     38 CB         -0.3922  -16.1230  -48.0252 C.3       7 UNK        -0.1800 
     39 N           1.2031  -16.0831  -46.1556 N.am      7 UNK        -0.5000 
     40 C           2.0862  -16.5097  -45.2423 C.2       6 UNK         0.5000 
     41 O           2.2639  -17.7028  -44.9866 O.2       6 UNK        -0.5000 
     42 CA          2.8431  -15.4222  -44.4520 C.3       6 UNK         0.1400 
     43 CB          3.7938  -16.0174  -43.3925 C.3       6 UNK        -0.1800 
     44 N           3.5668  -14.4562  -45.2854 N.am      6 UNK        -0.5000 
     45 C           4.4925  -14.7126  -46.2217 C.2       5 UNK         0.5000 
     46 O           4.7859  -15.8471  -46.6018 O.2       5 UNK        -0.5000 
     47 CA          5.2868  -13.5110  -46.7798 C.3       5 UNK         0.1400 
     48 CB          5.5379  -13.6165  -48.2994 C.3       5 UNK        -0.1800 
     49 N           4.7622  -12.1923  -46.3971 N.am      5 UNK        -0.5000 
     50 C           3.6826  -11.5539  -46.8679 C.2       4 UNK         0.5000 
     51 O           2.9525  -12.0094  -47.7463 O.2       4 UNK        -0.5000 
     52 CA          3.3897  -10.1624  -46.2573 C.3       4 UNK         0.1400 
     53 CB          2.0587   -9.5579  -46.7375 C.3       4 UNK        -0.1800 
     54 N           3.4015  -10.1576  -44.7910 N.am      4 UNK        -0.5000 
     55 C           4.4980  -10.1527  -44.0204 C.2       3 UNK         0.5000 
     56 O           5.6407  -10.2018  -44.4782 O.2       3 UNK        -0.5000 
     57 CA          4.3081  -10.0944  -42.4912 C.3       3 UNK         0.1400 
     58 CB          4.6120   -8.6813  -41.9696 C.3       3 UNK        -0.1800 
     59 N           2.9800  -10.4927  -42.0194 N.am      3 UNK        -0.5000 
     60 C           2.4650  -11.7258  -42.1057 C.2       2 UNK         0.5000 
     61 O           3.0386  -12.6620  -42.6624 O.2       2 UNK        -0.5000 
     62 CA          1.0835  -11.9701  -41.4611 C.3       2 UNK         0.1400 
     63 CB          0.5078  -10.7536  -40.6994 C.3       2 UNK        -0.1800 
     64 N           0.1087  -12.4784  -42.4309 N.am      2 UNK        -0.5000 
     65 C          -0.2961  -11.8688  -43.5545 C.2       1 UNK         0.5000 
     66 O           0.1073  -10.7607  -43.9200 O.2       1 UNK        -0.5000 
     67 C          -3.8693  -22.8487  -45.4876 C.2       11 UNK         0.5000 
     68 O          -4.7536  -23.6485  -45.7959 O.2       11 UNK        -0.5000 
     69 N          -3.0742  -22.9954  -44.4178 N.am      12 UNK        -0.5000 
     70 CA         -3.1081  -24.1221  -43.4804 C.3       12 UNK         0.1400 
     71 CB         -2.1464  -23.8274  -42.3194 C.3       12 UNK        -0.1800 
     72 C          -2.7837  -25.4933  -44.1155 C.2       12 UNK         0.5000 
     73 O          -3.1801  -26.5192  -43.5624 O.2       12 UNK        -0.5000 
     74 N          -2.1027  -25.4914  -45.2688 N.am      13 UNK        -0.5000 
     75 CA         -1.7868  -26.6621  -46.0873 C.3       13 UNK         0.1400 
     76 CB         -0.3043  -26.5895  -46.4978 C.3       13 UNK        -0.1800 
     77 C          -2.7245  -26.7571  -47.3107 C.2       13 UNK         0.5000 
     78 O          -2.3128  -27.2575  -48.3587 O.2       13 UNK        -0.5000 
     79 N          -3.9615  -26.2540  -47.1712 N.am      14 UNK        -0.5000 
     80 CA         -5.0212  -26.2018  -48.1860 C.3       14 UNK         0.1400 
     81 CB         -5.4972  -27.6218  -48.5590 C.3       14 UNK        -0.1800 
     82 C          -4.6139  -25.3598  -49.4111 C.2       14 UNK         0.5000 
     83 O          -4.7871  -25.7920  -50.5516 O.2       14 UNK        -0.5000 
     84 N          -4.0312  -24.1841  -49.1370 N.am      15 UNK        -0.5000 
     85 CA         -3.4333  -23.2493  -50.0979 C.3       15 UNK         0.1400 
     86 CB         -4.5122  -22.6269  -51.0031 C.3       15 UNK        -0.1800 
     87 C          -2.2729  -23.9001  -50.8765 C.2       15 UNK         0.5000 
     88 O          -2.2010  -23.7800  -52.0993 O.2       15 UNK        -0.5000 
     89 N          -1.4159  -24.6208  -50.1373 N.am      16 UNK        -0.5000 
     90 CA         -0.3232  -25.4766  -50.6113 C.3       16 UNK         0.1400 
     91 CB          0.8277  -24.6177  -51.1733 C.3       16 UNK        -0.1800 
     92 C          -0.8210  -26.5432  -51.6095 C.2       16 UNK         0.5000 
     93 O          -0.2808  -26.6618  -52.7089 O.2       16 UNK        -0.5000 
     94 N          -1.8912  -27.2556  -51.2273 N.am      17 UNK        -0.5000 
     95 CA         -2.6641  -28.1929  -52.0535 C.3       17 UNK         0.1400 
     96 CB         -1.8558  -29.4812  -52.3103 C.3       17 UNK        -0.1800 
     97 C          -3.1900  -27.5352  -53.3511 C.2       17 UNK         0.5000 
     98 O          -3.0556  -28.0973  -54.4393 O.2       17 UNK        -0.5000 
     99 N          -3.7445  -26.3257  -53.1939 N.am      18 UNK        -0.5000 
    100 CA        -4.2619  -25.4085  -54.2147 C.3       18 UNK         0.1400 
    101 CB        -5.4456  -26.0415  -54.9741 C.3       18 UNK        -0.1800 
    102 C         -3.2068  -24.8127  -55.1750 C.2       18 UNK         0.5000 
    103 O         -3.5903  -24.1022  -56.1060 O.2       18 UNK        -0.5000 
    104 N         -1.9088  -25.0635  -54.9472 N.am      19 UNK        -0.5000 
    105 CA        -0.8173  -24.5238  -55.7644 C.3       19 UNK         0.1400 
    106 CB         0.4510  -25.3631  -55.5518 C.3       19 UNK        -0.1800 
    107 C         -0.5249  -23.0370  -55.4832 C.2       19 UNK         0.5000 
    108 O          0.0267  -22.3600  -56.3517 O.2       19 UNK        -0.5000 
    109 N         -0.8955  -22.5556  -54.2910 N.am      20 UNK        -0.5000 
    110 CA        -0.7131  -21.1826  -53.8261 C.3       20 UNK         0.1400 
    111 CB         0.2491  -21.1849  -52.6239 C.3       20 UNK        -0.1800 
    112 C         -2.0777  -20.5532  -53.4917 C.2       20 UNK         0.5000 
    113 O         -2.2060  -19.8535  -52.4856 O.2       20 UNK        -0.5000 
    114 N         -3.0836  -20.8265  -54.3352 N.am      21 UNK        -0.5000 
    115 CA        -4.4306  -20.2615  -54.2483 C.3       21 UNK         0.1400 
    116 CB        -5.3271  -20.9393  -55.2953 C.3       21 UNK        -0.1800 
    117 C         -4.4278  -18.7313  -54.4304 C.2       21 UNK         0.5000 
    118 O         -3.7458  -18.2225  -55.3241 O.2       21 UNK        -0.5000 
    119 N         -5.1852  -18.0364  -53.5754 N.am      22 UNK        -0.5000 
    120 CA        -5.3255  -16.5728  -53.5648 C.3       22 UNK         0.1400 
    121 C         -6.0603  -16.0301  -54.8227 C.2       22 UNK         0.5000 
    122 N         -5.6611  -14.8723  -55.3312 N.am      22 UNK        -0.7600 
    123 O         -7.0164  -16.6264  -55.3143 O.2       22 UNK        -0.5000 
    124 C124       -6.0324  -16.0813  -52.2758 C.3       23 UNK        -0.0398 
    125 S125       -5.1558  -16.5729  -50.7522 S.3       23 UNK        -0.2404 
    126 C126       -6.1712  -15.7208  -49.5082 C.3       23 UNK        -0.0205 
    127 H127       -0.4806  -12.9833  -48.7728 H         1 UNK         0.0600 
    128 H128        0.3804  -11.5031  -48.3480 H         1 UNK         0.0600 
    129 H129       -1.3812  -11.5577  -48.2503 H         1 UNK         0.0600 
    130 H130       -2.0121  -11.5763  -46.0978 H         1 UNK         0.3000 
    131 H131       -1.0993  -13.6853  -44.3286 H         1 UNK         0.0600 
    132 H132       -3.0256  -11.3715  -43.7694 H         1 UNK         0.0800 
    133 H133       -2.7913  -12.7669  -42.7579 H         1 UNK         0.0800 
    134 H134       -2.6112  -14.4940  -46.1026 H         1 UNK         0.0800 
    135 H135       -2.8921  -15.3614  -44.6120 H         1 UNK         0.0800 
    136 H136       -4.3625  -14.4440  -47.9080 H         1 UNK         0.1150 
    137 H137       -7.0199  -17.8079  -47.9798 H         1 UNK         0.1150 
    138 H138       -4.6685  -17.0073  -44.4853 H         1 UNK         0.1150 
    139 H139       -6.2339  -18.8031  -44.4283 H         1 UNK         0.0800 
    140 H140       -7.5967  -18.6827  -45.5127 H         1 UNK         0.0800 
    141 H141       -4.0633  -20.1931  -44.8705 H         1 UNK         0.0800 
    142 H142       -3.7827  -19.4957  -46.4473 H         1 UNK         0.0800 
    143 H143       -3.9836  -21.9007  -47.3975 H         1 UNK         0.0600 
    144 H144       -1.7401  -20.5613  -46.4817 H         1 UNK         0.3000 
    145 H145        0.7749  -22.9962  -47.2815 H         1 UNK         0.0600 
    146 H146       -0.0385  -20.2940  -48.4823 H         1 UNK         0.0600 
    147 H147        1.5671  -21.0170  -48.5560 H         1 UNK         0.0600 
    148 H148        0.2143  -21.7886  -49.3676 H         1 UNK         0.0600 
    149 H149        0.6747  -20.3383  -46.0733 H         1 UNK         0.3000 
    150 H150        0.7228  -21.5032  -42.7225 H         1 UNK         0.0600 
    151 H151        3.1275  -21.6346  -43.2982 H         1 UNK         0.0600 
    152 H152        2.7620  -20.0632  -42.6009 H         1 UNK         0.0600 
    153 H153        2.9915  -20.2257  -44.3414 H         1 UNK         0.0600 
    154 H154        0.8951  -18.9110  -43.9799 H         1 UNK         0.3000 
    155 H155       -2.6199  -18.3682  -44.2574 H         1 UNK         0.0600 
    156 H156       -2.2306  -18.0042  -41.8082 H         1 UNK         0.0600 
    157 H157       -2.2008  -16.4899  -42.6909 H         1 UNK         0.0600 
    158 H158       -0.6911  -17.2308  -42.1617 H         1 UNK         0.0600 
    159 H159       -0.4034  -16.6073  -44.5386 H         1 UNK         0.3000 
    160 H160        0.9964  -17.6595  -47.4883 H         1 UNK         0.0600 
    161 H161       -1.0802  -15.4120  -47.5713 H         1 UNK         0.0600 
    162 H162       -0.9760  -16.7620  -48.6892 H         1 UNK         0.0600 
    163 H163        0.3088  -15.5637  -48.6449 H         1 UNK         0.0600 
    164 H164        1.0885  -15.0779  -46.2911 H         1 UNK         0.3000 
    165 H165        2.0785  -14.8527  -43.9222 H         1 UNK         0.0600 
    166 H166        4.5838  -16.6151  -43.8485 H         1 UNK         0.0600 
    167 H167        4.2659  -15.2320  -42.8022 H         1 UNK         0.0600 
    168 H168        3.2537  -16.6621  -42.6980 H         1 UNK         0.0600 
    169 H169        3.3915  -13.4867  -45.0600 H         1 UNK         0.3000 
    170 H170        6.2634  -13.5709  -46.2975 H         1 UNK         0.0600 
    171 H171        4.6070  -13.6842  -48.8627 H         1 UNK         0.0600 
    172 H172        6.0957  -12.7565  -48.6699 H         1 UNK         0.0600 
    173 H173        6.1219  -14.5063  -48.5367 H         1 UNK         0.0600 
    174 H174        5.2932  -11.7036  -45.6818 H         1 UNK         0.3000 
    175 H175        4.1851   -9.5018  -46.6087 H         1 UNK         0.0600 
    176 H176        1.2065  -10.1399  -46.3888 H         1 UNK         0.0600 
    177 H177        1.9358   -8.5387  -46.3708 H         1 UNK         0.0600 
    178 H178        2.0112   -9.5159  -47.8263 H         1 UNK         0.0600 
    179 H179        2.4972  -10.1671  -44.3370 H         1 UNK         0.3000 
    180 H180        5.0350  -10.7815  -42.0531 H         1 UNK         0.0600 
    181 H181        5.6097   -8.3582  -42.2700 H         1 UNK         0.0600 
    182 H182        4.5763   -8.6456  -40.8805 H         1 UNK         0.0600 
    183 H183        3.9005   -7.9496  -42.3544 H         1 UNK         0.0600 
    184 H184        2.4305   -9.7760  -41.5679 H         1 UNK         0.3000 
    185 H185        1.2341  -12.7675  -40.7320 H         1 UNK         0.0600 
    186 H186       -0.4408  -11.0075  -40.2261 H         1 UNK         0.0600 
    187 H187        1.1811  -10.4304  -39.9045 H         1 UNK         0.0600 
    188 H188        0.3280   -9.9002  -41.3540 H         1 UNK         0.0600 
    189 H189       -0.2589  -13.3950  -42.2195 H         1 UNK         0.3000 
    190 H190       -2.4010  -22.2630  -44.2126 H         1 UNK         0.3000 
    191 H191       -4.1210  -24.1843  -43.0778 H         1 UNK         0.0600 
    192 H192       -1.1175  -23.7288  -42.6668 H         1 UNK         0.0600 
    193 H193       -2.4165  -22.9033  -41.8078 H         1 UNK         0.0600 
    194 H194       -2.1684  -24.6273  -41.5782 H         1 UNK         0.0600 
    195 H195       -1.8525  -24.6008  -45.6826 H         1 UNK         0.3000 
    196 H196       -1.9288  -27.5764  -45.5084 H         1 UNK         0.0600 
    197 H197        0.3418  -26.5154  -45.6229 H         1 UNK         0.0600 
    198 H198       -0.1016  -25.7275  -47.1336 H         1 UNK         0.0600 
    199 H199       -0.0029  -27.4821  -47.0472 H         1 UNK         0.0600 
    200 H200       -4.1850  -25.7977  -46.2959 H         1 UNK         0.3000 
    201 H201       -5.8629  -25.6824  -47.7256 H         1 UNK         0.0600 
    202 H202       -6.3613  -27.5807  -49.2230 H         1 UNK         0.0600 
    203 H203       -5.7957  -28.1822  -47.6732 H         1 UNK         0.0600 
    204 H204       -4.7213  -28.1919  -49.0705 H         1 UNK         0.0600 
    205 H205       -3.8683  -23.9711  -48.1624 H         1 UNK         0.3000 
    206 H206       -2.9915  -22.4342  -49.5260 H         1 UNK         0.0600 
    207 H207       -5.2911  -22.1443  -50.4129 H         1 UNK         0.0600 
    208 H208       -4.9875  -23.3650  -51.6478 H         1 UNK         0.0600 
    209 H209       -4.0718  -21.8651  -51.6425 H         1 UNK         0.0600 
    210 H210       -1.5676  -24.6207  -49.1340 H         1 UNK         0.3000 
    211 H211        0.0538  -26.0149  -49.7406 H         1 UNK         0.0600 
    212 H212        1.1560  -23.8724  -50.4493 H         1 UNK         0.0600 
    213 H213        1.6915  -25.2369  -51.4170 H         1 UNK         0.0600 
    214 H214        0.5350  -24.0968  -52.0849 H         1 UNK         0.0600 
    215 H215       -2.2367  -27.1148  -50.2811 H         1 UNK         0.3000 
    216 H216       -3.5440  -28.4639  -51.4684 H         1 UNK         0.0600 
    217 H217       -2.4616  -30.2250  -52.8290 H         1 UNK         0.0600 
    218 H218       -0.9742  -29.2919  -52.9234 H         1 UNK         0.0600 
    219 H219       -1.5233  -29.9295  -51.3741 H         1 UNK         0.0600 
    220 H220       -3.8371  -25.9859  -52.2401 H         1 UNK         0.3000 
    221 H221       -4.6554  -24.5566  -53.6602 H         1 UNK         0.0600 
    222 H222       -5.1246  -26.8644  -55.6130 H         1 UNK         0.0600 
    223 H223       -6.1972  -26.4243  -54.2836 H         1 UNK         0.0600 
    224 H224       -5.9390  -25.3080  -55.6128 H         1 UNK         0.0600 
    225 H225       -1.6460  -25.6286  -54.1483 H         1 UNK         0.3000 
    226 H226       -1.1016  -24.6123  -56.8151 H         1 UNK         0.0600 
    227 H227        0.2538  -26.4262  -55.6908 H         1 UNK         0.0600 
    228 H228        1.2272  -25.0788  -56.2631 H         1 UNK         0.0600 
    229 H229        0.8626  -25.2232  -54.5519 H         1 UNK         0.0600 
    230 H230       -1.3777  -23.1706  -53.6366 H         1 UNK         0.3000 
    231 H231       -0.2712  -20.5657  -54.6108 H         1 UNK         0.0600 
    232 H232        0.4647  -20.1693  -52.2900 H         1 UNK         0.0600 
    233 H233        1.2006  -21.6507  -52.8805 H         1 UNK         0.0600 
    234 H234       -0.1726  -21.7269  -51.7776 H         1 UNK         0.0600 
    235 H235       -2.8906  -21.4108  -55.1356 H         1 UNK         0.3000 
    236 H236       -4.8321  -20.4908  -53.2607 H         1 UNK         0.0600 
    237 H237       -5.3860  -22.0150  -55.1274 H         1 UNK         0.0600 
    238 H238       -6.3440  -20.5470  -55.2519 H         1 UNK         0.0600 
    239 H239       -4.9553  -20.7776  -56.3079 H         1 UNK         0.0600 
    240 H240       -5.7156  -18.5298  -52.8732 H         1 UNK         0.3000 
    241 H241       -4.3151  -16.1583  -53.5683 H         1 UNK         0.0600 
    242 H242       -6.1390  -14.5012  -56.1381 H         1 UNK         0.3800 
    243 H243       -4.8836  -14.3614  -54.9413 H         1 UNK         0.3800 
    244 H244       -6.1123  -14.9926  -52.2811 H         1 UNK         0.0800 
    245 H245       -7.0533  -16.4650  -52.2299 H         1 UNK         0.0800 
    246 H246       -7.2206  -15.9834  -49.6519 H         1 UNK         0.0800 
    247 H247       -6.0994  -14.6422  -49.6571 H         1 UNK         0.0800 
@<TRIPOS>BOND
     1    1    2 1    
     2    1  127 1    
     3    1  128 1    
     4    1  129 1    
     5    2    3 2    
     6    2    4 am   BACKBONE|DICT|INTERRES
     7    4    5 1    
     8    4  130 1    
     9    5    6 1    
    10    5   65 1    
    11    5  131 1    
    12    6    7 1    
    13    6  132 1    
    14    6  133 1    
    15    7    8 1    
    16    8    9 1    
    17    8  134 1    
    18    8  135 1    
    19    9   10 ar   
    20    9   14 ar   
    21   10   11 ar   
    22   10  136 1    
    23   11   12 ar   
    24   11  126 1    
    25   12   13 ar   
    26   12  137 1    
    27   13   14 ar   
    28   13   15 1    
    29   14  138 1    
    30   15   16 1    
    31   15  139 1    
    32   15  140 1    
    33   16   17 1    
    34   17   18 1    
    35   17  141 1    
    36   17  142 1    
    37   18   19 1    
    38   18   67 1    
    39   18  143 1    
    40   19   20 am   BACKBONE|DICT|INTERRES
    41   19  144 1    
    42   20   21 2    
    43   20   22 1    
    44   22   23 1    
    45   22   24 1    
    46   22  145 1    
    47   23  146 1    
    48   23  147 1    
    49   23  148 1    
    50   24   25 am   BACKBONE|DICT|INTERRES
    51   24  149 1    
    52   25   26 2    
    53   25   27 1    
    54   27   28 1    
    55   27   29 1    
    56   27  150 1    
    57   28  151 1    
    58   28  152 1    
    59   28  153 1    
    60   29   30 am   BACKBONE|DICT|INTERRES
    61   29  154 1    
    62   30   31 2    
    63   30   32 1    
    64   32   33 1    
    65   32   34 1    
    66   32  155 1    
    67   33  156 1    
    68   33  157 1    
    69   33  158 1    
    70   34   35 am   BACKBONE|DICT|INTERRES
    71   34  159 1    
    72   35   36 2    
    73   35   37 1    
    74   37   38 1    
    75   37   39 1    
    76   37  160 1    
    77   38  161 1    
    78   38  162 1    
    79   38  163 1    
    80   39   40 am   BACKBONE|DICT|INTERRES
    81   39  164 1    
    82   40   41 2    
    83   40   42 1    
    84   42   43 1    
    85   42   44 1    
    86   42  165 1    
    87   43  166 1    
    88   43  167 1    
    89   43  168 1    
    90   44   45 am   BACKBONE|DICT|INTERRES
    91   44  169 1    
    92   45   46 2    
    93   45   47 1    
    94   47   48 1    
    95   47   49 1    
    96   47  170 1    
    97   48  171 1    
    98   48  172 1    
    99   48  173 1    
   100   49   50 am   BACKBONE|DICT|INTERRES
   101   49  174 1    
   102   50   51 2    
   103   50   52 1    
   104   52   53 1    
   105   52   54 1    
   106   52  175 1    
   107   53  176 1    
   108   53  177 1    
   109   53  178 1    
   110   54   55 am   BACKBONE|DICT|INTERRES
   111   54  179 1    
   112   55   56 2    
   113   55   57 1    
   114   57   58 1    
   115   57   59 1    
   116   57  180 1    
   117   58  181 1    
   118   58  182 1    
   119   58  183 1    
   120   59   60 am   BACKBONE|DICT|INTERRES
   121   59  184 1    
   122   60   61 2    
   123   60   62 1    
   124   62   63 1    
   125   62   64 1    
   126   62  185 1    
   127   63  186 1    
   128   63  187 1    
   129   63  188 1    
   130   64   65 am   BACKBONE|DICT|INTERRES
   131   64  189 1    
   132   65   66 2    
   133   67   68 2    
   134   67   69 am   BACKBONE|DICT|INTERRES
   135   69   70 1    
   136   69  190 1    
   137   70   71 1    
   138   70   72 1    
   139   70  191 1    
   140   71  192 1    
   141   71  193 1    
   142   71  194 1    
   143   72   73 2    
   144   72   74 am   BACKBONE|DICT|INTERRES
   145   74   75 1    
   146   74  195 1    
   147   75   76 1    
   148   75   77 1    
   149   75  196 1    
   150   76  197 1    
   151   76  198 1    
   152   76  199 1    
   153   77   78 2    
   154   77   79 am   BACKBONE|DICT|INTERRES
   155   79   80 1    
   156   79  200 1    
   157   80   81 1    
   158   80   82 1    
   159   80  201 1    
   160   81  202 1    
   161   81  203 1    
   162   81  204 1    
   163   82   83 2    
   164   82   84 am   BACKBONE|DICT|INTERRES
   165   84   85 1    
   166   84  205 1    
   167   85   86 1    
   168   85   87 1    
   169   85  206 1    
   170   86  207 1    
   171   86  208 1    
   172   86  209 1    
   173   87   88 2    
   174   87   89 am   BACKBONE|DICT|INTERRES
   175   89   90 1    
   176   89  210 1    
   177   90   91 1    
   178   90   92 1    
   179   90  211 1    
   180   91  212 1    
   181   91  213 1    
   182   91  214 1    
   183   92   93 2    
   184   92   94 am   BACKBONE|DICT|INTERRES
   185   94   95 1    
   186   94  215 1    
   187   95   96 1    
   188   95   97 1    
   189   95  216 1    
   190   96  217 1    
   191   96  218 1    
   192   96  219 1    
   193   97   98 2    
   194   97   99 am   BACKBONE|DICT|INTERRES
   195   99  100 1    
   196   99  220 1    
   197  100  101 1    
   198  100  102 1    
   199  100  221 1    
   200  101  222 1    
   201  101  223 1    
   202  101  224 1    
   203  102  103 2    
   204  102  104 am   BACKBONE|DICT|INTERRES
   205  104  105 1    
   206  104  225 1    
   207  105  106 1    
   208  105  107 1    
   209  105  226 1    
   210  106  227 1    
   211  106  228 1    
   212  106  229 1    
   213  107  108 2    
   214  107  109 am   BACKBONE|DICT|INTERRES
   215  109  110 1    
   216  109  230 1    
   217  110  111 1    
   218  110  112 1    
   219  110  231 1    
   220  111  232 1    
   221  111  233 1    
   222  111  234 1    
   223  112  113 2    
   224  112  114 am   BACKBONE|DICT|INTERRES
   225  114  115 1    
   226  114  235 1    
   227  115  116 1    
   228  115  117 1    
   229  115  236 1    
   230  116  237 1    
   231  116  238 1    
   232  116  239 1    
   233  117  118 2    
   234  117  119 am   BACKBONE|DICT|INTERRES
   235  119  120 1    
   236  119  240 1    
   237  120  121 1    
   238  120  124 1    
   239  120  241 1    
   240  121  122 am   BACKBONE|DICT|INTERRES
   241  121  123 2    
   242  122  242 1    
   243  122  243 1    
   244  124  125 1    
   245  124  244 1    
   246  124  245 1    
   247  125  126 1    
   248  126  246 1    
   249  126  247 1    
@<TRIPOS>SUBSTRUCTURE
     1 UNK         1 GROUP             0       ****    0 ROOT    
