@<TRIPOS>MOLECULE
3R540
247   249    1
SMALL
USER_CHARGES


@<TRIPOS>ATOM
      1 CA         -4.2013   -8.9829  -43.5472 C.3       0 UNK        -0.1800 
      2 C          -3.0840   -9.7506  -44.2399 C.2       0 UNK         0.5000 
      3 O          -1.9962   -9.8884  -43.6800 O.2       0 UNK        -0.5000 
      4 N          -3.3441  -10.2396  -45.4576 N.am      1 UNK        -0.5000 
      5 CA         -2.4302  -11.0734  -46.2434 C.3       1 UNK         0.1400 
      6 C6         -2.7986  -11.0412  -47.7508 C.3       23 UNK        -0.0398 
      7 S7         -4.5057  -11.5673  -48.1377 S.3       23 UNK        -0.2404 
      8 C8         -4.2903  -12.3054  -49.7884 C.3       23 UNK        -0.0205 
      9 C9         -3.6590  -13.6897  -49.7317 C.ar      23 UNK        -0.0193 
     10 C10        -2.3214  -13.8802  -50.0971 C.ar      23 UNK        -0.1150 
     11 C11        -1.7636  -15.1623  -50.0936 C.ar      23 UNK        -0.0193 
     12 C12        -2.5479  -16.2531  -49.7150 C.ar      23 UNK        -0.1150 
     13 C13        -3.8808  -16.0766  -49.3403 C.ar      23 UNK        -0.0193 
     14 C14        -4.4313  -14.7919  -49.3515 C.ar      23 UNK        -0.1150 
     15 C15        -4.7336  -17.2752  -48.9550 C.3       23 UNK        -0.0205 
     16 S16        -4.8125  -17.5124  -47.1527 S.3       23 UNK        -0.2404 
     17 C17        -3.1889  -18.2648  -46.7832 C.3       23 UNK        -0.0398 
     18 CA         -3.1787  -19.8070  -46.9254 C.3       11 UNK         0.1400 
     19 N          -1.8195  -20.3552  -46.8940 N.am      11 UNK        -0.5000 
     20 C          -1.5036  -21.6411  -47.1073 C.2       10 UNK         0.5000 
     21 O          -2.3222  -22.4978  -47.4367 O.2       10 UNK        -0.5000 
     22 CA         -0.0399  -22.0540  -46.8699 C.3       10 UNK         0.1400 
     23 CB          0.8345  -21.7133  -48.0851 C.3       10 UNK        -0.1800 
     24 N           0.5204  -21.4507  -45.6597 N.am      10 UNK        -0.5000 
     25 C           0.0688  -21.6949  -44.4203 C.2       9 UNK         0.5000 
     26 O          -0.8202  -22.5062  -44.1673 O.2       9 UNK        -0.5000 
     27 CA          0.6662  -20.8571  -43.2766 C.3       9 UNK         0.1400 
     28 CB          2.0112  -21.4376  -42.8162 C.3       9 UNK        -0.1800 
     29 N           0.8269  -19.4493  -43.6404 N.am      9 UNK        -0.5000 
     30 C          -0.1835  -18.6222  -43.9457 C.2       8 UNK         0.5000 
     31 O          -1.3702  -18.9442  -43.8891 O.2       8 UNK        -0.5000 
     32 CA          0.1956  -17.2223  -44.4610 C.3       8 UNK         0.1400 
     33 CB          0.5353  -16.2757  -43.3013 C.3       8 UNK        -0.1800 
     34 N           1.3125  -17.2686  -45.4037 N.am      8 UNK        -0.5000 
     35 C           1.2583  -17.8436  -46.6133 C.2       7 UNK         0.5000 
     36 O           0.2371  -18.3414  -47.0860 O.2       7 UNK        -0.5000 
     37 CA          2.5749  -17.9190  -47.4058 C.3       7 UNK         0.1400 
     38 CB          2.8269  -16.6309  -48.1997 C.3       7 UNK        -0.1800 
     39 N           3.7211  -18.1835  -46.5384 N.am      7 UNK        -0.5000 
     40 C           3.9578  -19.3588  -45.9412 C.2       6 UNK         0.5000 
     41 O           3.2480  -20.3538  -46.0858 O.2       6 UNK        -0.5000 
     42 CA          5.1688  -19.4140  -44.9926 C.3       6 UNK         0.1400 
     43 CB          6.4649  -19.6540  -45.7808 C.3       6 UNK        -0.1800 
     44 N           5.3067  -18.1983  -44.1873 N.am      6 UNK        -0.5000 
     45 C           4.4375  -17.8215  -43.2391 C.2       5 UNK         0.5000 
     46 O           3.4375  -18.4693  -42.9347 O.2       5 UNK        -0.5000 
     47 CA          4.7057  -16.4759  -42.5422 C.3       5 UNK         0.1400 
     48 CB          5.6701  -16.6630  -41.3616 C.3       5 UNK        -0.1800 
     49 N           5.2284  -15.4417  -43.4390 N.am      5 UNK        -0.5000 
     50 C           4.5739  -14.9498  -44.4985 C.2       4 UNK         0.5000 
     51 O           3.4834  -15.3720  -44.8906 O.2       4 UNK        -0.5000 
     52 CA          5.2706  -13.8217  -45.2733 C.3       4 UNK         0.1400 
     53 CB          5.8452  -14.3478  -46.5976 C.3       4 UNK        -0.1800 
     54 N           4.3210  -12.7473  -45.5509 N.am      4 UNK        -0.5000 
     55 C           4.0183  -11.7633  -44.6930 C.2       3 UNK         0.5000 
     56 O           4.5690  -11.6139  -43.6013 O.2       3 UNK        -0.5000 
     57 CA          2.9148  -10.7783  -45.1261 C.3       3 UNK         0.1400 
     58 CB          3.5196   -9.5986  -45.9029 C.3       3 UNK        -0.1800 
     59 N           1.8795  -11.4136  -45.9452 N.am      3 UNK        -0.5000 
     60 C           0.9361  -12.2279  -45.4562 C.2       2 UNK         0.5000 
     61 O           0.8123  -12.4958  -44.2595 O.2       2 UNK        -0.5000 
     62 CA         -0.0033  -12.8695  -46.4922 C.3       2 UNK         0.1400 
     63 CB          0.6562  -14.1198  -47.0841 C.3       2 UNK        -0.1800 
     64 N          -1.2706  -13.2688  -45.8792 N.am      2 UNK        -0.5000 
     65 C          -2.3620  -12.5175  -45.6770 C.2       1 UNK         0.5000 
     66 O          -3.3291  -12.9688  -45.0602 O.2       1 UNK        -0.5000 
     67 C          -4.0947  -20.5054  -45.8966 C.2       11 UNK         0.5000 
     68 O          -5.1611  -20.9977  -46.2722 O.2       11 UNK        -0.5000 
     69 N          -3.6282  -20.5876  -44.6409 N.am      12 UNK        -0.5000 
     70 CA         -4.3053  -21.2623  -43.5312 C.3       12 UNK         0.1400 
     71 CB         -3.5150  -21.0352  -42.2341 C.3       12 UNK        -0.1800 
     72 C          -4.5345  -22.7657  -43.7771 C.2       12 UNK         0.5000 
     73 O          -5.5937  -23.2830  -43.4201 O.2       12 UNK        -0.5000 
     74 N          -3.5772  -23.4287  -44.4392 N.am      13 UNK        -0.5000 
     75 CA         -3.6482  -24.8160  -44.9044 C.3       13 UNK         0.1400 
     76 CB         -2.2175  -25.3425  -45.1173 C.3       13 UNK        -0.1800 
     77 C          -4.5296  -24.9812  -46.1643 C.2       13 UNK         0.5000 
     78 O          -4.1160  -25.6305  -47.1268 O.2       13 UNK        -0.5000 
     79 N          -5.7336  -24.3920  -46.1321 N.am      14 UNK        -0.5000 
     80 CA         -6.7874  -24.4361  -47.1499 C.3       14 UNK         0.1400 
     81 CB         -7.4471  -25.8310  -47.1604 C.3       14 UNK        -0.1800 
     82 C          -6.3096  -23.9927  -48.5480 C.2       14 UNK         0.5000 
     83 O          -6.6044  -24.6664  -49.5365 O.2       14 UNK        -0.5000 
     84 N          -5.5562  -22.8831  -48.5992 N.am      15 UNK        -0.5000 
     85 CA         -4.9287  -22.3129  -49.7973 C.3       15 UNK         0.1400 
     86 CB         -5.9937  -21.7016  -50.7303 C.3       15 UNK        -0.1800 
     87 C          -4.0138  -23.3296  -50.5090 C.2       15 UNK         0.5000 
     88 O          -4.2371  -23.6616  -51.6748 O.2       15 UNK        -0.5000 
     89 N          -3.0225  -23.8278  -49.7594 N.am      16 UNK        -0.5000 
     90 CA         -2.0421  -24.8478  -50.1358 C.3       16 UNK         0.1400 
     91 CB         -1.0792  -24.2931  -51.2071 C.3       16 UNK        -0.1800 
     92 C          -2.7102  -26.1744  -50.5508 C.2       16 UNK         0.5000 
     93 O          -2.3583  -26.7441  -51.5828 O.2       16 UNK        -0.5000 
     94 N          -3.6979  -26.6181  -49.7592 N.am      17 UNK        -0.5000 
     95 CA         -4.5691  -27.7738  -50.0048 C.3       17 UNK         0.1400 
     96 CB         -3.7837  -29.0902  -49.8333 C.3       17 UNK        -0.1800 
     97 C          -5.3060  -27.6749  -51.3596 C.2       17 UNK         0.5000 
     98 O          -5.3235  -28.6319  -52.1357 O.2       17 UNK        -0.5000 
     99 N          -5.8699  -26.4875  -51.6184 N.am      18 UNK        -0.5000 
    100 CA        -6.5802  -26.0573  -52.8250 C.3       18 UNK         0.1400 
    101 CB        -7.8418  -26.9138  -53.0607 C.3       18 UNK        -0.1800 
    102 C         -5.7043  -25.9319  -54.0921 C.2       18 UNK         0.5000 
    103 O         -6.2550  -25.7592  -55.1810 O.2       18 UNK        -0.5000 
    104 N         -4.3701  -25.9758  -53.9536 N.am      19 UNK        -0.5000 
    105 CA        -3.4232  -25.7473  -55.0523 C.3       19 UNK         0.1400 
    106 CB        -2.0849  -26.4286  -54.7290 C.3       19 UNK        -0.1800 
    107 C         -3.2037  -24.2509  -55.3617 C.2       19 UNK         0.5000 
    108 O         -2.6147  -23.9422  -56.3981 O.2       19 UNK        -0.5000 
    109 N         -3.6829  -23.3732  -54.4676 N.am      20 UNK        -0.5000 
    110 CA        -3.5439  -21.9182  -54.4138 C.3       20 UNK         0.1400 
    111 CB        -3.8572  -21.2222  -55.7533 C.3       20 UNK        -0.1800 
    112 C         -2.1729  -21.5169  -53.8465 C.2       20 UNK         0.5000 
    113 O         -1.1373  -21.7893  -54.4569 O.2       20 UNK        -0.5000 
    114 N         -2.1994  -20.8678  -52.6770 N.am      21 UNK        -0.5000 
    115 CA        -1.0337  -20.2759  -52.0239 C.3       21 UNK         0.1400 
    116 CB        -1.3887  -19.9998  -50.5546 C.3       21 UNK        -0.1800 
    117 C         -0.5954  -18.9865  -52.7461 C.2       21 UNK         0.5000 
    118 O         -1.4433  -18.3009  -53.3208 O.2       21 UNK        -0.5000 
    119 N          0.7150  -18.7082  -52.7132 N.am      22 UNK        -0.5000 
    120 CA         1.4655  -17.5869  -53.3273 C.3       22 UNK         0.1400 
    121 C          1.2717  -17.2917  -54.8494 C.2       22 UNK         0.5000 
    122 N          0.2636  -17.8248  -55.5222 N.am      22 UNK        -0.7600 
    123 O          2.0880  -16.5917  -55.4432 O.2       22 UNK        -0.5000 
    124 C124        1.4789  -16.2893  -52.4690 C.3       23 UNK        -0.0398 
    125 S125       -0.1334  -15.4442  -52.3052 S.3       23 UNK        -0.2404 
    126 C126       -0.3171  -15.3864  -50.4986 C.3       23 UNK        -0.0205 
    127 H127       -5.0994   -8.9302  -44.1632 H         1 UNK         0.0600 
    128 H128       -3.8785   -7.9649  -43.3291 H         1 UNK         0.0600 
    129 H129       -4.4623   -9.4681  -42.6067 H         1 UNK         0.0600 
    130 H130       -4.2679  -10.1306  -45.8519 H         1 UNK         0.3000 
    131 H131       -1.4429  -10.6206  -46.1417 H         1 UNK         0.0600 
    132 H132       -2.6760  -10.0250  -48.1280 H         1 UNK         0.0800 
    133 H133       -2.1008  -11.6465  -48.3272 H         1 UNK         0.0800 
    134 H134       -5.2683  -12.3810  -50.2658 H         1 UNK         0.0800 
    135 H135       -3.7010  -11.6344  -50.4155 H         1 UNK         0.0800 
    136 H136       -1.7181  -13.0371  -50.4029 H         1 UNK         0.1150 
    137 H137       -2.1162  -17.2421  -49.7163 H         1 UNK         0.1150 
    138 H138       -5.4656  -14.6495  -49.0707 H         1 UNK         0.1150 
    139 H139       -5.7476  -17.1316  -49.3312 H         1 UNK         0.0800 
    140 H140       -4.3627  -18.1831  -49.4326 H         1 UNK         0.0800 
    141 H141       -2.9044  -17.9685  -45.7736 H         1 UNK         0.0800 
    142 H142       -2.4373  -17.8233  -47.4361 H         1 UNK         0.0800 
    143 H143       -3.5726  -20.0379  -47.9147 H         1 UNK         0.0600 
    144 H144       -1.0704  -19.6994  -46.6905 H         1 UNK         0.3000 
    145 H145       -0.0204  -23.1376  -46.7382 H         1 UNK         0.0600 
    146 H146        1.8585  -22.0588  -47.9420 H         1 UNK         0.0600 
    147 H147        0.4530  -22.1934  -48.9864 H         1 UNK         0.0600 
    148 H148        0.8680  -20.6411  -48.2735 H         1 UNK         0.0600 
    149 H149        1.3018  -20.8151  -45.7825 H         1 UNK         0.3000 
    150 H150       -0.0271  -20.9043  -42.4345 H         1 UNK         0.0600 
    151 H151        1.9064  -22.4841  -42.5275 H         1 UNK         0.0600 
    152 H152        2.3964  -20.8987  -41.9505 H         1 UNK         0.0600 
    153 H153        2.7639  -21.3873  -43.6029 H         1 UNK         0.0600 
    154 H154        1.7769  -19.0883  -43.6463 H         1 UNK         0.3000 
    155 H155       -0.6696  -16.8144  -44.9877 H         1 UNK         0.0600 
    156 H156       -0.3073  -16.1818  -42.6154 H         1 UNK         0.0600 
    157 H157        0.7732  -15.2757  -43.6648 H         1 UNK         0.0600 
    158 H158        1.3891  -16.6325  -42.7258 H         1 UNK         0.0600 
    159 H159        2.1769  -16.8217  -45.1125 H         1 UNK         0.3000 
    160 H160        2.4851  -18.7410  -48.1189 H         1 UNK         0.0600 
    161 H161        2.9786  -15.7779  -47.5402 H         1 UNK         0.0600 
    162 H162        1.9841  -16.3990  -48.8482 H         1 UNK         0.0600 
    163 H163        3.7086  -16.7246  -48.8336 H         1 UNK         0.0600 
    164 H164        4.3218  -17.4014  -46.3254 H         1 UNK         0.3000 
    165 H165        5.0213  -20.2568  -44.3139 H         1 UNK         0.0600 
    166 H166        7.3170  -19.7723  -45.1112 H         1 UNK         0.0600 
    167 H167        6.3945  -20.5634  -46.3790 H         1 UNK         0.0600 
    168 H168        6.6838  -18.8297  -46.4608 H         1 UNK         0.0600 
    169 H169        6.1032  -17.6079  -44.3759 H         1 UNK         0.3000 
    170 H170        3.7532  -16.1171  -42.1470 H         1 UNK         0.0600 
    171 H171        5.2948  -17.4153  -40.6664 H         1 UNK         0.0600 
    172 H172        6.6574  -16.9864  -41.6939 H         1 UNK         0.0600 
    173 H173        5.7911  -15.7363  -40.8002 H         1 UNK         0.0600 
    174 H174        6.1241  -15.0463  -43.1911 H         1 UNK         0.3000 
    175 H175        6.0973  -13.4305  -44.6763 H         1 UNK         0.0600 
    176 H176        5.0656  -14.7233  -47.2599 H         1 UNK         0.0600 
    177 H177        6.3832  -13.5631  -47.1297 H         1 UNK         0.0600 
    178 H178        6.5494  -15.1623  -46.4232 H         1 UNK         0.0600 
    179 H179        3.7860  -12.8279  -46.4017 H         1 UNK         0.3000 
    180 H180        2.4488  -10.3827  -44.2208 H         1 UNK         0.0600 
    181 H181        3.9925   -9.9249  -46.8301 H         1 UNK         0.0600 
    182 H182        4.2796   -9.0894  -45.3088 H         1 UNK         0.0600 
    183 H183        2.7580   -8.8605  -46.1551 H         1 UNK         0.0600 
    184 H184        1.9212  -11.2370  -46.9387 H         1 UNK         0.3000 
    185 H185       -0.1759  -12.1668  -47.3064 H         1 UNK         0.0600 
    186 H186       -0.0487  -14.7059  -47.6729 H         1 UNK         0.0600 
    187 H187        1.0508  -14.7641  -46.2999 H         1 UNK         0.0600 
    188 H188        1.4873  -13.8497  -47.7360 H         1 UNK         0.0600 
    189 H189       -1.2615  -14.1864  -45.4629 H         1 UNK         0.3000 
    190 H190       -2.7436  -20.1364  -44.4197 H         1 UNK         0.3000 
    191 H191       -5.2858  -20.7959  -43.4170 H         1 UNK         0.0600 
    192 H192       -2.5151  -21.4654  -42.2913 H         1 UNK         0.0600 
    193 H193       -3.4092  -19.9720  -42.0176 H         1 UNK         0.0600 
    194 H194       -4.0211  -21.4924  -41.3831 H         1 UNK         0.0600 
    195 H195       -2.7185  -22.9335  -44.6577 H         1 UNK         0.3000 
    196 H196       -4.1064  -25.4188  -44.1180 H         1 UNK         0.0600 
    197 H197       -1.6231  -25.2491  -44.2083 H         1 UNK         0.0600 
    198 H198       -1.7050  -24.7968  -45.9098 H         1 UNK         0.0600 
    199 H199       -2.2226  -26.3976  -45.3934 H         1 UNK         0.0600 
    200 H200       -5.9590  -23.8747  -45.2887 H         1 UNK         0.3000 
    201 H201       -7.5440  -23.7126  -46.8435 H         1 UNK         0.0600 
    202 H202       -8.2984  -25.8583  -47.8417 H         1 UNK         0.0600 
    203 H203       -7.8172  -26.0988  -46.1708 H         1 UNK         0.0600 
    204 H204       -6.7482  -26.6056  -47.4769 H         1 UNK         0.0600 
    205 H205       -5.3582  -22.4026  -47.7263 H         1 UNK         0.3000 
    206 H206       -4.2829  -21.5029  -49.4625 H         1 UNK         0.0600 
    207 H207       -6.6636  -22.4601  -51.1368 H         1 UNK         0.0600 
    208 H208       -5.5281  -21.1918  -51.5736 H         1 UNK         0.0600 
    209 H209       -6.6015  -20.9663  -50.2031 H         1 UNK         0.0600 
    210 H210       -2.9277  -23.4743  -48.8078 H         1 UNK         0.3000 
    211 H211       -1.4589  -25.0611  -49.2389 H         1 UNK         0.0600 
    212 H212       -0.6195  -23.3612  -50.8804 H         1 UNK         0.0600 
    213 H213       -0.2738  -24.9990  -51.4122 H         1 UNK         0.0600 
    214 H214       -1.5904  -24.0983  -52.1502 H         1 UNK         0.0600 
    215 H215       -3.8980  -26.0983  -48.9059 H         1 UNK         0.3000 
    216 H216       -5.3398  -27.7456  -49.2335 H         1 UNK         0.0600 
    217 H217       -4.4470  -29.9526  -49.9069 H         1 UNK         0.0600 
    218 H218       -3.0120  -29.2047  -50.5951 H         1 UNK         0.0600 
    219 H219       -3.3007  -29.1349  -48.8572 H         1 UNK         0.0600 
    220 H220       -5.8249  -25.7771  -50.8911 H         1 UNK         0.3000 
    221 H221       -6.9160  -25.0426  -52.6063 H         1 UNK         0.0600 
    222 H222       -8.4646  -26.4863  -53.8472 H         1 UNK         0.0600 
    223 H223       -7.5918  -27.9312  -53.3619 H         1 UNK         0.0600 
    224 H224       -8.4539  -26.9695  -52.1604 H         1 UNK         0.0600 
    225 H225       -3.9737  -26.1221  -53.0328 H         1 UNK         0.3000 
    226 H226       -3.8201  -26.2137  -55.9563 H         1 UNK         0.0600 
    227 H227       -2.2266  -27.4704  -54.4405 H         1 UNK         0.0600 
    228 H228       -1.4249  -26.4176  -55.5972 H         1 UNK         0.0600 
    229 H229       -1.5603  -25.9208  -53.9197 H         1 UNK         0.0600 
    230 H230       -4.0773  -23.7662  -53.6171 H         1 UNK         0.3000 
    231 H231       -4.3102  -21.5924  -53.7092 H         1 UNK         0.0600 
    232 H232       -3.9196  -20.1420  -55.6170 H         1 UNK         0.0600 
    233 H233       -4.8118  -21.5560  -56.1600 H         1 UNK         0.0600 
    234 H234       -3.0870  -21.4045  -56.5028 H         1 UNK         0.0600 
    235 H235       -3.0940  -20.6372  -52.2742 H         1 UNK         0.3000 
    236 H236       -0.2117  -20.9943  -52.0547 H         1 UNK         0.0600 
    237 H237       -1.5913  -20.9298  -50.0243 H         1 UNK         0.0600 
    238 H238       -0.5732  -19.4963  -50.0335 H         1 UNK         0.0600 
    239 H239       -2.2750  -19.3720  -50.4689 H         1 UNK         0.0600 
    240 H240        1.3067  -19.3715  -52.2343 H         1 UNK         0.3000 
    241 H241        2.4918  -17.9553  -53.2930 H         1 UNK         0.0600 
    242 H242        0.1566  -17.6386  -56.5065 H         1 UNK         0.3800 
    243 H243       -0.4771  -18.2794  -55.0001 H         1 UNK         0.3800 
    244 H244        2.1875  -15.5711  -52.8849 H         1 UNK         0.0800 
    245 H245        1.8697  -16.5250  -51.4790 H         1 UNK         0.0800 
    246 H246        0.0335  -16.3248  -50.0677 H         1 UNK         0.0800 
    247 H247        0.3172  -14.5956  -50.0965 H         1 UNK         0.0800 
@<TRIPOS>BOND
     1    1    2 1    
     2    1  127 1    
     3    1  128 1    
     4    1  129 1    
     5    2    3 2    
     6    2    4 am   BACKBONE|DICT|INTERRES
     7    4    5 1    
     8    4  130 1    
     9    5    6 1    
    10    5   65 1    
    11    5  131 1    
    12    6    7 1    
    13    6  132 1    
    14    6  133 1    
    15    7    8 1    
    16    8    9 1    
    17    8  134 1    
    18    8  135 1    
    19    9   10 ar   
    20    9   14 ar   
    21   10   11 ar   
    22   10  136 1    
    23   11   12 ar   
    24   11  126 1    
    25   12   13 ar   
    26   12  137 1    
    27   13   14 ar   
    28   13   15 1    
    29   14  138 1    
    30   15   16 1    
    31   15  139 1    
    32   15  140 1    
    33   16   17 1    
    34   17   18 1    
    35   17  141 1    
    36   17  142 1    
    37   18   19 1    
    38   18   67 1    
    39   18  143 1    
    40   19   20 am   BACKBONE|DICT|INTERRES
    41   19  144 1    
    42   20   21 2    
    43   20   22 1    
    44   22   23 1    
    45   22   24 1    
    46   22  145 1    
    47   23  146 1    
    48   23  147 1    
    49   23  148 1    
    50   24   25 am   BACKBONE|DICT|INTERRES
    51   24  149 1    
    52   25   26 2    
    53   25   27 1    
    54   27   28 1    
    55   27   29 1    
    56   27  150 1    
    57   28  151 1    
    58   28  152 1    
    59   28  153 1    
    60   29   30 am   BACKBONE|DICT|INTERRES
    61   29  154 1    
    62   30   31 2    
    63   30   32 1    
    64   32   33 1    
    65   32   34 1    
    66   32  155 1    
    67   33  156 1    
    68   33  157 1    
    69   33  158 1    
    70   34   35 am   BACKBONE|DICT|INTERRES
    71   34  159 1    
    72   35   36 2    
    73   35   37 1    
    74   37   38 1    
    75   37   39 1    
    76   37  160 1    
    77   38  161 1    
    78   38  162 1    
    79   38  163 1    
    80   39   40 am   BACKBONE|DICT|INTERRES
    81   39  164 1    
    82   40   41 2    
    83   40   42 1    
    84   42   43 1    
    85   42   44 1    
    86   42  165 1    
    87   43  166 1    
    88   43  167 1    
    89   43  168 1    
    90   44   45 am   BACKBONE|DICT|INTERRES
    91   44  169 1    
    92   45   46 2    
    93   45   47 1    
    94   47   48 1    
    95   47   49 1    
    96   47  170 1    
    97   48  171 1    
    98   48  172 1    
    99   48  173 1    
   100   49   50 am   BACKBONE|DICT|INTERRES
   101   49  174 1    
   102   50   51 2    
   103   50   52 1    
   104   52   53 1    
   105   52   54 1    
   106   52  175 1    
   107   53  176 1    
   108   53  177 1    
   109   53  178 1    
   110   54   55 am   BACKBONE|DICT|INTERRES
   111   54  179 1    
   112   55   56 2    
   113   55   57 1    
   114   57   58 1    
   115   57   59 1    
   116   57  180 1    
   117   58  181 1    
   118   58  182 1    
   119   58  183 1    
   120   59   60 am   BACKBONE|DICT|INTERRES
   121   59  184 1    
   122   60   61 2    
   123   60   62 1    
   124   62   63 1    
   125   62   64 1    
   126   62  185 1    
   127   63  186 1    
   128   63  187 1    
   129   63  188 1    
   130   64   65 am   BACKBONE|DICT|INTERRES
   131   64  189 1    
   132   65   66 2    
   133   67   68 2    
   134   67   69 am   BACKBONE|DICT|INTERRES
   135   69   70 1    
   136   69  190 1    
   137   70   71 1    
   138   70   72 1    
   139   70  191 1    
   140   71  192 1    
   141   71  193 1    
   142   71  194 1    
   143   72   73 2    
   144   72   74 am   BACKBONE|DICT|INTERRES
   145   74   75 1    
   146   74  195 1    
   147   75   76 1    
   148   75   77 1    
   149   75  196 1    
   150   76  197 1    
   151   76  198 1    
   152   76  199 1    
   153   77   78 2    
   154   77   79 am   BACKBONE|DICT|INTERRES
   155   79   80 1    
   156   79  200 1    
   157   80   81 1    
   158   80   82 1    
   159   80  201 1    
   160   81  202 1    
   161   81  203 1    
   162   81  204 1    
   163   82   83 2    
   164   82   84 am   BACKBONE|DICT|INTERRES
   165   84   85 1    
   166   84  205 1    
   167   85   86 1    
   168   85   87 1    
   169   85  206 1    
   170   86  207 1    
   171   86  208 1    
   172   86  209 1    
   173   87   88 2    
   174   87   89 am   BACKBONE|DICT|INTERRES
   175   89   90 1    
   176   89  210 1    
   177   90   91 1    
   178   90   92 1    
   179   90  211 1    
   180   91  212 1    
   181   91  213 1    
   182   91  214 1    
   183   92   93 2    
   184   92   94 am   BACKBONE|DICT|INTERRES
   185   94   95 1    
   186   94  215 1    
   187   95   96 1    
   188   95   97 1    
   189   95  216 1    
   190   96  217 1    
   191   96  218 1    
   192   96  219 1    
   193   97   98 2    
   194   97   99 am   BACKBONE|DICT|INTERRES
   195   99  100 1    
   196   99  220 1    
   197  100  101 1    
   198  100  102 1    
   199  100  221 1    
   200  101  222 1    
   201  101  223 1    
   202  101  224 1    
   203  102  103 2    
   204  102  104 am   BACKBONE|DICT|INTERRES
   205  104  105 1    
   206  104  225 1    
   207  105  106 1    
   208  105  107 1    
   209  105  226 1    
   210  106  227 1    
   211  106  228 1    
   212  106  229 1    
   213  107  108 2    
   214  107  109 am   BACKBONE|DICT|INTERRES
   215  109  110 1    
   216  109  230 1    
   217  110  111 1    
   218  110  112 1    
   219  110  231 1    
   220  111  232 1    
   221  111  233 1    
   222  111  234 1    
   223  112  113 2    
   224  112  114 am   BACKBONE|DICT|INTERRES
   225  114  115 1    
   226  114  235 1    
   227  115  116 1    
   228  115  117 1    
   229  115  236 1    
   230  116  237 1    
   231  116  238 1    
   232  116  239 1    
   233  117  118 2    
   234  117  119 am   BACKBONE|DICT|INTERRES
   235  119  120 1    
   236  119  240 1    
   237  120  121 1    
   238  120  124 1    
   239  120  241 1    
   240  121  122 am   BACKBONE|DICT|INTERRES
   241  121  123 2    
   242  122  242 1    
   243  122  243 1    
   244  124  125 1    
   245  124  244 1    
   246  124  245 1    
   247  125  126 1    
   248  126  246 1    
   249  126  247 1    
@<TRIPOS>SUBSTRUCTURE
     1 UNK         1 GROUP             0       ****    0 ROOT    
