@<TRIPOS>MOLECULE
3R540
247   249    1
SMALL
USER_CHARGES


@<TRIPOS>ATOM
      1 CA          2.5492  -16.2659  -47.4715 C.3       0 UNK        -0.1800 
      2 C           2.3606  -14.8205  -47.0419 C.2       0 UNK         0.5000 
      3 O           3.1421  -14.3165  -46.2363 O.2       0 UNK        -0.5000 
      4 N           1.3554  -14.1353  -47.6035 N.am      1 UNK        -0.5000 
      5 CA          1.0209  -12.7322  -47.3160 C.3       1 UNK         0.1400 
      6 C6         -0.3551  -12.3299  -47.9026 C.3       23 UNK        -0.0398 
      7 S7         -0.4849  -12.5134  -49.7201 S.3       23 UNK        -0.2404 
      8 C8         -2.1963  -13.1040  -49.9218 C.3       23 UNK        -0.0205 
      9 C9         -2.2709  -14.6171  -50.0717 C.ar      23 UNK        -0.0193 
     10 C10        -2.5233  -15.1875  -51.3247 C.ar      23 UNK        -0.1150 
     11 C11        -2.6287  -16.5747  -51.4689 C.ar      23 UNK        -0.0193 
     12 C12        -2.4731  -17.3924  -50.3475 C.ar      23 UNK        -0.1150 
     13 C13        -2.2054  -16.8367  -49.0946 C.ar      23 UNK        -0.0193 
     14 C14        -2.1131  -15.4490  -48.9593 C.ar      23 UNK        -0.1150 
     15 C15        -2.0060  -17.7403  -47.8921 C.3       23 UNK        -0.0205 
     16 S16        -0.3187  -18.4103  -47.8748 S.3       23 UNK        -0.2404 
     17 C17        -0.3343  -19.3057  -46.2896 C.3       23 UNK        -0.0398 
     18 CA         -0.2459  -20.8372  -46.4559 C.3       11 UNK         0.1400 
     19 N           0.2320  -21.4810  -45.2347 N.am      11 UNK        -0.5000 
     20 C           0.6509  -22.7498  -45.1493 C.2       10 UNK         0.5000 
     21 O           0.5850  -23.5522  -46.0817 O.2       10 UNK        -0.5000 
     22 CA          1.2349  -23.1904  -43.7981 C.3       10 UNK         0.1400 
     23 CB          2.7021  -22.7488  -43.6837 C.3       10 UNK        -0.1800 
     24 N           0.4751  -22.6129  -42.6897 N.am      10 UNK        -0.5000 
     25 C          -0.4146  -23.2835  -41.9468 C.2       9 UNK         0.5000 
     26 O          -0.6314  -24.4907  -42.0581 O.2       9 UNK        -0.5000 
     27 CA         -1.2165  -22.4675  -40.9113 C.3       9 UNK         0.1400 
     28 CB         -0.5025  -22.4775  -39.5512 C.3       9 UNK        -0.1800 
     29 N          -1.4708  -21.0790  -41.3067 N.am      9 UNK        -0.5000 
     30 C          -2.1504  -20.7032  -42.3987 C.2       8 UNK         0.5000 
     31 O          -2.6287  -21.4905  -43.2137 O.2       8 UNK        -0.5000 
     32 CA         -2.2809  -19.1922  -42.6588 C.3       8 UNK         0.1400 
     33 CB         -3.5196  -18.6311  -41.9456 C.3       8 UNK        -0.1800 
     34 N          -1.1149  -18.3738  -42.3077 N.am      8 UNK        -0.5000 
     35 C           0.1651  -18.5937  -42.6464 C.2       7 UNK         0.5000 
     36 O           0.5766  -19.6496  -43.1331 O.2       7 UNK        -0.5000 
     37 CA          1.1313  -17.4083  -42.4302 C.3       7 UNK         0.1400 
     38 CB          2.4590  -17.5792  -43.1975 C.3       7 UNK        -0.1800 
     39 N           0.5157  -16.1109  -42.7466 N.am      7 UNK        -0.5000 
     40 C          -0.0162  -15.7243  -43.9168 C.2       6 UNK         0.5000 
     41 O          -0.0407  -16.4269  -44.9243 O.2       6 UNK        -0.5000 
     42 CA         -0.6392  -14.3182  -43.9903 C.3       6 UNK         0.1400 
     43 CB         -2.1189  -14.3466  -43.5633 C.3       6 UNK        -0.1800 
     44 N           0.1121  -13.2729  -43.2839 N.am      6 UNK        -0.5000 
     45 C           0.3046  -13.0956  -41.9712 C.2       5 UNK         0.5000 
     46 O          -0.1323  -13.8543  -41.1038 O.2       5 UNK        -0.5000 
     47 CA          1.1962  -11.8971  -41.5843 C.3       5 UNK         0.1400 
     48 CB          1.0683  -11.5260  -40.0961 C.3       5 UNK        -0.1800 
     49 N           2.6042  -12.1640  -41.8829 N.am      5 UNK        -0.5000 
     50 C           3.1489  -12.2164  -43.1054 C.2       4 UNK         0.5000 
     51 O           2.5195  -11.9700  -44.1372 O.2       4 UNK        -0.5000 
     52 CA          4.6334  -12.6115  -43.1764 C.3       4 UNK         0.1400 
     53 CB          4.9391  -13.8795  -42.3519 C.3       4 UNK        -0.1800 
     54 N           5.0253  -12.8332  -44.5653 N.am      4 UNK        -0.5000 
     55 C           6.2704  -12.7230  -45.0410 C.2       3 UNK         0.5000 
     56 O           7.2301  -12.3544  -44.3619 O.2       3 UNK        -0.5000 
     57 CA          6.4943  -13.0969  -46.5144 C.3       3 UNK         0.1400 
     58 CB          6.6824  -14.6164  -46.6547 C.3       3 UNK        -0.1800 
     59 N           5.3835  -12.6763  -47.3675 N.am      3 UNK        -0.5000 
     60 C           5.3848  -11.5746  -48.1311 C.2       2 UNK         0.5000 
     61 O           6.3079  -10.7591  -48.1485 O.2       2 UNK        -0.5000 
     62 CA          4.1737  -11.3497  -49.0590 C.3       2 UNK         0.1400 
     63 CB          4.5294  -11.7360  -50.5033 C.3       2 UNK        -0.1800 
     64 N           2.9980  -12.1155  -48.6493 N.am      2 UNK        -0.5000 
     65 C           2.1270  -11.7253  -47.7098 C.2       1 UNK         0.5000 
     66 O           2.1755  -10.6276  -47.1534 O.2       1 UNK        -0.5000 
     67 C          -1.5539  -21.4500  -46.9953 C.2       11 UNK         0.5000 
     68 O          -1.7083  -21.5288  -48.2117 O.2       11 UNK        -0.5000 
     69 N          -2.4502  -21.9272  -46.1165 N.am      12 UNK        -0.5000 
     70 CA         -3.6744  -22.6250  -46.5230 C.3       12 UNK         0.1400 
     71 CB         -4.5790  -22.8666  -45.3071 C.3       12 UNK        -0.1800 
     72 C          -3.3886  -23.9495  -47.2532 C.2       12 UNK         0.5000 
     73 O          -4.0725  -24.2606  -48.2287 O.2       12 UNK        -0.5000 
     74 N          -2.3609  -24.6817  -46.8008 N.am      13 UNK        -0.5000 
     75 CA         -1.8822  -25.9049  -47.4434 C.3       13 UNK         0.1400 
     76 CB         -0.9495  -26.6688  -46.4916 C.3       13 UNK        -0.1800 
     77 C          -1.1916  -25.6062  -48.7849 C.2       13 UNK         0.5000 
     78 O          -1.4722  -26.2867  -49.7722 O.2       13 UNK        -0.5000 
     79 N          -0.3534  -24.5581  -48.8129 N.am      14 UNK        -0.5000 
     80 CA          0.3161  -24.0548  -50.0182 C.3       14 UNK         0.1400 
     81 CB          1.3009  -22.9415  -49.6323 C.3       14 UNK        -0.1800 
     82 C          -0.6690  -23.5560  -51.0952 C.2       14 UNK         0.5000 
     83 O          -0.4101  -23.7296  -52.2847 O.2       14 UNK        -0.5000 
     84 N          -1.8007  -22.9939  -50.6524 N.am      15 UNK        -0.5000 
     85 CA         -2.9328  -22.5594  -51.4686 C.3       15 UNK         0.1400 
     86 CB         -3.7223  -21.5015  -50.6819 C.3       15 UNK        -0.1800 
     87 C          -3.8588  -23.7063  -51.9283 C.2       15 UNK         0.5000 
     88 O          -4.9229  -23.4143  -52.4766 O.2       15 UNK        -0.5000 
     89 N          -3.4587  -24.9659  -51.6960 N.am      16 UNK        -0.5000 
     90 CA         -4.1457  -26.2101  -52.0528 C.3       16 UNK         0.1400 
     91 CB         -4.3098  -26.3417  -53.5812 C.3       16 UNK        -0.1800 
     92 C          -5.4656  -26.3856  -51.2803 C.2       16 UNK         0.5000 
     93 O          -6.5260  -26.5466  -51.8852 O.2       16 UNK        -0.5000 
     94 N          -5.3595  -26.3394  -49.9450 N.am      17 UNK        -0.5000 
     95 CA         -6.4471  -26.4281  -48.9639 C.3       17 UNK         0.1400 
     96 CB         -7.1701  -27.7898  -49.0389 C.3       17 UNK        -0.1800 
     97 C          -7.3953  -25.2171  -49.0574 C.2       17 UNK         0.5000 
     98 O          -8.6159  -25.3762  -49.1165 O.2       17 UNK        -0.5000 
     99 N          -6.7849  -24.0235  -49.0731 N.am      18 UNK        -0.5000 
    100 CA        -7.4103  -22.6995  -49.1381 C.3       18 UNK         0.1400 
    101 CB        -8.1998  -22.4068  -47.8455 C.3       18 UNK        -0.1800 
    102 C         -8.2374  -22.4622  -50.4212 C.2       18 UNK         0.5000 
    103 O         -9.2259  -21.7276  -50.3909 O.2       18 UNK        -0.5000 
    104 N         -7.7976  -23.0552  -51.5400 N.am      19 UNK        -0.5000 
    105 CA        -8.3808  -22.8688  -52.8728 C.3       19 UNK         0.1400 
    106 CB        -8.1137  -24.1300  -53.7100 C.3       19 UNK        -0.1800 
    107 C         -7.8418  -21.6120  -53.5898 C.2       19 UNK         0.5000 
    108 O         -8.2720  -21.3244  -54.7071 O.2       19 UNK        -0.5000 
    109 N         -6.9024  -20.9042  -52.9434 N.am      20 UNK        -0.5000 
    110 CA        -6.1704  -19.7210  -53.4093 C.3       20 UNK         0.1400 
    111 CB        -7.1231  -18.5541  -53.7411 C.3       20 UNK        -0.1800 
    112 C         -5.1753  -20.0251  -54.5486 C.2       20 UNK         0.5000 
    113 O         -4.7358  -19.1044  -55.2381 O.2       20 UNK        -0.5000 
    114 N         -4.7886  -21.2984  -54.7032 N.am      21 UNK        -0.5000 
    115 CA        -3.8570  -21.7832  -55.7229 C.3       21 UNK         0.1400 
    116 CB        -4.2442  -23.2267  -56.0873 C.3       21 UNK        -0.1800 
    117 C         -2.3907  -21.6612  -55.2560 C.2       21 UNK         0.5000 
    118 O         -1.6253  -22.6192  -55.3658 O.2       21 UNK        -0.5000 
    119 N         -2.0327  -20.4914  -54.7125 N.am      22 UNK        -0.5000 
    120 CA        -0.7064  -20.1845  -54.1503 C.3       22 UNK         0.1400 
    121 C          0.4292  -19.9651  -55.1953 C.2       22 UNK         0.5000 
    122 N          0.1398  -19.8676  -56.4874 N.am      22 UNK        -0.7600 
    123 O          1.5984  -19.8955  -54.8263 O.2       22 UNK        -0.5000 
    124 C124       -0.7790  -19.0304  -53.1150 C.3       23 UNK        -0.0398 
    125 S125       -1.4161  -17.4581  -53.8041 S.3       23 UNK        -0.2404 
    126 C126       -2.9293  -17.1854  -52.8300 C.3       23 UNK        -0.0205 
    127 H127        1.9818  -16.4931  -48.3740 H         1 UNK         0.0600 
    128 H128        2.2184  -16.9361  -46.6784 H         1 UNK         0.0600 
    129 H129        3.6013  -16.4662  -47.6736 H         1 UNK         0.0600 
    130 H130        0.7601  -14.5935  -48.2794 H         1 UNK         0.3000 
    131 H131        0.9362  -12.6540  -46.2313 H         1 UNK         0.0600 
    132 H132       -0.5917  -11.2958  -47.6452 H         1 UNK         0.0800 
    133 H133       -1.1294  -12.9271  -47.4220 H         1 UNK         0.0800 
    134 H134       -2.8152  -12.7811  -49.0836 H         1 UNK         0.0800 
    135 H135       -2.6199  -12.6214  -50.8040 H         1 UNK         0.0800 
    136 H136       -2.6456  -14.5517  -52.1904 H         1 UNK         0.1150 
    137 H137       -2.5485  -18.4643  -50.4456 H         1 UNK         0.1150 
    138 H138       -1.9157  -15.0207  -47.9876 H         1 UNK         0.1150 
    139 H139       -2.1874  -17.1874  -46.9686 H         1 UNK         0.0800 
    140 H140       -2.7256  -18.5603  -47.9171 H         1 UNK         0.0800 
    141 H141       -1.1988  -19.0186  -45.6915 H         1 UNK         0.0800 
    142 H142        0.5375  -18.9481  -45.7408 H         1 UNK         0.0800 
    143 H143        0.5220  -21.0329  -47.2062 H         1 UNK         0.0600 
    144 H144        0.3399  -20.8734  -44.4258 H         1 UNK         0.3000 
    145 H145        1.2058  -24.2814  -43.7620 H         1 UNK         0.0600 
    146 H146        3.1458  -23.1011  -42.7524 H         1 UNK         0.0600 
    147 H147        3.2976  -23.1552  -44.5023 H         1 UNK         0.0600 
    148 H148        2.8013  -21.6626  -43.7110 H         1 UNK         0.0600 
    149 H149        0.5596  -21.6112  -42.5555 H         1 UNK         0.3000 
    150 H150       -2.1852  -22.9570  -40.7922 H         1 UNK         0.0600 
    151 H151       -0.3191  -23.4983  -39.2133 H         1 UNK         0.0600 
    152 H152       -1.1037  -21.9867  -38.7856 H         1 UNK         0.0600 
    153 H153        0.4615  -21.9694  -39.5998 H         1 UNK         0.0600 
    154 H154       -1.0924  -20.3591  -40.7090 H         1 UNK         0.3000 
    155 H155       -2.4374  -19.0703  -43.7313 H         1 UNK         0.0600 
    156 H156       -3.4085  -18.6651  -40.8611 H         1 UNK         0.0600 
    157 H157       -3.7058  -17.5958  -42.2324 H         1 UNK         0.0600 
    158 H158       -4.4129  -19.2024  -42.2027 H         1 UNK         0.0600 
    159 H159       -1.3260  -17.4756  -41.8984 H         1 UNK         0.3000 
    160 H160        1.3626  -17.3912  -41.3645 H         1 UNK         0.0600 
    161 H161        2.2984  -17.6621  -44.2725 H         1 UNK         0.0600 
    162 H162        2.9846  -18.4790  -42.8759 H         1 UNK         0.0600 
    163 H163        3.1257  -16.7357  -43.0244 H         1 UNK         0.0600 
    164 H164        0.4379  -15.4514  -41.9768 H         1 UNK         0.3000 
    165 H165       -0.6173  -14.0323  -45.0422 H         1 UNK         0.0600 
    166 H166       -2.5828  -13.3677  -43.6843 H         1 UNK         0.0600 
    167 H167       -2.6844  -15.0517  -44.1741 H         1 UNK         0.0600 
    168 H168       -2.2408  -14.6502  -42.5233 H         1 UNK         0.0600 
    169 H169        0.6516  -12.6571  -43.8847 H         1 UNK         0.3000 
    170 H170        0.8694  -11.0358  -42.1710 H         1 UNK         0.0600 
    171 H171        1.4165  -12.3298  -39.4461 H         1 UNK         0.0600 
    172 H172        1.6467  -10.6320  -39.8621 H         1 UNK         0.0600 
    173 H173        0.0302  -11.3177  -39.8339 H         1 UNK         0.0600 
    174 H174        3.1842  -12.3940  -41.0892 H         1 UNK         0.3000 
    175 H175        5.2043  -11.7731  -42.7724 H         1 UNK         0.0600 
    176 H176        5.9886  -14.1629  -42.4331 H         1 UNK         0.0600 
    177 H177        4.3407  -14.7251  -42.6909 H         1 UNK         0.0600 
    178 H178        4.7353  -13.7321  -41.2912 H         1 UNK         0.0600 
    179 H179        4.2715  -13.1331  -45.1798 H         1 UNK         0.3000 
    180 H180        7.4201  -12.6186  -46.8412 H         1 UNK         0.0600 
    181 H181        5.7956  -15.1659  -46.3363 H         1 UNK         0.0600 
    182 H182        7.5188  -14.9636  -46.0468 H         1 UNK         0.0600 
    183 H183        6.8945  -14.8929  -47.6875 H         1 UNK         0.0600 
    184 H184        4.5546  -13.2573  -47.3414 H         1 UNK         0.3000 
    185 H185        3.9355  -10.2840  -49.0419 H         1 UNK         0.0600 
    186 H186        3.6989  -11.5356  -51.1807 H         1 UNK         0.0600 
    187 H187        5.3853  -11.1627  -50.8621 H         1 UNK         0.0600 
    188 H188        4.7842  -12.7933  -50.5869 H         1 UNK         0.0600 
    189 H189        2.8696  -13.0221  -49.0744 H         1 UNK         0.3000 
    190 H190       -2.2891  -21.8316  -45.1178 H         1 UNK         0.3000 
    191 H191       -4.2139  -21.9776  -47.2174 H         1 UNK         0.0600 
    192 H192       -4.8692  -21.9255  -44.8398 H         1 UNK         0.0600 
    193 H193       -5.4961  -23.3809  -45.5974 H         1 UNK         0.0600 
    194 H194       -4.0836  -23.4778  -44.5516 H         1 UNK         0.0600 
    195 H195       -1.8160  -24.3295  -46.0270 H         1 UNK         0.3000 
    196 H196       -2.7458  -26.5420  -47.6468 H         1 UNK         0.0600 
    197 H197       -0.6260  -27.6096  -46.9387 H         1 UNK         0.0600 
    198 H198       -1.4537  -26.9106  -45.5559 H         1 UNK         0.0600 
    199 H199       -0.0531  -26.0978  -46.2508 H         1 UNK         0.0600 
    200 H200       -0.1595  -24.0715  -47.9440 H         1 UNK         0.3000 
    201 H201        0.8862  -24.8819  -50.4460 H         1 UNK         0.0600 
    202 H202        1.9873  -23.2690  -48.8512 H         1 UNK         0.0600 
    203 H203        0.7814  -22.0529  -49.2752 H         1 UNK         0.0600 
    204 H204        1.9020  -22.6416  -50.4915 H         1 UNK         0.0600 
    205 H205       -1.8782  -22.8053  -49.6570 H         1 UNK         0.3000 
    206 H206       -2.5416  -22.0859  -52.3687 H         1 UNK         0.0600 
    207 H207       -3.0803  -20.6714  -50.3923 H         1 UNK         0.0600 
    208 H208       -4.5360  -21.0875  -51.2734 H         1 UNK         0.0600 
    209 H209       -4.1535  -21.9200  -49.7729 H         1 UNK         0.0600 
    210 H210       -2.5868  -25.0940  -51.1969 H         1 UNK         0.3000 
    211 H211       -3.4900  -27.0197  -51.7290 H         1 UNK         0.0600 
    212 H212       -5.0308  -25.6272  -53.9764 H         1 UNK         0.0600 
    213 H213       -4.6658  -27.3376  -53.8467 H         1 UNK         0.0600 
    214 H214       -3.3620  -26.1859  -54.0965 H         1 UNK         0.0600 
    215 H215       -4.4541  -26.1109  -49.5557 H         1 UNK         0.3000 
    216 H216       -5.9755  -26.3680  -47.9818 H         1 UNK         0.0600 
    217 H217       -7.8821  -27.8956  -48.2197 H         1 UNK         0.0600 
    218 H218       -6.4633  -28.6160  -48.9629 H         1 UNK         0.0600 
    219 H219       -7.7269  -27.9085  -49.9686 H         1 UNK         0.0600 
    220 H220       -5.7714  -24.0307  -48.9826 H         1 UNK         0.3000 
    221 H221       -6.5883  -21.9842  -49.1809 H         1 UNK         0.0600 
    222 H222       -9.0783  -23.0461  -47.7541 H         1 UNK         0.0600 
    223 H223       -7.5800  -22.5596  -46.9621 H         1 UNK         0.0600 
    224 H224       -8.5446  -21.3724  -47.8217 H         1 UNK         0.0600 
    225 H225       -6.9637  -23.6285  -51.5007 H         1 UNK         0.3000 
    226 H226       -9.4621  -22.7510  -52.7782 H         1 UNK         0.0600 
    227 H227       -8.5105  -25.0192  -53.2199 H         1 UNK         0.0600 
    228 H228       -8.5886  -24.0607  -54.6892 H         1 UNK         0.0600 
    229 H229       -7.0476  -24.2863  -53.8737 H         1 UNK         0.0600 
    230 H230       -6.6155  -21.2693  -52.0477 H         1 UNK         0.3000 
    231 H231       -5.5623  -19.3986  -52.5641 H         1 UNK         0.0600 
    232 H232       -7.7029  -18.7450  -54.6443 H         1 UNK         0.0600 
    233 H233       -6.5661  -17.6306  -53.9037 H         1 UNK         0.0600 
    234 H234       -7.8216  -18.3702  -52.9248 H         1 UNK         0.0600 
    235 H235       -5.1386  -21.9936  -54.0535 H         1 UNK         0.3000 
    236 H236       -3.9605  -21.1762  -56.6246 H         1 UNK         0.0600 
    237 H237       -5.2867  -23.2909  -56.4000 H         1 UNK         0.0600 
    238 H238       -3.6342  -23.6019  -56.9099 H         1 UNK         0.0600 
    239 H239       -4.1055  -23.8991  -55.2415 H         1 UNK         0.0600 
    240 H240       -2.7060  -19.7351  -54.7140 H         1 UNK         0.3000 
    241 H241       -0.3963  -21.0710  -53.5929 H         1 UNK         0.0600 
    242 H242        0.8831  -19.7315  -57.1544 H         1 UNK         0.3800 
    243 H243       -0.8149  -19.9179  -56.8037 H         1 UNK         0.3800 
    244 H244       -1.4054  -19.3451  -52.2809 H         1 UNK         0.0800 
    245 H245        0.2034  -18.8412  -52.6788 H         1 UNK         0.0800 
    246 H246       -3.5904  -16.5221  -53.3899 H         1 UNK         0.0800 
    247 H247       -3.4712  -18.1242  -52.7171 H         1 UNK         0.0800 
@<TRIPOS>BOND
     1    1    2 1    
     2    1  127 1    
     3    1  128 1    
     4    1  129 1    
     5    2    3 2    
     6    2    4 am   BACKBONE|DICT|INTERRES
     7    4    5 1    
     8    4  130 1    
     9    5    6 1    
    10    5   65 1    
    11    5  131 1    
    12    6    7 1    
    13    6  132 1    
    14    6  133 1    
    15    7    8 1    
    16    8    9 1    
    17    8  134 1    
    18    8  135 1    
    19    9   10 ar   
    20    9   14 ar   
    21   10   11 ar   
    22   10  136 1    
    23   11   12 ar   
    24   11  126 1    
    25   12   13 ar   
    26   12  137 1    
    27   13   14 ar   
    28   13   15 1    
    29   14  138 1    
    30   15   16 1    
    31   15  139 1    
    32   15  140 1    
    33   16   17 1    
    34   17   18 1    
    35   17  141 1    
    36   17  142 1    
    37   18   19 1    
    38   18   67 1    
    39   18  143 1    
    40   19   20 am   BACKBONE|DICT|INTERRES
    41   19  144 1    
    42   20   21 2    
    43   20   22 1    
    44   22   23 1    
    45   22   24 1    
    46   22  145 1    
    47   23  146 1    
    48   23  147 1    
    49   23  148 1    
    50   24   25 am   BACKBONE|DICT|INTERRES
    51   24  149 1    
    52   25   26 2    
    53   25   27 1    
    54   27   28 1    
    55   27   29 1    
    56   27  150 1    
    57   28  151 1    
    58   28  152 1    
    59   28  153 1    
    60   29   30 am   BACKBONE|DICT|INTERRES
    61   29  154 1    
    62   30   31 2    
    63   30   32 1    
    64   32   33 1    
    65   32   34 1    
    66   32  155 1    
    67   33  156 1    
    68   33  157 1    
    69   33  158 1    
    70   34   35 am   BACKBONE|DICT|INTERRES
    71   34  159 1    
    72   35   36 2    
    73   35   37 1    
    74   37   38 1    
    75   37   39 1    
    76   37  160 1    
    77   38  161 1    
    78   38  162 1    
    79   38  163 1    
    80   39   40 am   BACKBONE|DICT|INTERRES
    81   39  164 1    
    82   40   41 2    
    83   40   42 1    
    84   42   43 1    
    85   42   44 1    
    86   42  165 1    
    87   43  166 1    
    88   43  167 1    
    89   43  168 1    
    90   44   45 am   BACKBONE|DICT|INTERRES
    91   44  169 1    
    92   45   46 2    
    93   45   47 1    
    94   47   48 1    
    95   47   49 1    
    96   47  170 1    
    97   48  171 1    
    98   48  172 1    
    99   48  173 1    
   100   49   50 am   BACKBONE|DICT|INTERRES
   101   49  174 1    
   102   50   51 2    
   103   50   52 1    
   104   52   53 1    
   105   52   54 1    
   106   52  175 1    
   107   53  176 1    
   108   53  177 1    
   109   53  178 1    
   110   54   55 am   BACKBONE|DICT|INTERRES
   111   54  179 1    
   112   55   56 2    
   113   55   57 1    
   114   57   58 1    
   115   57   59 1    
   116   57  180 1    
   117   58  181 1    
   118   58  182 1    
   119   58  183 1    
   120   59   60 am   BACKBONE|DICT|INTERRES
   121   59  184 1    
   122   60   61 2    
   123   60   62 1    
   124   62   63 1    
   125   62   64 1    
   126   62  185 1    
   127   63  186 1    
   128   63  187 1    
   129   63  188 1    
   130   64   65 am   BACKBONE|DICT|INTERRES
   131   64  189 1    
   132   65   66 2    
   133   67   68 2    
   134   67   69 am   BACKBONE|DICT|INTERRES
   135   69   70 1    
   136   69  190 1    
   137   70   71 1    
   138   70   72 1    
   139   70  191 1    
   140   71  192 1    
   141   71  193 1    
   142   71  194 1    
   143   72   73 2    
   144   72   74 am   BACKBONE|DICT|INTERRES
   145   74   75 1    
   146   74  195 1    
   147   75   76 1    
   148   75   77 1    
   149   75  196 1    
   150   76  197 1    
   151   76  198 1    
   152   76  199 1    
   153   77   78 2    
   154   77   79 am   BACKBONE|DICT|INTERRES
   155   79   80 1    
   156   79  200 1    
   157   80   81 1    
   158   80   82 1    
   159   80  201 1    
   160   81  202 1    
   161   81  203 1    
   162   81  204 1    
   163   82   83 2    
   164   82   84 am   BACKBONE|DICT|INTERRES
   165   84   85 1    
   166   84  205 1    
   167   85   86 1    
   168   85   87 1    
   169   85  206 1    
   170   86  207 1    
   171   86  208 1    
   172   86  209 1    
   173   87   88 2    
   174   87   89 am   BACKBONE|DICT|INTERRES
   175   89   90 1    
   176   89  210 1    
   177   90   91 1    
   178   90   92 1    
   179   90  211 1    
   180   91  212 1    
   181   91  213 1    
   182   91  214 1    
   183   92   93 2    
   184   92   94 am   BACKBONE|DICT|INTERRES
   185   94   95 1    
   186   94  215 1    
   187   95   96 1    
   188   95   97 1    
   189   95  216 1    
   190   96  217 1    
   191   96  218 1    
   192   96  219 1    
   193   97   98 2    
   194   97   99 am   BACKBONE|DICT|INTERRES
   195   99  100 1    
   196   99  220 1    
   197  100  101 1    
   198  100  102 1    
   199  100  221 1    
   200  101  222 1    
   201  101  223 1    
   202  101  224 1    
   203  102  103 2    
   204  102  104 am   BACKBONE|DICT|INTERRES
   205  104  105 1    
   206  104  225 1    
   207  105  106 1    
   208  105  107 1    
   209  105  226 1    
   210  106  227 1    
   211  106  228 1    
   212  106  229 1    
   213  107  108 2    
   214  107  109 am   BACKBONE|DICT|INTERRES
   215  109  110 1    
   216  109  230 1    
   217  110  111 1    
   218  110  112 1    
   219  110  231 1    
   220  111  232 1    
   221  111  233 1    
   222  111  234 1    
   223  112  113 2    
   224  112  114 am   BACKBONE|DICT|INTERRES
   225  114  115 1    
   226  114  235 1    
   227  115  116 1    
   228  115  117 1    
   229  115  236 1    
   230  116  237 1    
   231  116  238 1    
   232  116  239 1    
   233  117  118 2    
   234  117  119 am   BACKBONE|DICT|INTERRES
   235  119  120 1    
   236  119  240 1    
   237  120  121 1    
   238  120  124 1    
   239  120  241 1    
   240  121  122 am   BACKBONE|DICT|INTERRES
   241  121  123 2    
   242  122  242 1    
   243  122  243 1    
   244  124  125 1    
   245  124  244 1    
   246  124  245 1    
   247  125  126 1    
   248  126  246 1    
   249  126  247 1    
@<TRIPOS>SUBSTRUCTURE
     1 UNK         1 GROUP             0       ****    0 ROOT    
