@<TRIPOS>MOLECULE
3R540
247   249    1
SMALL
USER_CHARGES


@<TRIPOS>ATOM
      1 CA          2.9027  -14.2506  -42.7530 C.3       0 UNK        -0.1800 
      2 C           2.3232  -13.4462  -43.9059 C.2       0 UNK         0.5000 
      3 O           1.3869  -12.6763  -43.7108 O.2       0 UNK        -0.5000 
      4 N           2.8799  -13.5983  -45.1131 N.am      1 UNK        -0.5000 
      5 CA          2.4402  -12.9383  -46.3522 C.3       1 UNK         0.1400 
      6 C6          2.9754  -13.6528  -47.6169 C.3       23 UNK        -0.0398 
      7 S7          4.7721  -13.9687  -47.5780 S.3       23 UNK        -0.2404 
      8 C8          5.0222  -14.7409  -49.2056 C.3       23 UNK        -0.0205 
      9 C9          4.3836  -16.1200  -49.3056 C.ar      23 UNK        -0.0193 
     10 C10         3.1819  -16.2935  -50.0008 C.ar      23 UNK        -0.1150 
     11 C11         2.6225  -17.5651  -50.1603 C.ar      23 UNK        -0.0193 
     12 C12         3.2929  -18.6653  -49.6113 C.ar      23 UNK        -0.1150 
     13 C13         4.4748  -18.5104  -48.8819 C.ar      23 UNK        -0.0193 
     14 C14         5.0153  -17.2295  -48.7346 C.ar      23 UNK        -0.1150 
     15 C15         5.1951  -19.7272  -48.3027 C.3       23 UNK        -0.0205 
     16 S16         4.2721  -20.5515  -46.9560 S.3       23 UNK        -0.2404 
     17 C17         3.0239  -21.4998  -47.8902 C.3       23 UNK        -0.0398 
     18 CA          2.5599  -22.8082  -47.2096 C.3       11 UNK         0.1400 
     19 N           1.8840  -22.5585  -45.9301 N.am      11 UNK        -0.5000 
     20 C           1.5155  -23.5041  -45.0527 C.2       10 UNK         0.5000 
     21 O           1.6012  -24.7116  -45.2757 O.2       10 UNK        -0.5000 
     22 CA          0.9456  -23.0245  -43.7076 C.3       10 UNK         0.1400 
     23 CB          2.0526  -22.4145  -42.8327 C.3       10 UNK        -0.1800 
     24 N          -0.1014  -22.0309  -43.9250 N.am      10 UNK        -0.5000 
     25 C          -1.4127  -22.2350  -43.7344 C.2       9 UNK         0.5000 
     26 O          -1.8817  -23.2544  -43.2287 O.2       9 UNK        -0.5000 
     27 CA         -2.3776  -21.1204  -44.1932 C.3       9 UNK         0.1400 
     28 CB         -2.8601  -20.2941  -42.9919 C.3       9 UNK        -0.1800 
     29 N          -1.7982  -20.2161  -45.1873 N.am      9 UNK        -0.5000 
     30 C          -1.4159  -20.5799  -46.4191 C.2       8 UNK         0.5000 
     31 O          -1.5868  -21.7062  -46.8808 O.2       8 UNK        -0.5000 
     32 CA         -0.6663  -19.5346  -47.2622 C.3       8 UNK         0.1400 
     33 CB         -1.6327  -18.8681  -48.2395 C.3       8 UNK        -0.1800 
     34 N           0.0117  -18.5034  -46.4766 N.am      8 UNK        -0.5000 
     35 C           0.9751  -18.7250  -45.5692 C.2       7 UNK         0.5000 
     36 O           1.3794  -19.8502  -45.2747 O.2       7 UNK        -0.5000 
     37 CA          1.5530  -17.4996  -44.8358 C.3       7 UNK         0.1400 
     38 CB          2.8536  -17.0561  -45.5218 C.3       7 UNK        -0.1800 
     39 N           0.6182  -16.3705  -44.7608 N.am      7 UNK        -0.5000 
     40 C          -0.5624  -16.3973  -44.1221 C.2       6 UNK         0.5000 
     41 O          -0.9328  -17.3464  -43.4305 O.2       6 UNK        -0.5000 
     42 CA         -1.5239  -15.2055  -44.3321 C.3       6 UNK         0.1400 
     43 CB         -1.5973  -14.3314  -43.0716 C.3       6 UNK        -0.1800 
     44 N          -1.2576  -14.3640  -45.5106 N.am      6 UNK        -0.5000 
     45 C          -1.2808  -14.8134  -46.7777 C.2       5 UNK         0.5000 
     46 O          -1.3773  -16.0078  -47.0532 O.2       5 UNK        -0.5000 
     47 CA         -1.1815  -13.8000  -47.9324 C.3       5 UNK         0.1400 
     48 CB         -2.1228  -14.1804  -49.0962 C.3       5 UNK        -0.1800 
     49 N          -1.4483  -12.4313  -47.4941 N.am      5 UNK        -0.5000 
     50 C          -1.1050  -11.3242  -48.1599 C.2       4 UNK         0.5000 
     51 O          -0.4640  -11.3311  -49.2112 O.2       4 UNK        -0.5000 
     52 CA         -1.5757   -9.9805  -47.5698 C.3       4 UNK         0.1400 
     53 CB         -3.1135   -9.8708  -47.5696 C.3       4 UNK        -0.1800 
     54 N          -1.0195   -9.6642  -46.2493 N.am      4 UNK        -0.5000 
     55 C          -1.1894  -10.3015  -45.0830 C.2       3 UNK         0.5000 
     56 O          -1.8448  -11.3381  -44.9503 O.2       3 UNK        -0.5000 
     57 CA         -0.4512   -9.6818  -43.8820 C.3       3 UNK         0.1400 
     58 CB         -0.8477  -10.3246  -42.5409 C.3       3 UNK        -0.1800 
     59 N           0.9854   -9.8422  -44.0847 N.am      3 UNK        -0.5000 
     60 C           1.7967   -8.9471  -44.6682 C.2       2 UNK         0.5000 
     61 O           1.4393   -7.8131  -44.9883 O.2       2 UNK        -0.5000 
     62 CA          3.2280   -9.4180  -45.0088 C.3       2 UNK         0.1400 
     63 CB          4.1847   -9.1315  -43.8419 C.3       2 UNK        -0.1800 
     64 N           3.2758  -10.8456  -45.3309 N.am      2 UNK        -0.5000 
     65 C           2.6605  -11.4068  -46.3821 C.2       1 UNK         0.5000 
     66 O           2.2077  -10.7516  -47.3201 O.2       1 UNK        -0.5000 
     67 C           1.7067  -23.6166  -48.2114 C.2       11 UNK         0.5000 
     68 O           2.2644  -24.4207  -48.9590 O.2       11 UNK        -0.5000 
     69 N           0.3881  -23.3833  -48.2229 N.am      12 UNK        -0.5000 
     70 CA         -0.5692  -23.9997  -49.1423 C.3       12 UNK         0.1400 
     71 CB         -1.1565  -22.9161  -50.0659 C.3       12 UNK        -0.1800 
     72 C          -1.6473  -24.7824  -48.3712 C.2       12 UNK         0.5000 
     73 O          -2.7547  -24.9682  -48.8783 O.2       12 UNK        -0.5000 
     74 N          -1.2992  -25.2663  -47.1687 N.am      13 UNK        -0.5000 
     75 CA         -2.1594  -26.0851  -46.3097 C.3       13 UNK         0.1400 
     76 CB         -1.4332  -26.3641  -44.9860 C.3       13 UNK        -0.1800 
     77 C          -2.5811  -27.4106  -46.9712 C.2       13 UNK         0.5000 
     78 O          -3.7251  -27.8361  -46.8137 O.2       13 UNK        -0.5000 
     79 N          -1.6613  -28.0087  -47.7420 N.am      14 UNK        -0.5000 
     80 CA         -1.8702  -29.2393  -48.5080 C.3       14 UNK         0.1400 
     81 CB         -0.5128  -29.7355  -49.0289 C.3       14 UNK        -0.1800 
     82 C          -2.8689  -29.0832  -49.6726 C.2       14 UNK         0.5000 
     83 O          -3.4656  -30.0763  -50.0898 O.2       14 UNK        -0.5000 
     84 N          -3.0463  -27.8493  -50.1671 N.am      15 UNK        -0.5000 
     85 CA         -4.0222  -27.5059  -51.2026 C.3       15 UNK         0.1400 
     86 CB         -3.5261  -26.2701  -51.9720 C.3       15 UNK        -0.1800 
     87 C          -5.4298  -27.2544  -50.6274 C.2       15 UNK         0.5000 
     88 O          -6.3769  -27.1357  -51.4048 O.2       15 UNK        -0.5000 
     89 N          -5.5434  -27.1414  -49.2935 N.am      16 UNK        -0.5000 
     90 CA         -6.7366  -26.8962  -48.4688 C.3       16 UNK         0.1400 
     91 CB         -7.7800  -28.0142  -48.6510 C.3       16 UNK        -0.1800 
     92 C          -7.3788  -25.5043  -48.6443 C.2       16 UNK         0.5000 
     93 O          -7.8666  -24.9374  -47.6663 O.2       16 UNK        -0.5000 
     94 N          -7.3541  -24.9682  -49.8694 N.am      17 UNK        -0.5000 
     95 CA         -7.8783  -23.6563  -50.2494 C.3       17 UNK         0.1400 
     96 CB         -8.0373  -23.6282  -51.7765 C.3       17 UNK        -0.1800 
     97 C          -7.0112  -22.4759  -49.7628 C.2       17 UNK         0.5000 
     98 O          -7.4798  -21.3368  -49.7973 O.2       17 UNK        -0.5000 
     99 N          -5.7760  -22.7621  -49.3201 N.am      18 UNK        -0.5000 
    100 CA        -4.8002  -21.8338  -48.7451 C.3       18 UNK         0.1400 
    101 CB        -5.2436  -21.3930  -47.3325 C.3       18 UNK        -0.1800 
    102 C         -4.4878  -20.6666  -49.7018 C.2       18 UNK         0.5000 
    103 O         -3.9333  -20.9048  -50.7754 O.2       18 UNK        -0.5000 
    104 N         -4.8457  -19.4322  -49.3201 N.am      19 UNK        -0.5000 
    105 CA        -4.5882  -18.2032  -50.0773 C.3       19 UNK         0.1400 
    106 CB        -5.0522  -16.9922  -49.2552 C.3       19 UNK        -0.1800 
    107 C         -5.2119  -18.1833  -51.4847 C.2       19 UNK         0.5000 
    108 O         -4.6383  -17.5699  -52.3848 O.2       19 UNK        -0.5000 
    109 N         -6.3365  -18.8887  -51.6692 N.am      20 UNK        -0.5000 
    110 CA        -6.9923  -19.0486  -52.9679 C.3       20 UNK         0.1400 
    111 CB        -8.4275  -19.5493  -52.7547 C.3       20 UNK        -0.1800 
    112 C         -6.2144  -19.9646  -53.9360 C.2       20 UNK         0.5000 
    113 O         -6.3762  -19.8225  -55.1486 O.2       20 UNK        -0.5000 
    114 N         -5.3747  -20.8629  -53.4002 N.am      21 UNK        -0.5000 
    115 CA        -4.4292  -21.6652  -54.1772 C.3       21 UNK         0.1400 
    116 CB        -4.2237  -23.0314  -53.5017 C.3       21 UNK        -0.1800 
    117 C         -3.0865  -20.9320  -54.3410 C.2       21 UNK         0.5000 
    118 O         -2.5103  -20.9589  -55.4291 O.2       21 UNK        -0.5000 
    119 N         -2.6129  -20.3018  -53.2578 N.am      22 UNK        -0.5000 
    120 CA        -1.3383  -19.5694  -53.1978 C.3       22 UNK         0.1400 
    121 C         -1.2968  -18.2715  -54.0538 C.2       22 UNK         0.5000 
    122 N         -2.3853  -17.5188  -54.1551 N.am      22 UNK        -0.7600 
    123 O         -0.2689  -17.9484  -54.6421 O.2       22 UNK        -0.5000 
    124 C124       -0.9287  -19.2917  -51.7289 C.3       23 UNK        -0.0398 
    125 S125        0.8687  -19.3980  -51.4468 S.3       23 UNK        -0.2404 
    126 C126        1.2877  -17.7014  -50.9015 C.3       23 UNK        -0.0205 
    127 H127        3.1173  -13.5953  -41.9090 H         1 UNK         0.0600 
    128 H128        3.8271  -14.7548  -43.0347 H         1 UNK         0.0600 
    129 H129        2.1857  -15.0044  -42.4278 H         1 UNK         0.0600 
    130 H130        3.6878  -14.1968  -45.2190 H         1 UNK         0.3000 
    131 H131        1.3546  -13.0458  -46.3809 H         1 UNK         0.0600 
    132 H132        2.7242  -13.0974  -48.5227 H         1 UNK         0.0800 
    133 H133        2.4703  -14.6134  -47.7168 H         1 UNK         0.0800 
    134 H134        4.6378  -14.0798  -49.9839 H         1 UNK         0.0800 
    135 H135        6.0940  -14.8291  -49.3887 H         1 UNK         0.0800 
    136 H136        2.6846  -15.4349  -50.4301 H         1 UNK         0.1150 
    137 H137        2.8979  -19.6550  -49.7539 H         1 UNK         0.1150 
    138 H138        5.9409  -17.0938  -48.1930 H         1 UNK         0.1150 
    139 H139        5.4072  -20.4396  -49.1009 H         1 UNK         0.0800 
    140 H140        6.1669  -19.4291  -47.9067 H         1 UNK         0.0800 
    141 H141        3.4422  -21.7245  -48.8733 H         1 UNK         0.0800 
    142 H142        2.1670  -20.8496  -48.0567 H         1 UNK         0.0800 
    143 H143        3.4467  -23.4076  -46.9926 H         1 UNK         0.0600 
    144 H144        1.7942  -21.5798  -45.6648 H         1 UNK         0.3000 
    145 H145        0.5472  -23.8966  -43.1851 H         1 UNK         0.0600 
    146 H146        2.8564  -23.1321  -42.6637 H         1 UNK         0.0600 
    147 H147        2.4935  -21.5284  -43.2912 H         1 UNK         0.0600 
    148 H148        1.6641  -22.1252  -41.8561 H         1 UNK         0.0600 
    149 H149        0.1969  -21.1606  -44.3517 H         1 UNK         0.3000 
    150 H150       -3.2440  -21.6061  -44.6470 H         1 UNK         0.0600 
    151 H151       -3.3417  -20.9297  -42.2478 H         1 UNK         0.0600 
    152 H152       -3.5877  -19.5415  -43.2962 H         1 UNK         0.0600 
    153 H153       -2.0325  -19.7814  -42.5000 H         1 UNK         0.0600 
    154 H154       -1.5970  -19.2747  -44.8774 H         1 UNK         0.3000 
    155 H155        0.0897  -20.0588  -47.8458 H         1 UNK         0.0600 
    156 H156       -2.4757  -18.4070  -47.7236 H         1 UNK         0.0600 
    157 H157       -1.1403  -18.0984  -48.8306 H         1 UNK         0.0600 
    158 H158       -2.0268  -19.6079  -48.9308 H         1 UNK         0.0600 
    159 H159       -0.3096  -17.5517  -46.6322 H         1 UNK         0.3000 
    160 H160        1.7901  -17.8108  -43.8165 H         1 UNK         0.0600 
    161 H161        2.6719  -16.6704  -46.5251 H         1 UNK         0.0600 
    162 H162        3.5476  -17.8918  -45.6199 H         1 UNK         0.0600 
    163 H163        3.3677  -16.2909  -44.9448 H         1 UNK         0.0600 
    164 H164        0.8340  -15.5600  -45.3197 H         1 UNK         0.3000 
    165 H165       -2.5150  -15.6388  -44.4821 H         1 UNK         0.0600 
    166 H166       -2.3043  -13.5109  -43.1960 H         1 UNK         0.0600 
    167 H167       -1.9290  -14.9162  -42.2128 H         1 UNK         0.0600 
    168 H168       -0.6294  -13.9061  -42.8152 H         1 UNK         0.0600 
    169 H169       -1.1596  -13.3729  -45.3272 H         1 UNK         0.3000 
    170 H170       -0.1528  -13.8521  -48.2935 H         1 UNK         0.0600 
    171 H171       -1.9188  -15.1878  -49.4618 H         1 UNK         0.0600 
    172 H172       -3.1683  -14.1484  -48.7879 H         1 UNK         0.0600 
    173 H173       -2.0047  -13.5083  -49.9459 H         1 UNK         0.0600 
    174 H174       -1.9453  -12.3116  -46.6161 H         1 UNK         0.3000 
    175 H175       -1.1999   -9.2031  -48.2370 H         1 UNK         0.0600 
    176 H176       -3.5798  -10.5927  -46.8987 H         1 UNK         0.0600 
    177 H177       -3.4353   -8.8756  -47.2628 H         1 UNK         0.0600 
    178 H178       -3.5157  -10.0481  -48.5678 H         1 UNK         0.0600 
    179 H179       -0.4047   -8.8607  -46.2374 H         1 UNK         0.3000 
    180 H180       -0.7138   -8.6230  -43.8345 H         1 UNK         0.0600 
    181 H181       -0.6188  -11.3899  -42.5155 H         1 UNK         0.0600 
    182 H182       -1.9173  -10.2153  -42.3582 H         1 UNK         0.0600 
    183 H183       -0.3249   -9.8520  -41.7095 H         1 UNK         0.0600 
    184 H184        1.3346  -10.7806  -43.9082 H         1 UNK         0.3000 
    185 H185        3.5685   -8.8573  -45.8817 H         1 UNK         0.0600 
    186 H186        4.1873   -8.0697  -43.5921 H         1 UNK         0.0600 
    187 H187        3.8997   -9.6799  -42.9430 H         1 UNK         0.0600 
    188 H188        5.2086   -9.4078  -44.0943 H         1 UNK         0.0600 
    189 H189        3.6267  -11.4596  -44.6109 H         1 UNK         0.3000 
    190 H190       -0.0212  -22.7425  -47.5501 H         1 UNK         0.3000 
    191 H191       -0.0726  -24.7357  -49.7771 H         1 UNK         0.0600 
    192 H192       -1.6569  -22.1317  -49.5006 H         1 UNK         0.0600 
    193 H193       -1.8830  -23.3335  -50.7641 H         1 UNK         0.0600 
    194 H194       -0.3740  -22.4451  -50.6608 H         1 UNK         0.0600 
    195 H195       -0.3691  -25.0710  -46.8243 H         1 UNK         0.3000 
    196 H196       -3.0634  -25.5108  -46.0969 H         1 UNK         0.0600 
    197 H197       -2.0678  -26.9299  -44.3028 H         1 UNK         0.0600 
    198 H198       -1.1601  -25.4382  -44.4830 H         1 UNK         0.0600 
    199 H199       -0.5186  -26.9383  -45.1398 H         1 UNK         0.0600 
    200 H200       -0.7491  -27.5822  -47.8134 H         1 UNK         0.3000 
    201 H201       -2.2742  -29.9939  -47.8298 H         1 UNK         0.0600 
    202 H202        0.1794  -29.9261  -48.2085 H         1 UNK         0.0600 
    203 H203       -0.0494  -29.0104  -49.6991 H         1 UNK         0.0600 
    204 H204       -0.6236  -30.6694  -49.5817 H         1 UNK         0.0600 
    205 H205       -2.5507  -27.0750  -49.7459 H         1 UNK         0.3000 
    206 H206       -4.0999  -28.3331  -51.9112 H         1 UNK         0.0600 
    207 H207       -4.1779  -26.0544  -52.8194 H         1 UNK         0.0600 
    208 H208       -3.5065  -25.3793  -51.3444 H         1 UNK         0.0600 
    209 H209       -2.5224  -26.4251  -52.3679 H         1 UNK         0.0600 
    210 H210       -4.6911  -27.2410  -48.7567 H         1 UNK         0.3000 
    211 H211       -6.3873  -26.9434  -47.4361 H         1 UNK         0.0600 
    212 H212       -8.2014  -28.0207  -49.6565 H         1 UNK         0.0600 
    213 H213       -8.6087  -27.8891  -47.9530 H         1 UNK         0.0600 
    214 H214       -7.3426  -28.9949  -48.4633 H         1 UNK         0.0600 
    215 H215       -6.9787  -25.5474  -50.6154 H         1 UNK         0.3000 
    216 H216       -8.8669  -23.5421  -49.8002 H         1 UNK         0.0600 
    217 H217       -7.0726  -23.6675  -52.2805 H         1 UNK         0.0600 
    218 H218       -8.5456  -22.7228  -52.1032 H         1 UNK         0.0600 
    219 H219       -8.6327  -24.4713  -52.1276 H         1 UNK         0.0600 
    220 H220       -5.4752  -23.7246  -49.3746 H         1 UNK         0.3000 
    221 H221       -3.8706  -22.3923  -48.6337 H         1 UNK         0.0600 
    222 H222       -6.2008  -20.8706  -47.3424 H         1 UNK         0.0600 
    223 H223       -5.3489  -22.2568  -46.6760 H         1 UNK         0.0600 
    224 H224       -4.5054  -20.7344  -46.8734 H         1 UNK         0.0600 
    225 H225       -5.3343  -19.3262  -48.4432 H         1 UNK         0.3000 
    226 H226       -3.5097  -18.1194  -50.2147 H         1 UNK         0.0600 
    227 H227       -4.5189  -16.9312  -48.3061 H         1 UNK         0.0600 
    228 H228       -4.8625  -16.0608  -49.7904 H         1 UNK         0.0600 
    229 H229       -6.1206  -17.0371  -49.0408 H         1 UNK         0.0600 
    230 H230       -6.7302  -19.4014  -50.8895 H         1 UNK         0.3000 
    231 H231       -7.0531  -18.0657  -53.4405 H         1 UNK         0.0600 
    232 H232       -8.9345  -19.7122  -53.7066 H         1 UNK         0.0600 
    233 H233       -9.0160  -18.8238  -52.1930 H         1 UNK         0.0600 
    234 H234       -8.4464  -20.4876  -52.2047 H         1 UNK         0.0600 
    235 H235       -5.2606  -20.8862  -52.3944 H         1 UNK         0.3000 
    236 H236       -4.8315  -21.8492  -55.1757 H         1 UNK         0.0600 
    237 H237       -5.1405  -23.6182  -53.5183 H         1 UNK         0.0600 
    238 H238       -3.4633  -23.6141  -54.0232 H         1 UNK         0.0600 
    239 H239       -3.9044  -22.9344  -52.4640 H         1 UNK         0.0600 
    240 H240       -3.1315  -20.3830  -52.3883 H         1 UNK         0.3000 
    241 H241       -0.5961  -20.2449  -53.6285 H         1 UNK         0.0600 
    242 H242       -3.2248  -17.7226  -53.6189 H         1 UNK         0.3800 
    243 H243       -2.3539  -16.6853  -54.7196 H         1 UNK         0.3800 
    244 H244       -1.3256  -18.3393  -51.3741 H         1 UNK         0.0800 
    245 H245       -1.3636  -20.0504  -51.0794 H         1 UNK         0.0800 
    246 H246        0.5062  -17.3286  -50.2403 H         1 UNK         0.0800 
    247 H247        1.2880  -17.0532  -51.7792 H         1 UNK         0.0800 
@<TRIPOS>BOND
     1    1    2 1    
     2    1  127 1    
     3    1  128 1    
     4    1  129 1    
     5    2    3 2    
     6    2    4 am   BACKBONE|DICT|INTERRES
     7    4    5 1    
     8    4  130 1    
     9    5    6 1    
    10    5   65 1    
    11    5  131 1    
    12    6    7 1    
    13    6  132 1    
    14    6  133 1    
    15    7    8 1    
    16    8    9 1    
    17    8  134 1    
    18    8  135 1    
    19    9   10 ar   
    20    9   14 ar   
    21   10   11 ar   
    22   10  136 1    
    23   11   12 ar   
    24   11  126 1    
    25   12   13 ar   
    26   12  137 1    
    27   13   14 ar   
    28   13   15 1    
    29   14  138 1    
    30   15   16 1    
    31   15  139 1    
    32   15  140 1    
    33   16   17 1    
    34   17   18 1    
    35   17  141 1    
    36   17  142 1    
    37   18   19 1    
    38   18   67 1    
    39   18  143 1    
    40   19   20 am   BACKBONE|DICT|INTERRES
    41   19  144 1    
    42   20   21 2    
    43   20   22 1    
    44   22   23 1    
    45   22   24 1    
    46   22  145 1    
    47   23  146 1    
    48   23  147 1    
    49   23  148 1    
    50   24   25 am   BACKBONE|DICT|INTERRES
    51   24  149 1    
    52   25   26 2    
    53   25   27 1    
    54   27   28 1    
    55   27   29 1    
    56   27  150 1    
    57   28  151 1    
    58   28  152 1    
    59   28  153 1    
    60   29   30 am   BACKBONE|DICT|INTERRES
    61   29  154 1    
    62   30   31 2    
    63   30   32 1    
    64   32   33 1    
    65   32   34 1    
    66   32  155 1    
    67   33  156 1    
    68   33  157 1    
    69   33  158 1    
    70   34   35 am   BACKBONE|DICT|INTERRES
    71   34  159 1    
    72   35   36 2    
    73   35   37 1    
    74   37   38 1    
    75   37   39 1    
    76   37  160 1    
    77   38  161 1    
    78   38  162 1    
    79   38  163 1    
    80   39   40 am   BACKBONE|DICT|INTERRES
    81   39  164 1    
    82   40   41 2    
    83   40   42 1    
    84   42   43 1    
    85   42   44 1    
    86   42  165 1    
    87   43  166 1    
    88   43  167 1    
    89   43  168 1    
    90   44   45 am   BACKBONE|DICT|INTERRES
    91   44  169 1    
    92   45   46 2    
    93   45   47 1    
    94   47   48 1    
    95   47   49 1    
    96   47  170 1    
    97   48  171 1    
    98   48  172 1    
    99   48  173 1    
   100   49   50 am   BACKBONE|DICT|INTERRES
   101   49  174 1    
   102   50   51 2    
   103   50   52 1    
   104   52   53 1    
   105   52   54 1    
   106   52  175 1    
   107   53  176 1    
   108   53  177 1    
   109   53  178 1    
   110   54   55 am   BACKBONE|DICT|INTERRES
   111   54  179 1    
   112   55   56 2    
   113   55   57 1    
   114   57   58 1    
   115   57   59 1    
   116   57  180 1    
   117   58  181 1    
   118   58  182 1    
   119   58  183 1    
   120   59   60 am   BACKBONE|DICT|INTERRES
   121   59  184 1    
   122   60   61 2    
   123   60   62 1    
   124   62   63 1    
   125   62   64 1    
   126   62  185 1    
   127   63  186 1    
   128   63  187 1    
   129   63  188 1    
   130   64   65 am   BACKBONE|DICT|INTERRES
   131   64  189 1    
   132   65   66 2    
   133   67   68 2    
   134   67   69 am   BACKBONE|DICT|INTERRES
   135   69   70 1    
   136   69  190 1    
   137   70   71 1    
   138   70   72 1    
   139   70  191 1    
   140   71  192 1    
   141   71  193 1    
   142   71  194 1    
   143   72   73 2    
   144   72   74 am   BACKBONE|DICT|INTERRES
   145   74   75 1    
   146   74  195 1    
   147   75   76 1    
   148   75   77 1    
   149   75  196 1    
   150   76  197 1    
   151   76  198 1    
   152   76  199 1    
   153   77   78 2    
   154   77   79 am   BACKBONE|DICT|INTERRES
   155   79   80 1    
   156   79  200 1    
   157   80   81 1    
   158   80   82 1    
   159   80  201 1    
   160   81  202 1    
   161   81  203 1    
   162   81  204 1    
   163   82   83 2    
   164   82   84 am   BACKBONE|DICT|INTERRES
   165   84   85 1    
   166   84  205 1    
   167   85   86 1    
   168   85   87 1    
   169   85  206 1    
   170   86  207 1    
   171   86  208 1    
   172   86  209 1    
   173   87   88 2    
   174   87   89 am   BACKBONE|DICT|INTERRES
   175   89   90 1    
   176   89  210 1    
   177   90   91 1    
   178   90   92 1    
   179   90  211 1    
   180   91  212 1    
   181   91  213 1    
   182   91  214 1    
   183   92   93 2    
   184   92   94 am   BACKBONE|DICT|INTERRES
   185   94   95 1    
   186   94  215 1    
   187   95   96 1    
   188   95   97 1    
   189   95  216 1    
   190   96  217 1    
   191   96  218 1    
   192   96  219 1    
   193   97   98 2    
   194   97   99 am   BACKBONE|DICT|INTERRES
   195   99  100 1    
   196   99  220 1    
   197  100  101 1    
   198  100  102 1    
   199  100  221 1    
   200  101  222 1    
   201  101  223 1    
   202  101  224 1    
   203  102  103 2    
   204  102  104 am   BACKBONE|DICT|INTERRES
   205  104  105 1    
   206  104  225 1    
   207  105  106 1    
   208  105  107 1    
   209  105  226 1    
   210  106  227 1    
   211  106  228 1    
   212  106  229 1    
   213  107  108 2    
   214  107  109 am   BACKBONE|DICT|INTERRES
   215  109  110 1    
   216  109  230 1    
   217  110  111 1    
   218  110  112 1    
   219  110  231 1    
   220  111  232 1    
   221  111  233 1    
   222  111  234 1    
   223  112  113 2    
   224  112  114 am   BACKBONE|DICT|INTERRES
   225  114  115 1    
   226  114  235 1    
   227  115  116 1    
   228  115  117 1    
   229  115  236 1    
   230  116  237 1    
   231  116  238 1    
   232  116  239 1    
   233  117  118 2    
   234  117  119 am   BACKBONE|DICT|INTERRES
   235  119  120 1    
   236  119  240 1    
   237  120  121 1    
   238  120  124 1    
   239  120  241 1    
   240  121  122 am   BACKBONE|DICT|INTERRES
   241  121  123 2    
   242  122  242 1    
   243  122  243 1    
   244  124  125 1    
   245  124  244 1    
   246  124  245 1    
   247  125  126 1    
   248  126  246 1    
   249  126  247 1    
@<TRIPOS>SUBSTRUCTURE
     1 UNK         1 GROUP             0       ****    0 ROOT    
