@<TRIPOS>MOLECULE
3R540
247   249    1
SMALL
USER_CHARGES


@<TRIPOS>ATOM
      1 CA          4.8284   -8.8402  -51.5966 C.3       0 UNK        -0.1800 
      2 C           5.4128  -10.0253  -50.8406 C.2       0 UNK         0.5000 
      3 O           6.6143  -10.0478  -50.5710 O.2       0 UNK        -0.5000 
      4 N           4.5712  -11.0112  -50.5072 N.am      1 UNK        -0.5000 
      5 CA          4.9325  -12.2082  -49.7401 C.3       1 UNK         0.1400 
      6 C6          3.8233  -13.2882  -49.7975 C.3       23 UNK        -0.0398 
      7 S7          3.5369  -13.8576  -51.5077 S.3       23 UNK        -0.2404 
      8 C8          3.8490  -15.6529  -51.3782 C.3       23 UNK        -0.0205 
      9 C9          2.6802  -16.4766  -50.8347 C.ar      23 UNK        -0.0193 
     10 C10         1.3477  -16.0878  -51.0250 C.ar      23 UNK        -0.1150 
     11 C11         0.2952  -16.9002  -50.5950 C.ar      23 UNK        -0.0193 
     12 C12         0.5791  -18.1133  -49.9637 C.ar      23 UNK        -0.1150 
     13 C13         1.9009  -18.5169  -49.7624 C.ar      23 UNK        -0.0193 
     14 C14         2.9449  -17.6931  -50.1955 C.ar      23 UNK        -0.1150 
     15 C15         2.1917  -19.8565  -49.1033 C.3       23 UNK        -0.0205 
     16 S16         1.9640  -19.7642  -47.3033 S.3       23 UNK        -0.2404 
     17 C17         2.2176  -21.4971  -46.8053 C.3       23 UNK        -0.0398 
     18 CA          0.9306  -22.3152  -46.5334 C.3       11 UNK         0.1400 
     19 N           0.0860  -21.7924  -45.4517 N.am      11 UNK        -0.5000 
     20 C          -0.8130  -22.5545  -44.8080 C.2       10 UNK         0.5000 
     21 O          -0.9812  -23.7504  -45.0519 O.2       10 UNK        -0.5000 
     22 CA         -1.7007  -21.8817  -43.7463 C.3       10 UNK         0.1400 
     23 CB         -0.9315  -21.6674  -42.4344 C.3       10 UNK        -0.1800 
     24 N          -2.2877  -20.6225  -44.2030 N.am      10 UNK        -0.5000 
     25 C          -3.1687  -20.5210  -45.2086 C.2       9 UNK         0.5000 
     26 O          -3.5818  -21.4853  -45.8507 O.2       9 UNK        -0.5000 
     27 CA         -3.6463  -19.1070  -45.5875 C.3       9 UNK         0.1400 
     28 CB         -4.7893  -18.6489  -44.6703 C.3       9 UNK        -0.1800 
     29 N          -2.5664  -18.1220  -45.5667 N.am      9 UNK        -0.5000 
     30 C          -1.5037  -18.1600  -46.3835 C.2       8 UNK         0.5000 
     31 O          -1.3661  -18.9915  -47.2794 O.2       8 UNK        -0.5000 
     32 CA         -0.3868  -17.1361  -46.1143 C.3       8 UNK         0.1400 
     33 CB         -0.7445  -15.7598  -46.6936 C.3       8 UNK        -0.1800 
     34 N          -0.0853  -17.0101  -44.6888 N.am      8 UNK        -0.5000 
     35 C           0.3563  -17.9994  -43.8987 C.2       7 UNK         0.5000 
     36 O           0.6218  -19.1336  -44.2949 O.2       7 UNK        -0.5000 
     37 CA          0.4577  -17.6846  -42.3966 C.3       7 UNK         0.1400 
     38 CB          1.7605  -16.9423  -42.0641 C.3       7 UNK        -0.1800 
     39 N          -0.6882  -16.9080  -41.9233 N.am      7 UNK        -0.5000 
     40 C          -1.9300  -17.3957  -41.7976 C.2       6 UNK         0.5000 
     41 O          -2.2314  -18.5637  -42.0401 O.2       6 UNK        -0.5000 
     42 CA         -3.0224  -16.4050  -41.3546 C.3       6 UNK         0.1400 
     43 CB         -3.0405  -16.2684  -39.8249 C.3       6 UNK        -0.1800 
     44 N          -2.8620  -15.0808  -41.9576 N.am      6 UNK        -0.5000 
     45 C          -3.0389  -14.8194  -43.2602 C.2       5 UNK         0.5000 
     46 O          -3.3831  -15.6646  -44.0862 O.2       5 UNK        -0.5000 
     47 CA         -2.7254  -13.3826  -43.7251 C.3       5 UNK         0.1400 
     48 CB         -3.9352  -12.4644  -43.4963 C.3       5 UNK        -0.1800 
     49 N          -1.5389  -12.7955  -43.0885 N.am      5 UNK        -0.5000 
     50 C          -0.3122  -13.3307  -43.1391 C.2       4 UNK         0.5000 
     51 O          -0.0699  -14.4099  -43.6817 O.2       4 UNK        -0.5000 
     52 CA          0.8213  -12.5698  -42.4257 C.3       4 UNK         0.1400 
     53 CB          0.7160  -12.7609  -40.9040 C.3       4 UNK        -0.1800 
     54 N           2.1261  -13.0657  -42.8668 N.am      4 UNK        -0.5000 
     55 C           2.6710  -12.8050  -44.0604 C.2       3 UNK         0.5000 
     56 O           2.2450  -11.9525  -44.8441 O.2       3 UNK        -0.5000 
     57 CA          3.8683  -13.6770  -44.4577 C.3       3 UNK         0.1400 
     58 CB          3.4008  -14.9279  -45.2259 C.3       3 UNK        -0.1800 
     59 N           4.7671  -12.9004  -45.3008 N.am      3 UNK        -0.5000 
     60 C           6.0894  -13.0672  -45.3886 C.2       2 UNK         0.5000 
     61 O           6.7107  -13.9220  -44.7538 O.2       2 UNK        -0.5000 
     62 CA          6.8259  -12.1424  -46.3793 C.3       2 UNK         0.1400 
     63 CB          8.3542  -12.3268  -46.3436 C.3       2 UNK        -0.1800 
     64 N           6.3597  -12.3592  -47.7500 N.am      2 UNK        -0.5000 
     65 C           5.2500  -11.8311  -48.2798 C.2       1 UNK         0.5000 
     66 O           4.4823  -11.0919  -47.6580 O.2       1 UNK        -0.5000 
     67 C           0.1224  -22.6256  -47.8108 C.2       11 UNK         0.5000 
     68 O           0.4397  -23.6005  -48.4906 O.2       11 UNK        -0.5000 
     69 N          -0.9365  -21.8500  -48.0910 N.am      12 UNK        -0.5000 
     70 CA         -1.8933  -22.1362  -49.1616 C.3       12 UNK         0.1400 
     71 CB         -2.8446  -20.9505  -49.3483 C.3       12 UNK        -0.1800 
     72 C          -2.6879  -23.4314  -48.9174 C.2       12 UNK         0.5000 
     73 O          -2.8715  -24.2146  -49.8489 O.2       12 UNK        -0.5000 
     74 N          -3.1201  -23.6585  -47.6698 N.am      13 UNK        -0.5000 
     75 CA         -3.7710  -24.8948  -47.2372 C.3       13 UNK         0.1400 
     76 CB         -4.3297  -24.7289  -45.8170 C.3       13 UNK        -0.1800 
     77 C          -2.8386  -26.1150  -47.3376 C.2       13 UNK         0.5000 
     78 O          -3.2647  -27.1553  -47.8390 O.2       13 UNK        -0.5000 
     79 N          -1.5720  -25.9513  -46.9280 N.am      14 UNK        -0.5000 
     80 CA         -0.5168  -26.9617  -47.0620 C.3       14 UNK         0.1400 
     81 CB          0.7415  -26.4937  -46.3166 C.3       14 UNK        -0.1800 
     82 C          -0.1864  -27.3031  -48.5300 C.2       14 UNK         0.5000 
     83 O           0.0887  -28.4630  -48.8376 O.2       14 UNK        -0.5000 
     84 N          -0.2637  -26.2987  -49.4137 N.am      15 UNK        -0.5000 
     85 CA         -0.1205  -26.4272  -50.8663 C.3       15 UNK         0.1400 
     86 CB          0.2371  -25.0501  -51.4508 C.3       15 UNK        -0.1800 
     87 C          -1.3694  -27.0070  -51.5676 C.2       15 UNK         0.5000 
     88 O          -1.3291  -27.2086  -52.7819 O.2       15 UNK        -0.5000 
     89 N          -2.4492  -27.2527  -50.8092 N.am      16 UNK        -0.5000 
     90 CA         -3.7545  -27.7662  -51.2391 C.3       16 UNK         0.1400 
     91 CB         -3.6300  -29.1679  -51.8726 C.3       16 UNK        -0.1800 
     92 C          -4.5578  -26.7767  -52.1105 C.2       16 UNK         0.5000 
     93 O          -5.4587  -27.1956  -52.8392 O.2       16 UNK        -0.5000 
     94 N          -4.2549  -25.4770  -51.9894 N.am      17 UNK        -0.5000 
     95 CA         -5.0034  -24.3785  -52.6051 C.3       17 UNK         0.1400 
     96 CB         -4.0253  -23.2460  -52.9462 C.3       17 UNK        -0.1800 
     97 C          -6.1433  -23.8753  -51.6936 C.2       17 UNK         0.5000 
     98 O          -6.9557  -23.0581  -52.1298 O.2       17 UNK        -0.5000 
     99 N          -6.1803  -24.3660  -50.4425 N.am      18 UNK        -0.5000 
    100 CA        -7.2336  -24.1986  -49.4295 C.3       18 UNK         0.1400 
    101 CB        -8.5239  -24.9047  -49.8945 C.3       18 UNK        -0.1800 
    102 C         -7.4969  -22.7392  -49.0002 C.2       18 UNK         0.5000 
    103 O         -8.5589  -22.4512  -48.4475 O.2       18 UNK        -0.5000 
    104 N         -6.5391  -21.8453  -49.2860 N.am      19 UNK        -0.5000 
    105 CA        -6.5964  -20.3878  -49.1222 C.3       19 UNK         0.1400 
    106 CB        -6.7714  -19.9985  -47.6400 C.3       19 UNK        -0.1800 
    107 C         -7.6199  -19.6891  -50.0473 C.2       19 UNK         0.5000 
    108 O         -7.8595  -18.4920  -49.8837 O.2       19 UNK        -0.5000 
    109 N         -8.1744  -20.4190  -51.0280 N.am      20 UNK        -0.5000 
    110 CA        -8.9952  -19.8708  -52.1119 C.3       20 UNK         0.1400 
    111 CB        -9.8448  -20.9981  -52.7178 C.3       20 UNK        -0.1800 
    112 C         -8.1176  -19.2070  -53.1908 C.2       20 UNK         0.5000 
    113 O         -8.5553  -18.2682  -53.8566 O.2       20 UNK        -0.5000 
    114 N         -6.8810  -19.6958  -53.3040 N.am      21 UNK        -0.5000 
    115 CA        -5.7619  -19.1247  -54.0344 C.3       21 UNK         0.1400 
    116 CB        -5.6617  -19.7956  -55.4148 C.3       21 UNK        -0.1800 
    117 C         -4.5045  -19.3785  -53.1865 C.2       21 UNK         0.5000 
    118 O         -4.5755  -20.1076  -52.1926 O.2       21 UNK        -0.5000 
    119 N         -3.3780  -18.7825  -53.5845 N.am      22 UNK        -0.5000 
    120 CA        -2.0608  -19.0473  -52.9858 C.3       22 UNK         0.1400 
    121 C         -1.4802  -20.4266  -53.4086 C.2       22 UNK         0.5000 
    122 N         -0.5974  -21.0043  -52.6046 N.am      22 UNK        -0.7600 
    123 O         -1.7838  -20.9566  -54.4751 O.2       22 UNK        -0.5000 
    124 C124       -1.0533  -17.9150  -53.2971 C.3       23 UNK        -0.0398 
    125 S125       -1.5590  -16.3015  -52.6052 S.3       23 UNK        -0.2404 
    126 C126       -1.1490  -16.4806  -50.8339 C.3       23 UNK        -0.0205 
    127 H127        4.9782   -7.9221  -51.0284 H         1 UNK         0.0600 
    128 H128        3.7591   -8.9596  -51.7741 H         1 UNK         0.0600 
    129 H129        5.3228   -8.7299  -52.5618 H         1 UNK         0.0600 
    130 H130        3.5944  -10.9311  -50.7499 H         1 UNK         0.3000 
    131 H131        5.8359  -12.6280  -50.1888 H         1 UNK         0.0600 
    132 H132        2.8831  -12.9005  -49.4009 H         1 UNK         0.0800 
    133 H133        4.0852  -14.1433  -49.1715 H         1 UNK         0.0800 
    134 H134        4.7451  -15.8176  -50.7777 H         1 UNK         0.0800 
    135 H135        4.0803  -16.0265  -52.3764 H         1 UNK         0.0800 
    136 H136        1.1158  -15.1651  -51.5368 H         1 UNK         0.1150 
    137 H137       -0.2269  -18.7500  -49.6282 H         1 UNK         0.1150 
    138 H138        3.9682  -18.0121  -50.0545 H         1 UNK         0.1150 
    139 H139        1.5284  -20.6154  -49.5199 H         1 UNK         0.0800 
    140 H140        3.2104  -20.1793  -49.3233 H         1 UNK         0.0800 
    141 H141        2.8209  -21.4812  -45.8968 H         1 UNK         0.0800 
    142 H142        2.8354  -22.0013  -47.5506 H         1 UNK         0.0800 
    143 H143        1.2926  -23.2848  -46.1850 H         1 UNK         0.0600 
    144 H144        0.1979  -20.8126  -45.2008 H         1 UNK         0.3000 
    145 H145       -2.5262  -22.5644  -43.5343 H         1 UNK         0.0600 
    146 H146       -1.5806  -21.2614  -41.6585 H         1 UNK         0.0600 
    147 H147       -0.5303  -22.6104  -42.0610 H         1 UNK         0.0600 
    148 H148       -0.0928  -20.9841  -42.5608 H         1 UNK         0.0600 
    149 H149       -2.0280  -19.7865  -43.6914 H         1 UNK         0.3000 
    150 H150       -4.0303  -19.1507  -46.6082 H         1 UNK         0.0600 
    151 H151       -5.6100  -19.3672  -44.6797 H         1 UNK         0.0600 
    152 H152       -5.1932  -17.6898  -44.9948 H         1 UNK         0.0600 
    153 H153       -4.4594  -18.5404  -43.6371 H         1 UNK         0.0600 
    154 H154       -2.6398  -17.3742  -44.8847 H         1 UNK         0.3000 
    155 H155        0.5179  -17.4763  -46.6161 H         1 UNK         0.0600 
    156 H156       -0.9331  -15.8273  -47.7654 H         1 UNK         0.0600 
    157 H157        0.0699  -15.0493  -46.5501 H         1 UNK         0.0600 
    158 H158       -1.6373  -15.3443  -46.2264 H         1 UNK         0.0600 
    159 H159       -0.2276  -16.0893  -44.2773 H         1 UNK         0.3000 
    160 H160        0.4701  -18.6356  -41.8600 H         1 UNK         0.0600 
    161 H161        1.7843  -15.9493  -42.5093 H         1 UNK         0.0600 
    162 H162        2.6281  -17.4904  -42.4336 H         1 UNK         0.0600 
    163 H163        1.8824  -16.8275  -40.9870 H         1 UNK         0.0600 
    164 H164       -0.5378  -15.9223  -41.7707 H         1 UNK         0.3000 
    165 H165       -3.9860  -16.8097  -41.6716 H         1 UNK         0.0600 
    166 H166       -3.8606  -15.6299  -39.4960 H         1 UNK         0.0600 
    167 H167       -3.1757  -17.2404  -39.3484 H         1 UNK         0.0600 
    168 H168       -2.1103  -15.8432  -39.4457 H         1 UNK         0.0600 
    169 H169       -2.5749  -14.3291  -41.3485 H         1 UNK         0.3000 
    170 H170       -2.5313  -13.4248  -44.7988 H         1 UNK         0.0600 
    171 H171       -4.8284  -12.8691  -43.9744 H         1 UNK         0.0600 
    172 H172       -4.1563  -12.3450  -42.4350 H         1 UNK         0.0600 
    173 H173       -3.7640  -11.4737  -43.9178 H         1 UNK         0.0600 
    174 H174       -1.6720  -11.9145  -42.6131 H         1 UNK         0.3000 
    175 H175        0.7385  -11.5072  -42.6630 H         1 UNK         0.0600 
    176 H176        0.7743  -13.8135  -40.6235 H         1 UNK         0.0600 
    177 H177        1.5160  -12.2321  -40.3853 H         1 UNK         0.0600 
    178 H178       -0.2278  -12.3707  -40.5211 H         1 UNK         0.0600 
    179 H179        2.5346  -13.7921  -42.2984 H         1 UNK         0.3000 
    180 H180        4.3899  -13.9826  -43.5479 H         1 UNK         0.0600 
    181 H181        4.2385  -15.5845  -45.4610 H         1 UNK         0.0600 
    182 H182        2.9112  -14.6617  -46.1637 H         1 UNK         0.0600 
    183 H183        2.6867  -15.5090  -44.6429 H         1 UNK         0.0600 
    184 H184        4.3226  -12.1676  -45.8469 H         1 UNK         0.3000 
    185 H185        6.6117  -11.1127  -46.0848 H         1 UNK         0.0600 
    186 H186        8.7463  -12.1483  -45.3415 H         1 UNK         0.0600 
    187 H187        8.6475  -13.3354  -46.6375 H         1 UNK         0.0600 
    188 H188        8.8507  -11.6249  -47.0139 H         1 UNK         0.0600 
    189 H189        6.9257  -12.9766  -48.3143 H         1 UNK         0.3000 
    190 H190       -1.1131  -21.0246  -47.5269 H         1 UNK         0.3000 
    191 H191       -1.3324  -22.2669  -50.0885 H         1 UNK         0.0600 
    192 H192       -2.3069  -20.0510  -49.6446 H         1 UNK         0.0600 
    193 H193       -3.5725  -21.1673  -50.1275 H         1 UNK         0.0600 
    194 H194       -3.3967  -20.7262  -48.4364 H         1 UNK         0.0600 
    195 H195       -3.0030  -22.9346  -46.9656 H         1 UNK         0.3000 
    196 H196       -4.6130  -25.0758  -47.9061 H         1 UNK         0.0600 
    197 H197       -4.8361  -25.6369  -45.4878 H         1 UNK         0.0600 
    198 H198       -5.0561  -23.9171  -45.7739 H         1 UNK         0.0600 
    199 H199       -3.5433  -24.5108  -45.0948 H         1 UNK         0.0600 
    200 H200       -1.3162  -25.0774  -46.4772 H         1 UNK         0.3000 
    201 H201       -0.8740  -27.8755  -46.5827 H         1 UNK         0.0600 
    202 H202        0.5231  -26.2679  -45.2726 H         1 UNK         0.0600 
    203 H203        1.1694  -25.6009  -46.7715 H         1 UNK         0.0600 
    204 H204        1.5107  -27.2668  -46.3292 H         1 UNK         0.0600 
    205 H205       -0.4186  -25.3593  -49.0630 H         1 UNK         0.3000 
    206 H206        0.7086  -27.1071  -51.0720 H         1 UNK         0.0600 
    207 H207        1.1437  -24.6512  -50.9955 H         1 UNK         0.0600 
    208 H208        0.4158  -25.1121  -52.5248 H         1 UNK         0.0600 
    209 H209       -0.5631  -24.3269  -51.2938 H         1 UNK         0.0600 
    210 H210       -2.3830  -27.0410  -49.8210 H         1 UNK         0.3000 
    211 H211       -4.3355  -27.8819  -50.3234 H         1 UNK         0.0600 
    212 H212       -3.1440  -29.1332  -52.8478 H         1 UNK         0.0600 
    213 H213       -4.6120  -29.6199  -52.0164 H         1 UNK         0.0600 
    214 H214       -3.0565  -29.8397  -51.2340 H         1 UNK         0.0600 
    215 H215       -3.5227  -25.2021  -51.3387 H         1 UNK         0.3000 
    216 H216       -5.4569  -24.7217  -53.5370 H         1 UNK         0.0600 
    217 H217       -4.5269  -22.4608  -53.5115 H         1 UNK         0.0600 
    218 H218       -3.1998  -23.6054  -53.5607 H         1 UNK         0.0600 
    219 H219       -3.6005  -22.7887  -52.0526 H         1 UNK         0.0600 
    220 H220       -5.4274  -24.9883  -50.1873 H         1 UNK         0.3000 
    221 H221       -6.8845  -24.7133  -48.5340 H         1 UNK         0.0600 
    222 H222       -8.9733  -24.4006  -50.7509 H         1 UNK         0.0600 
    223 H223       -8.3270  -25.9382  -50.1796 H         1 UNK         0.0600 
    224 H224       -9.2704  -24.9274  -49.0997 H         1 UNK         0.0600 
    225 H225       -5.7236  -22.1935  -49.7687 H         1 UNK         0.3000 
    226 H226       -5.6222  -20.0161  -49.4403 H         1 UNK         0.0600 
    227 H227       -6.0711  -20.5416  -47.0057 H         1 UNK         0.0600 
    228 H228       -6.5884  -18.9338  -47.4918 H         1 UNK         0.0600 
    229 H229       -7.7791  -20.2072  -47.2806 H         1 UNK         0.0600 
    230 H230       -7.9049  -21.3917  -51.1188 H         1 UNK         0.3000 
    231 H231       -9.6675  -19.1125  -51.7052 H         1 UNK         0.0600 
    232 H232       -9.2236  -21.7826  -53.1518 H         1 UNK         0.0600 
    233 H233      -10.4919  -20.6162  -53.5084 H         1 UNK         0.0600 
    234 H234      -10.4858  -21.4567  -51.9647 H         1 UNK         0.0600 
    235 H235       -6.6014  -20.4348  -52.6696 H         1 UNK         0.3000 
    236 H236       -5.8954  -18.0468  -54.1466 H         1 UNK         0.0600 
    237 H237       -6.5751  -19.6475  -55.9911 H         1 UNK         0.0600 
    238 H238       -4.8394  -19.3793  -55.9975 H         1 UNK         0.0600 
    239 H239       -5.4922  -20.8696  -55.3271 H         1 UNK         0.0600 
    240 H240       -3.3841  -18.2084  -54.4141 H         1 UNK         0.3000 
    241 H241       -2.1933  -19.0839  -51.9032 H         1 UNK         0.0600 
    242 H242       -0.2924  -20.5697  -51.7500 H         1 UNK         0.3800 
    243 H243       -0.1966  -21.8845  -52.8864 H         1 UNK         0.3800 
    244 H244       -0.0568  -18.1616  -52.9285 H         1 UNK         0.0800 
    245 H245       -0.9428  -17.7985  -54.3764 H         1 UNK         0.0800 
    246 H246       -1.3253  -15.5263  -50.3361 H         1 UNK         0.0800 
    247 H247       -1.8397  -17.1920  -50.3783 H         1 UNK         0.0800 
@<TRIPOS>BOND
     1    1    2 1    
     2    1  127 1    
     3    1  128 1    
     4    1  129 1    
     5    2    3 2    
     6    2    4 am   BACKBONE|DICT|INTERRES
     7    4    5 1    
     8    4  130 1    
     9    5    6 1    
    10    5   65 1    
    11    5  131 1    
    12    6    7 1    
    13    6  132 1    
    14    6  133 1    
    15    7    8 1    
    16    8    9 1    
    17    8  134 1    
    18    8  135 1    
    19    9   10 ar   
    20    9   14 ar   
    21   10   11 ar   
    22   10  136 1    
    23   11   12 ar   
    24   11  126 1    
    25   12   13 ar   
    26   12  137 1    
    27   13   14 ar   
    28   13   15 1    
    29   14  138 1    
    30   15   16 1    
    31   15  139 1    
    32   15  140 1    
    33   16   17 1    
    34   17   18 1    
    35   17  141 1    
    36   17  142 1    
    37   18   19 1    
    38   18   67 1    
    39   18  143 1    
    40   19   20 am   BACKBONE|DICT|INTERRES
    41   19  144 1    
    42   20   21 2    
    43   20   22 1    
    44   22   23 1    
    45   22   24 1    
    46   22  145 1    
    47   23  146 1    
    48   23  147 1    
    49   23  148 1    
    50   24   25 am   BACKBONE|DICT|INTERRES
    51   24  149 1    
    52   25   26 2    
    53   25   27 1    
    54   27   28 1    
    55   27   29 1    
    56   27  150 1    
    57   28  151 1    
    58   28  152 1    
    59   28  153 1    
    60   29   30 am   BACKBONE|DICT|INTERRES
    61   29  154 1    
    62   30   31 2    
    63   30   32 1    
    64   32   33 1    
    65   32   34 1    
    66   32  155 1    
    67   33  156 1    
    68   33  157 1    
    69   33  158 1    
    70   34   35 am   BACKBONE|DICT|INTERRES
    71   34  159 1    
    72   35   36 2    
    73   35   37 1    
    74   37   38 1    
    75   37   39 1    
    76   37  160 1    
    77   38  161 1    
    78   38  162 1    
    79   38  163 1    
    80   39   40 am   BACKBONE|DICT|INTERRES
    81   39  164 1    
    82   40   41 2    
    83   40   42 1    
    84   42   43 1    
    85   42   44 1    
    86   42  165 1    
    87   43  166 1    
    88   43  167 1    
    89   43  168 1    
    90   44   45 am   BACKBONE|DICT|INTERRES
    91   44  169 1    
    92   45   46 2    
    93   45   47 1    
    94   47   48 1    
    95   47   49 1    
    96   47  170 1    
    97   48  171 1    
    98   48  172 1    
    99   48  173 1    
   100   49   50 am   BACKBONE|DICT|INTERRES
   101   49  174 1    
   102   50   51 2    
   103   50   52 1    
   104   52   53 1    
   105   52   54 1    
   106   52  175 1    
   107   53  176 1    
   108   53  177 1    
   109   53  178 1    
   110   54   55 am   BACKBONE|DICT|INTERRES
   111   54  179 1    
   112   55   56 2    
   113   55   57 1    
   114   57   58 1    
   115   57   59 1    
   116   57  180 1    
   117   58  181 1    
   118   58  182 1    
   119   58  183 1    
   120   59   60 am   BACKBONE|DICT|INTERRES
   121   59  184 1    
   122   60   61 2    
   123   60   62 1    
   124   62   63 1    
   125   62   64 1    
   126   62  185 1    
   127   63  186 1    
   128   63  187 1    
   129   63  188 1    
   130   64   65 am   BACKBONE|DICT|INTERRES
   131   64  189 1    
   132   65   66 2    
   133   67   68 2    
   134   67   69 am   BACKBONE|DICT|INTERRES
   135   69   70 1    
   136   69  190 1    
   137   70   71 1    
   138   70   72 1    
   139   70  191 1    
   140   71  192 1    
   141   71  193 1    
   142   71  194 1    
   143   72   73 2    
   144   72   74 am   BACKBONE|DICT|INTERRES
   145   74   75 1    
   146   74  195 1    
   147   75   76 1    
   148   75   77 1    
   149   75  196 1    
   150   76  197 1    
   151   76  198 1    
   152   76  199 1    
   153   77   78 2    
   154   77   79 am   BACKBONE|DICT|INTERRES
   155   79   80 1    
   156   79  200 1    
   157   80   81 1    
   158   80   82 1    
   159   80  201 1    
   160   81  202 1    
   161   81  203 1    
   162   81  204 1    
   163   82   83 2    
   164   82   84 am   BACKBONE|DICT|INTERRES
   165   84   85 1    
   166   84  205 1    
   167   85   86 1    
   168   85   87 1    
   169   85  206 1    
   170   86  207 1    
   171   86  208 1    
   172   86  209 1    
   173   87   88 2    
   174   87   89 am   BACKBONE|DICT|INTERRES
   175   89   90 1    
   176   89  210 1    
   177   90   91 1    
   178   90   92 1    
   179   90  211 1    
   180   91  212 1    
   181   91  213 1    
   182   91  214 1    
   183   92   93 2    
   184   92   94 am   BACKBONE|DICT|INTERRES
   185   94   95 1    
   186   94  215 1    
   187   95   96 1    
   188   95   97 1    
   189   95  216 1    
   190   96  217 1    
   191   96  218 1    
   192   96  219 1    
   193   97   98 2    
   194   97   99 am   BACKBONE|DICT|INTERRES
   195   99  100 1    
   196   99  220 1    
   197  100  101 1    
   198  100  102 1    
   199  100  221 1    
   200  101  222 1    
   201  101  223 1    
   202  101  224 1    
   203  102  103 2    
   204  102  104 am   BACKBONE|DICT|INTERRES
   205  104  105 1    
   206  104  225 1    
   207  105  106 1    
   208  105  107 1    
   209  105  226 1    
   210  106  227 1    
   211  106  228 1    
   212  106  229 1    
   213  107  108 2    
   214  107  109 am   BACKBONE|DICT|INTERRES
   215  109  110 1    
   216  109  230 1    
   217  110  111 1    
   218  110  112 1    
   219  110  231 1    
   220  111  232 1    
   221  111  233 1    
   222  111  234 1    
   223  112  113 2    
   224  112  114 am   BACKBONE|DICT|INTERRES
   225  114  115 1    
   226  114  235 1    
   227  115  116 1    
   228  115  117 1    
   229  115  236 1    
   230  116  237 1    
   231  116  238 1    
   232  116  239 1    
   233  117  118 2    
   234  117  119 am   BACKBONE|DICT|INTERRES
   235  119  120 1    
   236  119  240 1    
   237  120  121 1    
   238  120  124 1    
   239  120  241 1    
   240  121  122 am   BACKBONE|DICT|INTERRES
   241  121  123 2    
   242  122  242 1    
   243  122  243 1    
   244  124  125 1    
   245  124  244 1    
   246  124  245 1    
   247  125  126 1    
   248  126  246 1    
   249  126  247 1    
@<TRIPOS>SUBSTRUCTURE
     1 UNK         1 GROUP             0       ****    0 ROOT    
