@<TRIPOS>MOLECULE
3R540
247   249    1
SMALL
USER_CHARGES


@<TRIPOS>ATOM
      1 CA         -3.1040  -19.2323  -45.5259 C.3       0 UNK        -0.1800 
      2 C          -2.4550  -17.9749  -46.0821 C.2       0 UNK         0.5000 
      3 O          -3.1470  -17.0308  -46.4602 O.2       0 UNK        -0.5000 
      4 N          -1.1189  -17.9628  -46.1284 N.am      1 UNK        -0.5000 
      5 CA         -0.2828  -16.8909  -46.6795 C.3       1 UNK         0.1400 
      6 C6          1.0501  -17.4595  -47.2361 C.3       23 UNK        -0.0398 
      7 S7          1.7578  -16.4399  -48.5715 S.3       23 UNK        -0.2404 
      8 C8          3.3843  -17.2272  -48.7943 C.3       23 UNK        -0.0205 
      9 C9          3.3070  -18.4165  -49.7396 C.ar      23 UNK        -0.0193 
     10 C10         3.0565  -18.1990  -51.0964 C.ar      23 UNK        -0.1150 
     11 C11         2.9631  -19.2720  -51.9856 C.ar      23 UNK        -0.0193 
     12 C12         3.1673  -20.5712  -51.5157 C.ar      23 UNK        -0.1150 
     13 C13         3.4325  -20.8036  -50.1630 C.ar      23 UNK        -0.0193 
     14 C14         3.4931  -19.7228  -49.2754 C.ar      23 UNK        -0.1150 
     15 C15         3.6562  -22.2262  -49.6726 C.3       23 UNK        -0.0205 
     16 S16         2.1022  -23.1715  -49.6139 S.3       23 UNK        -0.2404 
     17 C17         1.2342  -22.3343  -48.2461 C.3       23 UNK        -0.0398 
     18 CA          0.3281  -23.2981  -47.4454 C.3       11 UNK         0.1400 
     19 N          -0.0579  -22.7026  -46.1701 N.am      11 UNK        -0.5000 
     20 C          -0.6837  -23.3188  -45.1627 C.2       10 UNK         0.5000 
     21 O          -0.8949  -24.5326  -45.1367 O.2       10 UNK        -0.5000 
     22 CA         -1.1425  -22.4155  -43.9947 C.3       10 UNK         0.1400 
     23 CB         -1.8338  -23.2034  -42.8680 C.3       10 UNK        -0.1800 
     24 N          -0.0632  -21.6129  -43.4111 N.am      10 UNK        -0.5000 
     25 C           0.5462  -20.5659  -43.9822 C.2       9 UNK         0.5000 
     26 O           0.2902  -20.1607  -45.1193 O.2       9 UNK        -0.5000 
     27 CA          1.5863  -19.8362  -43.1107 C.3       9 UNK         0.1400 
     28 CB          2.2746  -18.6750  -43.8511 C.3       9 UNK        -0.1800 
     29 N           1.0401  -19.3444  -41.8420 N.am      9 UNK        -0.5000 
     30 C          -0.0698  -18.6094  -41.6537 C.2       8 UNK         0.5000 
     31 O          -0.8995  -18.3521  -42.5262 O.2       8 UNK        -0.5000 
     32 CA         -0.2488  -18.0194  -40.2401 C.3       8 UNK         0.1400 
     33 CB         -0.9128  -19.0428  -39.3064 C.3       8 UNK        -0.1800 
     34 N           1.0160  -17.5644  -39.6497 N.am      8 UNK        -0.5000 
     35 C           1.7908  -16.6004  -40.1693 C.2       7 UNK         0.5000 
     36 O           1.4849  -15.9465  -41.1684 O.2       7 UNK        -0.5000 
     37 CA          3.1497  -16.3705  -39.4805 C.3       7 UNK         0.1400 
     38 CB          4.0738  -17.5821  -39.6934 C.3       7 UNK        -0.1800 
     39 N           3.8183  -15.1890  -40.0218 N.am      7 UNK        -0.5000 
     40 C           3.5939  -13.9252  -39.6402 C.2       6 UNK         0.5000 
     41 O           2.8795  -13.6114  -38.6870 O.2       6 UNK        -0.5000 
     42 CA          4.2868  -12.8274  -40.4728 C.3       6 UNK         0.1400 
     43 CB          5.6584  -12.4800  -39.8733 C.3       6 UNK        -0.1800 
     44 N           4.4596  -13.2220  -41.8747 N.am      6 UNK        -0.5000 
     45 C           3.4704  -13.2212  -42.7779 C.2       5 UNK         0.5000 
     46 O           2.3373  -12.7942  -42.5496 O.2       5 UNK        -0.5000 
     47 CA          3.8012  -13.8434  -44.1464 C.3       5 UNK         0.1400 
     48 CB          3.5775  -15.3634  -44.1045 C.3       5 UNK        -0.1800 
     49 N           2.9772  -13.2831  -45.2145 N.am      5 UNK        -0.5000 
     50 C           3.1603  -12.0802  -45.7728 C.2       4 UNK         0.5000 
     51 O           4.0711  -11.3137  -45.4555 O.2       4 UNK        -0.5000 
     52 CA          2.1729  -11.6624  -46.8749 C.3       4 UNK         0.1400 
     53 CB          2.5364  -12.3381  -48.2071 C.3       4 UNK        -0.1800 
     54 N           0.7963  -12.0105  -46.5236 N.am      4 UNK        -0.5000 
     55 C          -0.2093  -11.1349  -46.3842 C.2       3 UNK         0.5000 
     56 O          -0.0870   -9.9201  -46.5478 O.2       3 UNK        -0.5000 
     57 CA         -1.5959  -11.7003  -46.0073 C.3       3 UNK         0.1400 
     58 CB         -2.4647  -11.8688  -47.2632 C.3       3 UNK        -0.1800 
     59 N          -1.5251  -12.9835  -45.3097 N.am      3 UNK        -0.5000 
     60 C          -1.0548  -13.1534  -44.0670 C.2       2 UNK         0.5000 
     61 O          -0.7807  -12.2152  -43.3186 O.2       2 UNK        -0.5000 
     62 CA         -0.8614  -14.6044  -43.5718 C.3       2 UNK         0.1400 
     63 CB         -1.9472  -14.9415  -42.5379 C.3       2 UNK        -0.1800 
     64 N          -0.8733  -15.6401  -44.6162 N.am      2 UNK        -0.5000 
     65 C          -0.0758  -15.7120  -45.6928 C.2       1 UNK         0.5000 
     66 O           0.7796  -14.8608  -45.9353 O.2       1 UNK        -0.5000 
     67 C          -0.9386  -23.6568  -48.2422 C.2       11 UNK         0.5000 
     68 O          -1.8254  -22.8106  -48.3713 O.2       11 UNK        -0.5000 
     69 N          -1.0011  -24.8783  -48.7860 N.am      12 UNK        -0.5000 
     70 CA         -2.1736  -25.4129  -49.4853 C.3       12 UNK         0.1400 
     71 CB         -1.9282  -26.8877  -49.8350 C.3       12 UNK        -0.1800 
     72 C          -2.5934  -24.6252  -50.7412 C.2       12 UNK         0.5000 
     73 O          -3.7662  -24.6812  -51.1129 O.2       12 UNK        -0.5000 
     74 N          -1.6385  -23.9077  -51.3488 N.am      13 UNK        -0.5000 
     75 CA         -1.8345  -23.0279  -52.5017 C.3       13 UNK         0.1400 
     76 CB         -0.5175  -22.9583  -53.2894 C.3       13 UNK        -0.1800 
     77 C          -2.3138  -21.6093  -52.1264 C.2       13 UNK         0.5000 
     78 O          -2.6330  -20.8317  -53.0296 O.2       13 UNK        -0.5000 
     79 N          -2.3520  -21.2922  -50.8251 N.am      14 UNK        -0.5000 
     80 CA         -2.8686  -20.0383  -50.2771 C.3       14 UNK         0.1400 
     81 CB         -1.7940  -19.4089  -49.3714 C.3       14 UNK        -0.1800 
     82 C          -4.1577  -20.2791  -49.4703 C.2       14 UNK         0.5000 
     83 O          -5.0804  -19.4681  -49.5375 O.2       14 UNK        -0.5000 
     84 N          -4.1919  -21.3823  -48.7102 N.am      15 UNK        -0.5000 
     85 CA         -5.2162  -21.7165  -47.7196 C.3       15 UNK         0.1400 
     86 CB         -4.6154  -22.7411  -46.7401 C.3       15 UNK        -0.1800 
     87 C          -6.5525  -22.2356  -48.2894 C.2       15 UNK         0.5000 
     88 O          -7.4437  -22.5403  -47.4961 O.2       15 UNK        -0.5000 
     89 N          -6.6749  -22.3599  -49.6200 N.am      16 UNK        -0.5000 
     90 CA         -7.8336  -22.8934  -50.3534 C.3       16 UNK         0.1400 
     91 CB         -9.1356  -22.1331  -50.0184 C.3       16 UNK        -0.1800 
     92 C          -7.9853  -24.4245  -50.2356 C.2       16 UNK         0.5000 
     93 O          -9.0441  -24.9550  -50.5757 O.2       16 UNK        -0.5000 
     94 N          -6.9314  -25.1149  -49.7761 N.am      17 UNK        -0.5000 
     95 CA         -6.8942  -26.5720  -49.6495 C.3       17 UNK         0.1400 
     96 CB         -5.8351  -26.9763  -48.6137 C.3       17 UNK        -0.1800 
     97 C          -6.6303  -27.2449  -51.0068 C.2       17 UNK         0.5000 
     98 O          -7.3379  -28.1874  -51.3645 O.2       17 UNK        -0.5000 
     99 N          -5.6377  -26.7281  -51.7420 N.am      18 UNK        -0.5000 
    100 CA        -5.3206  -27.1174  -53.1149 C.3       18 UNK         0.1400 
    101 CB        -3.8298  -27.4785  -53.2192 C.3       18 UNK        -0.1800 
    102 C         -5.6702  -25.9794  -54.0860 C.2       18 UNK         0.5000 
    103 O         -6.1839  -26.2508  -55.1720 O.2       18 UNK        -0.5000 
    104 N         -5.4141  -24.7305  -53.6768 N.am      19 UNK        -0.5000 
    105 CA        -5.7232  -23.5138  -54.4198 C.3       19 UNK         0.1400 
    106 CB        -4.7060  -23.3105  -55.5622 C.3       19 UNK        -0.1800 
    107 C         -5.7117  -22.3235  -53.4517 C.2       19 UNK         0.5000 
    108 O         -5.3118  -22.4702  -52.2957 O.2       19 UNK        -0.5000 
    109 N         -6.1330  -21.1586  -53.9456 N.am      20 UNK        -0.5000 
    110 CA        -6.0183  -19.8699  -53.2612 C.3       20 UNK         0.1400 
    111 CB        -7.4018  -19.4360  -52.7457 C.3       20 UNK        -0.1800 
    112 C         -5.3752  -18.8478  -54.2169 C.2       20 UNK         0.5000 
    113 O         -5.7607  -17.6780  -54.2343 O.2       20 UNK        -0.5000 
    114 N         -4.4300  -19.3308  -55.0348 N.am      21 UNK        -0.5000 
    115 CA        -3.6974  -18.5510  -56.0292 C.3       21 UNK         0.1400 
    116 CB        -3.0885  -19.5105  -57.0637 C.3       21 UNK        -0.1800 
    117 C         -2.6039  -17.6793  -55.3907 C.2       21 UNK         0.5000 
    118 O         -2.3545  -16.5716  -55.8686 O.2       21 UNK        -0.5000 
    119 N         -1.9756  -18.1934  -54.3280 N.am      22 UNK        -0.5000 
    120 CA        -0.9733  -17.4794  -53.5314 C.3       22 UNK         0.1400 
    121 C         -1.6374  -16.4642  -52.5621 C.2       22 UNK         0.5000 
    122 N         -1.0514  -15.2872  -52.3898 N.am      22 UNK        -0.7600 
    123 O         -2.6541  -16.7481  -51.9335 O.2       22 UNK        -0.5000 
    124 C124       -0.0786  -18.4660  -52.7502 C.3       23 UNK        -0.0398 
    125 S125        0.9171  -19.5420  -53.8408 S.3       23 UNK        -0.2404 
    126 C126        2.6201  -19.0262  -53.4474 C.3       23 UNK        -0.0205 
    127 H127       -2.7549  -20.1088  -46.0718 H         1 UNK         0.0600 
    128 H128       -4.1891  -19.1833  -45.6179 H         1 UNK         0.0600 
    129 H129       -2.8530  -19.3545  -44.4718 H         1 UNK         0.0600 
    130 H130       -0.6089  -18.7625  -45.7538 H         1 UNK         0.3000 
    131 H131       -0.8311  -16.4718  -47.5260 H         1 UNK         0.0600 
    132 H132        1.7879  -17.5765  -46.4434 H         1 UNK         0.0800 
    133 H133        0.8913  -18.4562  -47.6514 H         1 UNK         0.0800 
    134 H134        3.7980  -17.5159  -47.8269 H         1 UNK         0.0800 
    135 H135        4.0728  -16.4906  -49.2107 H         1 UNK         0.0800 
    136 H136        2.9066  -17.1894  -51.4529 H         1 UNK         0.1150 
    137 H137        3.0997  -21.4050  -52.2007 H         1 UNK         0.1150 
    138 H138        3.6912  -19.8971  -48.2272 H         1 UNK         0.1150 
    139 H139        4.3494  -22.7317  -50.3465 H         1 UNK         0.0800 
    140 H140        4.1303  -22.2321  -48.6899 H         1 UNK         0.0800 
    141 H141        0.6728  -21.4848  -48.6411 H         1 UNK         0.0800 
    142 H142        1.9849  -21.9097  -47.5779 H         1 UNK         0.0800 
    143 H143        0.8862  -24.2105  -47.2243 H         1 UNK         0.0600 
    144 H144        0.0747  -21.6988  -46.0781 H         1 UNK         0.3000 
    145 H145       -1.8827  -21.7289  -44.4083 H         1 UNK         0.0600 
    146 H146       -2.2144  -22.5348  -42.0955 H         1 UNK         0.0600 
    147 H147       -2.6843  -23.7698  -43.2500 H         1 UNK         0.0600 
    148 H148       -1.1518  -23.9108  -42.3946 H         1 UNK         0.0600 
    149 H149        0.2171  -21.8685  -42.4756 H         1 UNK         0.3000 
    150 H150        2.3535  -20.5713  -42.8637 H         1 UNK         0.0600 
    151 H151        2.7383  -19.0171  -44.7769 H         1 UNK         0.0600 
    152 H152        3.0608  -18.2330  -43.2394 H         1 UNK         0.0600 
    153 H153        1.5647  -17.8856  -44.0987 H         1 UNK         0.0600 
    154 H154        1.6237  -19.5023  -41.0336 H         1 UNK         0.3000 
    155 H155       -0.9087  -17.1539  -40.3188 H         1 UNK         0.0600 
    156 H156       -0.2850  -19.9221  -39.1572 H         1 UNK         0.0600 
    157 H157       -1.8640  -19.3845  -39.7169 H         1 UNK         0.0600 
    158 H158       -1.1203  -18.6079  -38.3285 H         1 UNK         0.0600 
    159 H159        1.3284  -18.0521  -38.8226 H         1 UNK         0.3000 
    160 H160        2.9797  -16.2359  -38.4103 H         1 UNK         0.0600 
    161 H161        4.2336  -17.7855  -40.7533 H         1 UNK         0.0600 
    162 H162        3.6568  -18.4844  -39.2451 H         1 UNK         0.0600 
    163 H163        5.0488  -17.4186  -39.2338 H         1 UNK         0.0600 
    164 H164        4.3813  -15.3378  -40.8444 H         1 UNK         0.3000 
    165 H165        3.6622  -11.9323  -40.4313 H         1 UNK         0.0600 
    166 H166        6.1321  -11.6641  -40.4196 H         1 UNK         0.0600 
    167 H167        5.5600  -12.1606  -38.8350 H         1 UNK         0.0600 
    168 H168        6.3356  -13.3348  -39.8908 H         1 UNK         0.0600 
    169 H169        5.3711  -13.5674  -42.1389 H         1 UNK         0.3000 
    170 H170        4.8506  -13.6512  -44.3796 H         1 UNK         0.0600 
    171 H171        4.2327  -15.8386  -43.3739 H         1 UNK         0.0600 
    172 H172        2.5506  -15.6054  -43.8275 H         1 UNK         0.0600 
    173 H173        3.7797  -15.8229  -45.0724 H         1 UNK         0.0600 
    174 H174        2.1892  -13.8545  -45.5108 H         1 UNK         0.3000 
    175 H175        2.2752  -10.5834  -47.0069 H         1 UNK         0.0600 
    176 H176        2.4497  -13.4236  -48.1448 H         1 UNK         0.0600 
    177 H177        1.8843  -11.9971  -49.0112 H         1 UNK         0.0600 
    178 H178        3.5616  -12.1055  -48.4976 H         1 UNK         0.0600 
    179 H179        0.6175  -12.9930  -46.3392 H         1 UNK         0.3000 
    180 H180       -2.0813  -10.9771  -45.3487 H         1 UNK         0.0600 
    181 H181       -2.0342  -12.5933  -47.9559 H         1 UNK         0.0600 
    182 H182       -2.5659  -10.9234  -47.7979 H         1 UNK         0.0600 
    183 H183       -3.4696  -12.2045  -47.0064 H         1 UNK         0.0600 
    184 H184       -1.7522  -13.8071  -45.8467 H         1 UNK         0.3000 
    185 H185        0.1133  -14.6479  -43.0828 H         1 UNK         0.0600 
    186 H186       -1.9331  -14.2329  -41.7087 H         1 UNK         0.0600 
    187 H187       -2.9439  -14.9131  -42.9800 H         1 UNK         0.0600 
    188 H188       -1.7991  -15.9319  -42.1142 H         1 UNK         0.0600 
    189 H189       -1.5361  -16.3908  -44.4843 H         1 UNK         0.3000 
    190 H190       -0.2267  -25.5139  -48.6568 H         1 UNK         0.3000 
    191 H191       -3.0078  -25.3586  -48.7846 H         1 UNK         0.0600 
    192 H192       -2.8010  -27.3270  -50.3193 H         1 UNK         0.0600 
    193 H193       -1.7265  -27.4775  -48.9407 H         1 UNK         0.0600 
    194 H194       -1.0828  -27.0045  -50.5142 H         1 UNK         0.0600 
    195 H195       -0.7058  -23.9386  -50.9632 H         1 UNK         0.3000 
    196 H196       -2.5965  -23.4663  -53.1473 H         1 UNK         0.0600 
    197 H197        0.2843  -22.5200  -52.6932 H         1 UNK         0.0600 
    198 H198       -0.1958  -23.9492  -53.6100 H         1 UNK         0.0600 
    199 H199       -0.6293  -22.3485  -54.1871 H         1 UNK         0.0600 
    200 H200       -2.0826  -21.9957  -50.1476 H         1 UNK         0.3000 
    201 H201       -3.1001  -19.3346  -51.0789 H         1 UNK         0.0600 
    202 H202       -1.6144  -20.0066  -48.4769 H         1 UNK         0.0600 
    203 H203       -2.1015  -18.4139  -49.0484 H         1 UNK         0.0600 
    204 H204       -0.8392  -19.2994  -49.8832 H         1 UNK         0.0600 
    205 H205       -3.3629  -21.9715  -48.6848 H         1 UNK         0.3000 
    206 H206       -5.4475  -20.8094  -47.1580 H         1 UNK         0.0600 
    207 H207       -3.7024  -22.3636  -46.2804 H         1 UNK         0.0600 
    208 H208       -5.3088  -22.9717  -45.9304 H         1 UNK         0.0600 
    209 H209       -4.3719  -23.6787  -47.2414 H         1 UNK         0.0600 
    210 H210       -5.8816  -22.1157  -50.2029 H         1 UNK         0.3000 
    211 H211       -7.6453  -22.7043  -51.4071 H         1 UNK         0.0600 
    212 H212       -9.9186  -22.3704  -50.7393 H         1 UNK         0.0600 
    213 H213       -8.9849  -21.0542  -50.0486 H         1 UNK         0.0600 
    214 H214       -9.5201  -22.3921  -49.0319 H         1 UNK         0.0600 
    215 H215       -6.0888  -24.6064  -49.5524 H         1 UNK         0.3000 
    216 H216       -7.8639  -26.9170  -49.2838 H         1 UNK         0.0600 
    217 H217       -4.8325  -26.7027  -48.9348 H         1 UNK         0.0600 
    218 H218       -5.8422  -28.0551  -48.4533 H         1 UNK         0.0600 
    219 H219       -6.0223  -26.5021  -47.6500 H         1 UNK         0.0600 
    220 H220       -5.1016  -25.9495  -51.3692 H         1 UNK         0.3000 
    221 H221       -5.9002  -27.9945  -53.4100 H         1 UNK         0.0600 
    222 H222       -3.5760  -28.2974  -52.5462 H         1 UNK         0.0600 
    223 H223       -3.1865  -26.6324  -52.9772 H         1 UNK         0.0600 
    224 H224       -3.5786  -27.7999  -54.2307 H         1 UNK         0.0600 
    225 H225       -5.0018  -24.5619  -52.7627 H         1 UNK         0.3000 
    226 H226       -6.7296  -23.5989  -54.8347 H         1 UNK         0.0600 
    227 H227       -3.6915  -23.1850  -55.1843 H         1 UNK         0.0600 
    228 H228       -4.7012  -24.1572  -56.2483 H         1 UNK         0.0600 
    229 H229       -4.9449  -22.4267  -56.1543 H         1 UNK         0.0600 
    230 H230       -6.4515  -21.1146  -54.9041 H         1 UNK         0.3000 
    231 H231       -5.3444  -19.9493  -52.4059 H         1 UNK         0.0600 
    232 H232       -8.1086  -19.2911  -53.5633 H         1 UNK         0.0600 
    233 H233       -7.3370  -18.4993  -52.1909 H         1 UNK         0.0600 
    234 H234       -7.8179  -20.1820  -52.0696 H         1 UNK         0.0600 
    235 H235       -4.1274  -20.2843  -54.8938 H         1 UNK         0.3000 
    236 H236       -4.3984  -17.8906  -56.5443 H         1 UNK         0.0600 
    237 H237       -3.8618  -20.0930  -57.5647 H         1 UNK         0.0600 
    238 H238       -2.5457  -18.9606  -57.8335 H         1 UNK         0.0600 
    239 H239       -2.3881  -20.2084  -56.6025 H         1 UNK         0.0600 
    240 H240       -2.2596  -19.1016  -53.9745 H         1 UNK         0.3000 
    241 H241       -0.3308  -16.9209  -54.2155 H         1 UNK         0.0600 
    242 H242       -1.4664  -14.6264  -51.7521 H         1 UNK         0.3800 
    243 H243       -0.2150  -15.0306  -52.8909 H         1 UNK         0.3800 
    244 H244       -0.6894  -19.1098  -52.1211 H         1 UNK         0.0800 
    245 H245        0.5741  -17.9182  -52.0723 H         1 UNK         0.0800 
    246 H246        2.7457  -17.9736  -53.7060 H         1 UNK         0.0800 
    247 H247        3.3139  -19.5823  -54.0792 H         1 UNK         0.0800 
@<TRIPOS>BOND
     1    1    2 1    
     2    1  127 1    
     3    1  128 1    
     4    1  129 1    
     5    2    3 2    
     6    2    4 am   BACKBONE|DICT|INTERRES
     7    4    5 1    
     8    4  130 1    
     9    5    6 1    
    10    5   65 1    
    11    5  131 1    
    12    6    7 1    
    13    6  132 1    
    14    6  133 1    
    15    7    8 1    
    16    8    9 1    
    17    8  134 1    
    18    8  135 1    
    19    9   10 ar   
    20    9   14 ar   
    21   10   11 ar   
    22   10  136 1    
    23   11   12 ar   
    24   11  126 1    
    25   12   13 ar   
    26   12  137 1    
    27   13   14 ar   
    28   13   15 1    
    29   14  138 1    
    30   15   16 1    
    31   15  139 1    
    32   15  140 1    
    33   16   17 1    
    34   17   18 1    
    35   17  141 1    
    36   17  142 1    
    37   18   19 1    
    38   18   67 1    
    39   18  143 1    
    40   19   20 am   BACKBONE|DICT|INTERRES
    41   19  144 1    
    42   20   21 2    
    43   20   22 1    
    44   22   23 1    
    45   22   24 1    
    46   22  145 1    
    47   23  146 1    
    48   23  147 1    
    49   23  148 1    
    50   24   25 am   BACKBONE|DICT|INTERRES
    51   24  149 1    
    52   25   26 2    
    53   25   27 1    
    54   27   28 1    
    55   27   29 1    
    56   27  150 1    
    57   28  151 1    
    58   28  152 1    
    59   28  153 1    
    60   29   30 am   BACKBONE|DICT|INTERRES
    61   29  154 1    
    62   30   31 2    
    63   30   32 1    
    64   32   33 1    
    65   32   34 1    
    66   32  155 1    
    67   33  156 1    
    68   33  157 1    
    69   33  158 1    
    70   34   35 am   BACKBONE|DICT|INTERRES
    71   34  159 1    
    72   35   36 2    
    73   35   37 1    
    74   37   38 1    
    75   37   39 1    
    76   37  160 1    
    77   38  161 1    
    78   38  162 1    
    79   38  163 1    
    80   39   40 am   BACKBONE|DICT|INTERRES
    81   39  164 1    
    82   40   41 2    
    83   40   42 1    
    84   42   43 1    
    85   42   44 1    
    86   42  165 1    
    87   43  166 1    
    88   43  167 1    
    89   43  168 1    
    90   44   45 am   BACKBONE|DICT|INTERRES
    91   44  169 1    
    92   45   46 2    
    93   45   47 1    
    94   47   48 1    
    95   47   49 1    
    96   47  170 1    
    97   48  171 1    
    98   48  172 1    
    99   48  173 1    
   100   49   50 am   BACKBONE|DICT|INTERRES
   101   49  174 1    
   102   50   51 2    
   103   50   52 1    
   104   52   53 1    
   105   52   54 1    
   106   52  175 1    
   107   53  176 1    
   108   53  177 1    
   109   53  178 1    
   110   54   55 am   BACKBONE|DICT|INTERRES
   111   54  179 1    
   112   55   56 2    
   113   55   57 1    
   114   57   58 1    
   115   57   59 1    
   116   57  180 1    
   117   58  181 1    
   118   58  182 1    
   119   58  183 1    
   120   59   60 am   BACKBONE|DICT|INTERRES
   121   59  184 1    
   122   60   61 2    
   123   60   62 1    
   124   62   63 1    
   125   62   64 1    
   126   62  185 1    
   127   63  186 1    
   128   63  187 1    
   129   63  188 1    
   130   64   65 am   BACKBONE|DICT|INTERRES
   131   64  189 1    
   132   65   66 2    
   133   67   68 2    
   134   67   69 am   BACKBONE|DICT|INTERRES
   135   69   70 1    
   136   69  190 1    
   137   70   71 1    
   138   70   72 1    
   139   70  191 1    
   140   71  192 1    
   141   71  193 1    
   142   71  194 1    
   143   72   73 2    
   144   72   74 am   BACKBONE|DICT|INTERRES
   145   74   75 1    
   146   74  195 1    
   147   75   76 1    
   148   75   77 1    
   149   75  196 1    
   150   76  197 1    
   151   76  198 1    
   152   76  199 1    
   153   77   78 2    
   154   77   79 am   BACKBONE|DICT|INTERRES
   155   79   80 1    
   156   79  200 1    
   157   80   81 1    
   158   80   82 1    
   159   80  201 1    
   160   81  202 1    
   161   81  203 1    
   162   81  204 1    
   163   82   83 2    
   164   82   84 am   BACKBONE|DICT|INTERRES
   165   84   85 1    
   166   84  205 1    
   167   85   86 1    
   168   85   87 1    
   169   85  206 1    
   170   86  207 1    
   171   86  208 1    
   172   86  209 1    
   173   87   88 2    
   174   87   89 am   BACKBONE|DICT|INTERRES
   175   89   90 1    
   176   89  210 1    
   177   90   91 1    
   178   90   92 1    
   179   90  211 1    
   180   91  212 1    
   181   91  213 1    
   182   91  214 1    
   183   92   93 2    
   184   92   94 am   BACKBONE|DICT|INTERRES
   185   94   95 1    
   186   94  215 1    
   187   95   96 1    
   188   95   97 1    
   189   95  216 1    
   190   96  217 1    
   191   96  218 1    
   192   96  219 1    
   193   97   98 2    
   194   97   99 am   BACKBONE|DICT|INTERRES
   195   99  100 1    
   196   99  220 1    
   197  100  101 1    
   198  100  102 1    
   199  100  221 1    
   200  101  222 1    
   201  101  223 1    
   202  101  224 1    
   203  102  103 2    
   204  102  104 am   BACKBONE|DICT|INTERRES
   205  104  105 1    
   206  104  225 1    
   207  105  106 1    
   208  105  107 1    
   209  105  226 1    
   210  106  227 1    
   211  106  228 1    
   212  106  229 1    
   213  107  108 2    
   214  107  109 am   BACKBONE|DICT|INTERRES
   215  109  110 1    
   216  109  230 1    
   217  110  111 1    
   218  110  112 1    
   219  110  231 1    
   220  111  232 1    
   221  111  233 1    
   222  111  234 1    
   223  112  113 2    
   224  112  114 am   BACKBONE|DICT|INTERRES
   225  114  115 1    
   226  114  235 1    
   227  115  116 1    
   228  115  117 1    
   229  115  236 1    
   230  116  237 1    
   231  116  238 1    
   232  116  239 1    
   233  117  118 2    
   234  117  119 am   BACKBONE|DICT|INTERRES
   235  119  120 1    
   236  119  240 1    
   237  120  121 1    
   238  120  124 1    
   239  120  241 1    
   240  121  122 am   BACKBONE|DICT|INTERRES
   241  121  123 2    
   242  122  242 1    
   243  122  243 1    
   244  124  125 1    
   245  124  244 1    
   246  124  245 1    
   247  125  126 1    
   248  126  246 1    
   249  126  247 1    
@<TRIPOS>SUBSTRUCTURE
     1 UNK         1 GROUP             0       ****    0 ROOT    
