@<TRIPOS>MOLECULE
3R540
247   249    1
SMALL
USER_CHARGES


@<TRIPOS>ATOM
      1 CA         -3.5131  -13.5170  -51.4643 C.3       0 UNK        -0.1800 
      2 C          -2.7441  -13.9548  -50.2269 C.2       0 UNK         0.5000 
      3 O          -2.2047  -15.0597  -50.1995 O.2       0 UNK        -0.5000 
      4 N          -2.6931  -13.0877  -49.2078 N.am      1 UNK        -0.5000 
      5 CA         -1.9866  -13.3225  -47.9403 C.3       1 UNK         0.1400 
      6 C6         -2.5505  -12.4581  -46.7824 C.3       23 UNK        -0.0398 
      7 S7         -4.3545  -12.6343  -46.5552 S.3       23 UNK        -0.2404 
      8 C8         -4.4553  -13.7235  -45.0928 C.3       23 UNK        -0.0205 
      9 C9         -3.8654  -15.1118  -45.3206 C.ar      23 UNK        -0.0193 
     10 C10        -4.1547  -15.8306  -46.4843 C.ar      23 UNK        -0.1150 
     11 C11        -3.6035  -17.0963  -46.7059 C.ar      23 UNK        -0.0193 
     12 C12        -2.7808  -17.6575  -45.7245 C.ar      23 UNK        -0.1150 
     13 C13        -2.4961  -16.9600  -44.5468 C.ar      23 UNK        -0.0193 
     14 C14        -3.0361  -15.6860  -44.3536 C.ar      23 UNK        -0.1150 
     15 C15        -1.5814  -17.5685  -43.4954 C.3       23 UNK        -0.0205 
     16 S16        -2.5001  -18.4047  -42.1620 S.3       23 UNK        -0.2404 
     17 C17        -3.2971  -19.7885  -43.0468 C.3       23 UNK        -0.0398 
     18 CA         -2.2983  -20.9029  -43.4504 C.3       11 UNK         0.1400 
     19 N          -1.5906  -21.5142  -42.3169 N.am      11 UNK        -0.5000 
     20 C          -2.0968  -22.1644  -41.2585 C.2       10 UNK         0.5000 
     21 O          -3.2963  -22.4070  -41.1234 O.2       10 UNK        -0.5000 
     22 CA         -1.1051  -22.6738  -40.1911 C.3       10 UNK         0.1400 
     23 CB         -1.0638  -24.2107  -40.1952 C.3       10 UNK        -0.1800 
     24 N           0.2567  -22.1742  -40.3869 N.am      10 UNK        -0.5000 
     25 C           0.7007  -20.9637  -40.0193 C.2       9 UNK         0.5000 
     26 O           0.0334  -20.1559  -39.3732 O.2       9 UNK        -0.5000 
     27 CA          2.1241  -20.5860  -40.4824 C.3       9 UNK         0.1400 
     28 CB          3.1478  -20.8717  -39.3734 C.3       9 UNK        -0.1800 
     29 N           2.5350  -21.2822  -41.7083 N.am      9 UNK        -0.5000 
     30 C           1.9625  -21.0935  -42.9039 C.2       8 UNK         0.5000 
     31 O           1.0442  -20.2974  -43.0984 O.2       8 UNK        -0.5000 
     32 CA          2.4388  -21.9876  -44.0519 C.3       8 UNK         0.1400 
     33 CB          1.2602  -22.7631  -44.6647 C.3       8 UNK        -0.1800 
     34 N           3.0752  -21.1616  -45.0685 N.am      8 UNK        -0.5000 
     35 C           4.0701  -21.5719  -45.8648 C.2       7 UNK         0.5000 
     36 O           4.5183  -22.7195  -45.8636 O.2       7 UNK        -0.5000 
     37 CA          4.6974  -20.5222  -46.8011 C.3       7 UNK         0.1400 
     38 CB          3.8468  -20.3368  -48.0671 C.3       7 UNK        -0.1800 
     39 N           4.8984  -19.2286  -46.1479 N.am      7 UNK        -0.5000 
     40 C           5.7502  -19.0049  -45.1354 C.2       6 UNK         0.5000 
     41 O           6.5077  -19.8591  -44.6741 O.2       6 UNK        -0.5000 
     42 CA          5.7406  -17.5942  -44.5205 C.3       6 UNK         0.1400 
     43 CB          6.6427  -16.6360  -45.3143 C.3       6 UNK        -0.1800 
     44 N           4.3830  -17.0545  -44.4525 N.am      6 UNK        -0.5000 
     45 C           3.4922  -17.3813  -43.5051 C.2       5 UNK         0.5000 
     46 O           3.7624  -18.0791  -42.5280 O.2       5 UNK        -0.5000 
     47 CA          2.0577  -16.8442  -43.6776 C.3       5 UNK         0.1400 
     48 CB          1.8718  -15.5433  -42.8821 C.3       5 UNK        -0.1800 
     49 N           1.6960  -16.6020  -45.0763 N.am      5 UNK        -0.5000 
     50 C           1.5284  -17.5617  -45.9977 C.2       4 UNK         0.5000 
     51 O           1.6114  -18.7634  -45.7566 O.2       4 UNK        -0.5000 
     52 CA          1.3111  -17.0947  -47.4467 C.3       4 UNK         0.1400 
     53 CB         -0.1751  -16.8651  -47.7402 C.3       4 UNK        -0.1800 
     54 N           2.0669  -15.8785  -47.7471 N.am      4 UNK        -0.5000 
     55 C           3.4000  -15.8412  -47.8797 C.2       3 UNK         0.5000 
     56 O           4.1085  -16.8349  -47.7154 O.2       3 UNK        -0.5000 
     57 CA          4.0692  -14.4829  -48.1852 C.3       3 UNK         0.1400 
     58 CB          5.1289  -14.6007  -49.2994 C.3       3 UNK        -0.1800 
     59 N           3.1327  -13.3833  -48.4530 N.am      3 UNK        -0.5000 
     60 C           2.2919  -13.2473  -49.4885 C.2       2 UNK         0.5000 
     61 O           2.2007  -14.0422  -50.4252 O.2       2 UNK        -0.5000 
     62 CA          1.3531  -12.0277  -49.4275 C.3       2 UNK         0.1400 
     63 CB          1.3835  -11.2333  -50.7435 C.3       2 UNK        -0.1800 
     64 N          -0.0307  -12.4016  -49.1297 N.am      2 UNK        -0.5000 
     65 C          -0.4632  -13.0988  -48.0670 C.2       1 UNK         0.5000 
     66 O           0.2831  -13.5427  -47.1929 O.2       1 UNK        -0.5000 
     67 C          -2.9588  -21.9065  -44.4166 C.2       11 UNK         0.5000 
     68 O          -2.9217  -21.6726  -45.6242 O.2       11 UNK        -0.5000 
     69 N          -3.5261  -23.0039  -43.9006 N.am      12 UNK        -0.5000 
     70 CA         -4.2706  -24.0189  -44.6512 C.3       12 UNK         0.1400 
     71 CB         -4.7759  -25.0947  -43.6786 C.3       12 UNK        -0.1800 
     72 C          -3.4752  -24.6608  -45.8029 C.2       12 UNK         0.5000 
     73 O          -4.0218  -24.8484  -46.8891 O.2       12 UNK        -0.5000 
     74 N          -2.1884  -24.9448  -45.5615 N.am      13 UNK        -0.5000 
     75 CA         -1.2799  -25.5217  -46.5549 C.3       13 UNK         0.1400 
     76 CB         -0.0757  -26.1528  -45.8400 C.3       13 UNK        -0.1800 
     77 C          -0.8331  -24.5192  -47.6392 C.2       13 UNK         0.5000 
     78 O          -0.4230  -24.9536  -48.7155 O.2       13 UNK        -0.5000 
     79 N          -0.9387  -23.2110  -47.3615 N.am      14 UNK        -0.5000 
     80 CA         -0.7325  -22.1508  -48.3490 C.3       14 UNK         0.1400 
     81 CB         -0.2479  -20.8644  -47.6629 C.3       14 UNK        -0.1800 
     82 C          -2.0234  -21.9063  -49.1451 C.2       14 UNK         0.5000 
     83 O          -1.9737  -21.8309  -50.3708 O.2       14 UNK        -0.5000 
     84 N          -3.1658  -21.8506  -48.4434 N.am      15 UNK        -0.5000 
     85 CA         -4.5103  -21.7105  -49.0124 C.3       15 UNK         0.1400 
     86 CB         -5.5329  -21.6273  -47.8703 C.3       15 UNK        -0.1800 
     87 C          -4.8852  -22.8397  -49.9928 C.2       15 UNK         0.5000 
     88 O          -5.6088  -22.5935  -50.9579 O.2       15 UNK        -0.5000 
     89 N          -4.3318  -24.0401  -49.7669 N.am      16 UNK        -0.5000 
     90 CA         -4.4203  -25.2138  -50.6390 C.3       16 UNK         0.1400 
     91 CB         -3.7164  -26.3955  -49.9543 C.3       16 UNK        -0.1800 
     92 C          -3.8599  -25.0065  -52.0639 C.2       16 UNK         0.5000 
     93 O          -4.2042  -25.7828  -52.9558 O.2       16 UNK        -0.5000 
     94 N          -3.0416  -23.9628  -52.2748 N.am      17 UNK        -0.5000 
     95 CA         -2.5680  -23.5301  -53.5929 C.3       17 UNK         0.1400 
     96 CB         -1.3352  -22.6311  -53.4144 C.3       17 UNK        -0.1800 
     97 C          -3.6543  -22.8153  -54.4290 C.2       17 UNK         0.5000 
     98 O          -3.4199  -22.5473  -55.6087 O.2       17 UNK        -0.5000 
     99 N          -4.8161  -22.5260  -53.8206 N.am      18 UNK        -0.5000 
    100 CA        -6.0105  -21.9296  -54.4177 C.3       18 UNK         0.1400 
    101 CB        -6.6564  -22.9032  -55.4295 C.3       18 UNK        -0.1800 
    102 C         -5.7193  -20.5248  -54.9764 C.2       18 UNK         0.5000 
    103 O         -5.3035  -19.6559  -54.2083 O.2       18 UNK        -0.5000 
    104 N         -5.9267  -20.3207  -56.2842 N.am      19 UNK        -0.5000 
    105 CA        -5.7621  -19.0479  -56.9937 C.3       19 UNK         0.1400 
    106 CB        -6.2480  -19.2242  -58.4407 C.3       19 UNK        -0.1800 
    107 C         -4.3311  -18.4715  -56.9719 C.2       19 UNK         0.5000 
    108 O         -4.1648  -17.2717  -57.1939 O.2       19 UNK        -0.5000 
    109 N         -3.3289  -19.3166  -56.6926 N.am      20 UNK        -0.5000 
    110 CA        -1.9394  -18.9073  -56.4785 C.3       20 UNK         0.1400 
    111 CB        -1.0254  -20.1216  -56.6979 C.3       20 UNK        -0.1800 
    112 C         -1.6979  -18.2778  -55.0884 C.2       20 UNK         0.5000 
    113 O         -0.6385  -17.6854  -54.8783 O.2       20 UNK        -0.5000 
    114 N         -2.6652  -18.4109  -54.1728 N.am      21 UNK        -0.5000 
    115 CA        -2.6630  -17.8331  -52.8347 C.3       21 UNK         0.1400 
    116 CB        -2.3369  -18.9371  -51.8080 C.3       21 UNK        -0.1800 
    117 C         -4.0131  -17.1275  -52.6059 C.2       21 UNK         0.5000 
    118 O         -4.4162  -16.3105  -53.4359 O.2       21 UNK        -0.5000 
    119 N         -4.6797  -17.4375  -51.4900 N.am      22 UNK        -0.5000 
    120 CA        -5.9343  -16.8231  -51.0316 C.3       22 UNK         0.1400 
    121 C         -7.2305  -17.5753  -51.4543 C.2       22 UNK         0.5000 
    122 N         -7.1732  -18.5891  -52.3072 N.am      22 UNK        -0.7600 
    123 O         -8.3216  -17.2184  -51.0178 O.2       22 UNK        -0.5000 
    124 C124       -5.8720  -16.5294  -49.5102 C.3       23 UNK        -0.0398 
    125 S125       -5.5910  -18.0106  -48.4699 S.3       23 UNK        -0.2404 
    126 C126       -3.8319  -17.8388  -48.0192 C.3       23 UNK        -0.0205 
    127 H127       -4.4605  -14.0504  -51.5253 H         1 UNK         0.0600 
    128 H128       -3.7237  -12.4475  -51.4526 H         1 UNK         0.0600 
    129 H129       -2.9385  -13.7396  -52.3635 H         1 UNK         0.0600 
    130 H130       -3.1859  -12.2084  -49.2765 H         1 UNK         0.3000 
    131 H131       -2.1220  -14.3701  -47.6686 H         1 UNK         0.0600 
    132 H132       -2.3448  -11.4014  -46.9624 H         1 UNK         0.0800 
    133 H133       -2.0505  -12.7056  -45.8440 H         1 UNK         0.0800 
    134 H134       -3.9660  -13.2278  -44.2529 H         1 UNK         0.0800 
    135 H135       -5.5037  -13.8368  -44.8146 H         1 UNK         0.0800 
    136 H136       -4.7965  -15.3829  -47.2252 H         1 UNK         0.1150 
    137 H137       -2.3453  -18.6341  -45.8829 H         1 UNK         0.1150 
    138 H138       -2.8109  -15.1443  -43.4456 H         1 UNK         0.1150 
    139 H139       -0.8746  -18.2597  -43.9556 H         1 UNK         0.0800 
    140 H140       -0.9765  -16.7801  -43.0478 H         1 UNK         0.0800 
    141 H141       -3.8201  -19.3919  -43.9174 H         1 UNK         0.0800 
    142 H142       -4.0788  -20.1926  -42.4024 H         1 UNK         0.0800 
    143 H143       -1.5109  -20.4374  -44.0431 H         1 UNK         0.0600 
    144 H144       -0.5942  -21.3335  -42.3220 H         1 UNK         0.3000 
    145 H145       -1.4709  -22.3416  -39.2173 H         1 UNK         0.0600 
    146 H146       -0.4021  -24.5893  -39.4159 H         1 UNK         0.0600 
    147 H147       -2.0532  -24.6309  -40.0094 H         1 UNK         0.0600 
    148 H148       -0.7156  -24.6024  -41.1519 H         1 UNK         0.0600 
    149 H149        0.8883  -22.7767  -40.8931 H         1 UNK         0.3000 
    150 H150        2.1289  -19.5128  -40.6853 H         1 UNK         0.0600 
    151 H151        2.8832  -20.3481  -38.4537 H         1 UNK         0.0600 
    152 H152        4.1440  -20.5352  -39.6617 H         1 UNK         0.0600 
    153 H153        3.2048  -21.9358  -39.1411 H         1 UNK         0.0600 
    154 H154        3.2904  -21.9464  -41.6183 H         1 UNK         0.3000 
    155 H155        3.1616  -22.7053  -43.6579 H         1 UNK         0.0600 
    156 H156        0.4819  -22.0914  -45.0270 H         1 UNK         0.0600 
    157 H157        0.8041  -23.4234  -43.9266 H         1 UNK         0.0600 
    158 H158        1.5877  -23.3760  -45.5041 H         1 UNK         0.0600 
    159 H159        2.7107  -20.2146  -45.1579 H         1 UNK         0.3000 
    160 H160        5.6774  -20.8940  -47.1072 H         1 UNK         0.0600 
    161 H161        4.3102  -19.6286  -48.7543 H         1 UNK         0.0600 
    162 H162        2.8484  -19.9701  -47.8326 H         1 UNK         0.0600 
    163 H163        3.7305  -21.2812  -48.6000 H         1 UNK         0.0600 
    164 H164        4.3660  -18.4489  -46.5169 H         1 UNK         0.3000 
    165 H165        6.1434  -17.6668  -43.5078 H         1 UNK         0.0600 
    166 H166        6.6500  -15.6412  -44.8689 H         1 UNK         0.0600 
    167 H167        7.6727  -16.9946  -45.3241 H         1 UNK         0.0600 
    168 H168        6.3245  -16.5369  -46.3517 H         1 UNK         0.0600 
    169 H169        4.0755  -16.4957  -45.2336 H         1 UNK         0.3000 
    170 H170        1.3796  -17.5968  -43.2722 H         1 UNK         0.0600 
    171 H171        2.0816  -15.7013  -41.8234 H         1 UNK         0.0600 
    172 H172        2.5397  -14.7569  -43.2358 H         1 UNK         0.0600 
    173 H173        0.8497  -15.1725  -42.9583 H         1 UNK         0.0600 
    174 H174        1.6068  -15.6386  -45.3661 H         1 UNK         0.3000 
    175 H175        1.6633  -17.8849  -48.1125 H         1 UNK         0.0600 
    176 H176       -0.6186  -16.1558  -47.0415 H         1 UNK         0.0600 
    177 H177       -0.3272  -16.4852  -48.7505 H         1 UNK         0.0600 
    178 H178       -0.7299  -17.7991  -47.6605 H         1 UNK         0.0600 
    179 H179        1.5388  -15.0163  -47.8248 H         1 UNK         0.3000 
    180 H180        4.5940  -14.2052  -47.2700 H         1 UNK         0.0600 
    181 H181        4.6974  -14.9533  -50.2363 H         1 UNK         0.0600 
    182 H182        5.9133  -15.3051  -49.0196 H         1 UNK         0.0600 
    183 H183        5.6101  -13.6414  -49.4901 H         1 UNK         0.0600 
    184 H184        3.0824  -12.6874  -47.7215 H         1 UNK         0.3000 
    185 H185        1.6920  -11.3635  -48.6299 H         1 UNK         0.0600 
    186 H186        2.4024  -10.9376  -50.9971 H         1 UNK         0.0600 
    187 H187        0.9945  -11.8189  -51.5776 H         1 UNK         0.0600 
    188 H188        0.7907  -10.3215  -50.6686 H         1 UNK         0.0600 
    189 H189       -0.7223  -12.1115  -49.8047 H         1 UNK         0.3000 
    190 H190       -3.5342  -23.0835  -42.8878 H         1 UNK         0.3000 
    191 H191       -5.1390  -23.5245  -45.0902 H         1 UNK         0.0600 
    192 H192       -3.9522  -25.5949  -43.1678 H         1 UNK         0.0600 
    193 H193       -5.3509  -25.8586  -44.2037 H         1 UNK         0.0600 
    194 H194       -5.4279  -24.6635  -42.9187 H         1 UNK         0.0600 
    195 H195       -1.8124  -24.7557  -44.6443 H         1 UNK         0.3000 
    196 H196       -1.8097  -26.3251  -47.0719 H         1 UNK         0.0600 
    197 H197        0.4643  -25.4297  -45.2323 H         1 UNK         0.0600 
    198 H198        0.6309  -26.5724  -46.5573 H         1 UNK         0.0600 
    199 H199       -0.3918  -26.9655  -45.1859 H         1 UNK         0.0600 
    200 H200       -1.3453  -22.9319  -46.4793 H         1 UNK         0.3000 
    201 H201        0.0430  -22.4565  -49.0548 H         1 UNK         0.0600 
    202 H202        0.7024  -21.0265  -47.1553 H         1 UNK         0.0600 
    203 H203       -0.9599  -20.4915  -46.9274 H         1 UNK         0.0600 
    204 H204       -0.0882  -20.0730  -48.3957 H         1 UNK         0.0600 
    205 H205       -3.1121  -21.8906  -47.4281 H         1 UNK         0.3000 
    206 H206       -4.5344  -20.7713  -49.5680 H         1 UNK         0.0600 
    207 H207       -5.2854  -20.8260  -47.1738 H         1 UNK         0.0600 
    208 H208       -6.5324  -21.4254  -48.2574 H         1 UNK         0.0600 
    209 H209       -5.5800  -22.5581  -47.3053 H         1 UNK         0.0600 
    210 H210       -3.8210  -24.1648  -48.9008 H         1 UNK         0.3000 
    211 H211       -5.4784  -25.4608  -50.7442 H         1 UNK         0.0600 
    212 H212       -2.6578  -26.1913  -49.7922 H         1 UNK         0.0600 
    213 H213       -3.7871  -27.2997  -50.5603 H         1 UNK         0.0600 
    214 H214       -4.1680  -26.6196  -48.9879 H         1 UNK         0.0600 
    215 H215       -2.7945  -23.3614  -51.4955 H         1 UNK         0.3000 
    216 H216       -2.2582  -24.4166  -54.1500 H         1 UNK         0.0600 
    217 H217       -0.8233  -22.4825  -54.3645 H         1 UNK         0.0600 
    218 H218       -0.6135  -23.0746  -52.7280 H         1 UNK         0.0600 
    219 H219       -1.6064  -21.6483  -53.0285 H         1 UNK         0.0600 
    220 H220       -4.8960  -22.7199  -52.8275 H         1 UNK         0.3000 
    221 H221       -6.7194  -21.7871  -53.6008 H         1 UNK         0.0600 
    222 H222       -6.0078  -23.1083  -56.2818 H         1 UNK         0.0600 
    223 H223       -6.8826  -23.8581  -54.9546 H         1 UNK         0.0600 
    224 H224       -7.5983  -22.5078  -55.8119 H         1 UNK         0.0600 
    225 H225       -6.2407  -21.1024  -56.8407 H         1 UNK         0.3000 
    226 H226       -6.4069  -18.3157  -56.5033 H         1 UNK         0.0600 
    227 H227       -7.2920  -19.5364  -58.4722 H         1 UNK         0.0600 
    228 H228       -6.1745  -18.2881  -58.9960 H         1 UNK         0.0600 
    229 H229       -5.6567  -19.9695  -58.9742 H         1 UNK         0.0600 
    230 H230       -3.5473  -20.2896  -56.5196 H         1 UNK         0.3000 
    231 H231       -1.6779  -18.1533  -57.2239 H         1 UNK         0.0600 
    232 H232       -1.1374  -20.5230  -57.7052 H         1 UNK         0.0600 
    233 H233       -1.2496  -20.9202  -55.9931 H         1 UNK         0.0600 
    234 H234        0.0240  -19.8533  -56.5694 H         1 UNK         0.0600 
    235 H235       -3.5338  -18.8680  -54.4348 H         1 UNK         0.3000 
    236 H236       -1.8989  -17.0571  -52.7567 H         1 UNK         0.0600 
    237 H237       -2.2777  -18.5385  -50.7947 H         1 UNK         0.0600 
    238 H238       -3.0828  -19.7336  -51.8190 H         1 UNK         0.0600 
    239 H239       -1.3695  -19.3917  -52.0214 H         1 UNK         0.0600 
    240 H240       -4.3040  -18.1500  -50.8832 H         1 UNK         0.3000 
    241 H241       -6.0299  -15.8525  -51.5202 H         1 UNK         0.0600 
    242 H242       -8.0290  -19.0517  -52.5656 H         1 UNK         0.3800 
    243 H243       -6.3033  -18.8596  -52.7545 H         1 UNK         0.3800 
    244 H244       -6.7859  -16.0385  -49.1720 H         1 UNK         0.0800 
    245 H245       -5.0760  -15.8062  -49.3374 H         1 UNK         0.0800 
    246 H246       -3.4074  -18.8422  -47.9588 H         1 UNK         0.0800 
    247 H247       -3.2863  -17.3276  -48.8133 H         1 UNK         0.0800 
@<TRIPOS>BOND
     1    1    2 1    
     2    1  127 1    
     3    1  128 1    
     4    1  129 1    
     5    2    3 2    
     6    2    4 am   BACKBONE|DICT|INTERRES
     7    4    5 1    
     8    4  130 1    
     9    5    6 1    
    10    5   65 1    
    11    5  131 1    
    12    6    7 1    
    13    6  132 1    
    14    6  133 1    
    15    7    8 1    
    16    8    9 1    
    17    8  134 1    
    18    8  135 1    
    19    9   10 ar   
    20    9   14 ar   
    21   10   11 ar   
    22   10  136 1    
    23   11   12 ar   
    24   11  126 1    
    25   12   13 ar   
    26   12  137 1    
    27   13   14 ar   
    28   13   15 1    
    29   14  138 1    
    30   15   16 1    
    31   15  139 1    
    32   15  140 1    
    33   16   17 1    
    34   17   18 1    
    35   17  141 1    
    36   17  142 1    
    37   18   19 1    
    38   18   67 1    
    39   18  143 1    
    40   19   20 am   BACKBONE|DICT|INTERRES
    41   19  144 1    
    42   20   21 2    
    43   20   22 1    
    44   22   23 1    
    45   22   24 1    
    46   22  145 1    
    47   23  146 1    
    48   23  147 1    
    49   23  148 1    
    50   24   25 am   BACKBONE|DICT|INTERRES
    51   24  149 1    
    52   25   26 2    
    53   25   27 1    
    54   27   28 1    
    55   27   29 1    
    56   27  150 1    
    57   28  151 1    
    58   28  152 1    
    59   28  153 1    
    60   29   30 am   BACKBONE|DICT|INTERRES
    61   29  154 1    
    62   30   31 2    
    63   30   32 1    
    64   32   33 1    
    65   32   34 1    
    66   32  155 1    
    67   33  156 1    
    68   33  157 1    
    69   33  158 1    
    70   34   35 am   BACKBONE|DICT|INTERRES
    71   34  159 1    
    72   35   36 2    
    73   35   37 1    
    74   37   38 1    
    75   37   39 1    
    76   37  160 1    
    77   38  161 1    
    78   38  162 1    
    79   38  163 1    
    80   39   40 am   BACKBONE|DICT|INTERRES
    81   39  164 1    
    82   40   41 2    
    83   40   42 1    
    84   42   43 1    
    85   42   44 1    
    86   42  165 1    
    87   43  166 1    
    88   43  167 1    
    89   43  168 1    
    90   44   45 am   BACKBONE|DICT|INTERRES
    91   44  169 1    
    92   45   46 2    
    93   45   47 1    
    94   47   48 1    
    95   47   49 1    
    96   47  170 1    
    97   48  171 1    
    98   48  172 1    
    99   48  173 1    
   100   49   50 am   BACKBONE|DICT|INTERRES
   101   49  174 1    
   102   50   51 2    
   103   50   52 1    
   104   52   53 1    
   105   52   54 1    
   106   52  175 1    
   107   53  176 1    
   108   53  177 1    
   109   53  178 1    
   110   54   55 am   BACKBONE|DICT|INTERRES
   111   54  179 1    
   112   55   56 2    
   113   55   57 1    
   114   57   58 1    
   115   57   59 1    
   116   57  180 1    
   117   58  181 1    
   118   58  182 1    
   119   58  183 1    
   120   59   60 am   BACKBONE|DICT|INTERRES
   121   59  184 1    
   122   60   61 2    
   123   60   62 1    
   124   62   63 1    
   125   62   64 1    
   126   62  185 1    
   127   63  186 1    
   128   63  187 1    
   129   63  188 1    
   130   64   65 am   BACKBONE|DICT|INTERRES
   131   64  189 1    
   132   65   66 2    
   133   67   68 2    
   134   67   69 am   BACKBONE|DICT|INTERRES
   135   69   70 1    
   136   69  190 1    
   137   70   71 1    
   138   70   72 1    
   139   70  191 1    
   140   71  192 1    
   141   71  193 1    
   142   71  194 1    
   143   72   73 2    
   144   72   74 am   BACKBONE|DICT|INTERRES
   145   74   75 1    
   146   74  195 1    
   147   75   76 1    
   148   75   77 1    
   149   75  196 1    
   150   76  197 1    
   151   76  198 1    
   152   76  199 1    
   153   77   78 2    
   154   77   79 am   BACKBONE|DICT|INTERRES
   155   79   80 1    
   156   79  200 1    
   157   80   81 1    
   158   80   82 1    
   159   80  201 1    
   160   81  202 1    
   161   81  203 1    
   162   81  204 1    
   163   82   83 2    
   164   82   84 am   BACKBONE|DICT|INTERRES
   165   84   85 1    
   166   84  205 1    
   167   85   86 1    
   168   85   87 1    
   169   85  206 1    
   170   86  207 1    
   171   86  208 1    
   172   86  209 1    
   173   87   88 2    
   174   87   89 am   BACKBONE|DICT|INTERRES
   175   89   90 1    
   176   89  210 1    
   177   90   91 1    
   178   90   92 1    
   179   90  211 1    
   180   91  212 1    
   181   91  213 1    
   182   91  214 1    
   183   92   93 2    
   184   92   94 am   BACKBONE|DICT|INTERRES
   185   94   95 1    
   186   94  215 1    
   187   95   96 1    
   188   95   97 1    
   189   95  216 1    
   190   96  217 1    
   191   96  218 1    
   192   96  219 1    
   193   97   98 2    
   194   97   99 am   BACKBONE|DICT|INTERRES
   195   99  100 1    
   196   99  220 1    
   197  100  101 1    
   198  100  102 1    
   199  100  221 1    
   200  101  222 1    
   201  101  223 1    
   202  101  224 1    
   203  102  103 2    
   204  102  104 am   BACKBONE|DICT|INTERRES
   205  104  105 1    
   206  104  225 1    
   207  105  106 1    
   208  105  107 1    
   209  105  226 1    
   210  106  227 1    
   211  106  228 1    
   212  106  229 1    
   213  107  108 2    
   214  107  109 am   BACKBONE|DICT|INTERRES
   215  109  110 1    
   216  109  230 1    
   217  110  111 1    
   218  110  112 1    
   219  110  231 1    
   220  111  232 1    
   221  111  233 1    
   222  111  234 1    
   223  112  113 2    
   224  112  114 am   BACKBONE|DICT|INTERRES
   225  114  115 1    
   226  114  235 1    
   227  115  116 1    
   228  115  117 1    
   229  115  236 1    
   230  116  237 1    
   231  116  238 1    
   232  116  239 1    
   233  117  118 2    
   234  117  119 am   BACKBONE|DICT|INTERRES
   235  119  120 1    
   236  119  240 1    
   237  120  121 1    
   238  120  124 1    
   239  120  241 1    
   240  121  122 am   BACKBONE|DICT|INTERRES
   241  121  123 2    
   242  122  242 1    
   243  122  243 1    
   244  124  125 1    
   245  124  244 1    
   246  124  245 1    
   247  125  126 1    
   248  126  246 1    
   249  126  247 1    
@<TRIPOS>SUBSTRUCTURE
     1 UNK         1 GROUP             0       ****    0 ROOT    
