@<TRIPOS>MOLECULE
3R540
247   249    1
SMALL
USER_CHARGES


@<TRIPOS>ATOM
      1 CA          5.1185  -10.0806  -49.8789 C.3       0 UNK        -0.1800 
      2 C           3.9269  -10.7085  -49.1707 C.2       0 UNK         0.5000 
      3 O           3.2443  -10.0283  -48.4045 O.2       0 UNK        -0.5000 
      4 N           3.6885  -12.0051  -49.4117 N.am      1 UNK        -0.5000 
      5 CA          2.5986  -12.8514  -48.8965 C.3       1 UNK         0.1400 
      6 C6          1.1721  -12.3384  -49.2340 C.3       23 UNK        -0.0398 
      7 S7          0.8442  -12.2589  -51.0281 S.3       23 UNK        -0.2404 
      8 C8         -0.2096  -13.7250  -51.2750 C.3       23 UNK        -0.0205 
      9 C9          0.6076  -15.0071  -51.2781 C.ar      23 UNK        -0.0193 
     10 C10         1.1153  -15.5046  -52.4789 C.ar      23 UNK        -0.1150 
     11 C11         1.9071  -16.6553  -52.4952 C.ar      23 UNK        -0.0193 
     12 C12         2.2108  -17.2973  -51.2903 C.ar      23 UNK        -0.1150 
     13 C13         1.7003  -16.8151  -50.0778 C.ar      23 UNK        -0.0193 
     14 C14         0.8825  -15.6818  -50.0860 C.ar      23 UNK        -0.1150 
     15 C15         2.0749  -17.4438  -48.7383 C.3       23 UNK        -0.0205 
     16 S16         2.1993  -19.2604  -48.7526 S.3       23 UNK        -0.2404 
     17 C17         0.4818  -19.7700  -49.0816 C.3       23 UNK        -0.0398 
     18 CA          0.0141  -20.8588  -48.0867 C.3       11 UNK         0.1400 
     19 N          -0.4874  -20.3056  -46.8229 N.am      11 UNK        -0.5000 
     20 C          -0.7948  -21.0542  -45.7533 C.2       10 UNK         0.5000 
     21 O          -0.6322  -22.2731  -45.7009 O.2       10 UNK        -0.5000 
     22 CA         -1.4457  -20.3389  -44.5607 C.3       10 UNK         0.1400 
     23 CB         -0.3933  -19.6624  -43.6709 C.3       10 UNK        -0.1800 
     24 N          -2.4591  -19.3728  -44.9857 N.am      10 UNK        -0.5000 
     25 C          -3.6566  -19.7188  -45.4805 C.2       9 UNK         0.5000 
     26 O          -4.0350  -20.8827  -45.5996 O.2       9 UNK        -0.5000 
     27 CA         -4.5700  -18.5802  -45.9663 C.3       9 UNK         0.1400 
     28 CB         -5.3988  -18.0088  -44.8072 C.3       9 UNK        -0.1800 
     29 N          -3.8196  -17.5084  -46.6199 N.am      9 UNK        -0.5000 
     30 C          -3.2162  -17.6510  -47.8086 C.2       8 UNK         0.5000 
     31 O          -3.2704  -18.6845  -48.4717 O.2       8 UNK        -0.5000 
     32 CA         -2.3967  -16.4598  -48.3373 C.3       8 UNK         0.1400 
     33 CB         -3.2913  -15.5389  -49.1791 C.3       8 UNK        -0.1800 
     34 N          -1.7566  -15.6645  -47.2876 N.am      8 UNK        -0.5000 
     35 C          -0.8985  -16.1307  -46.3709 C.2       7 UNK         0.5000 
     36 O          -0.5710  -17.3169  -46.2896 O.2       7 UNK        -0.5000 
     37 CA         -0.3293  -15.1182  -45.3542 C.3       7 UNK         0.1400 
     38 CB         -0.8353  -13.6703  -45.5393 C.3       7 UNK        -0.1800 
     39 N          -0.5361  -15.5524  -43.9736 N.am      7 UNK        -0.5000 
     40 C          -1.6981  -15.8936  -43.3964 C.2       6 UNK         0.5000 
     41 O          -2.7828  -15.8667  -43.9798 O.2       6 UNK        -0.5000 
     42 CA         -1.6241  -16.3703  -41.9342 C.3       6 UNK         0.1400 
     43 CB         -2.7401  -17.3721  -41.5832 C.3       6 UNK        -0.1800 
     44 N          -0.3171  -16.9724  -41.6598 N.am      6 UNK        -0.5000 
     45 C           0.4967  -16.6340  -40.6549 C.2       5 UNK         0.5000 
     46 O           0.2056  -15.8180  -39.7796 O.2       5 UNK        -0.5000 
     47 CA          1.8820  -17.3122  -40.6246 C.3       5 UNK         0.1400 
     48 CB          1.8262  -18.5859  -39.7668 C.3       5 UNK        -0.1800 
     49 N           2.4716  -17.6477  -41.9299 N.am      5 UNK        -0.5000 
     50 C           2.6982  -16.7953  -42.9395 C.2       4 UNK         0.5000 
     51 O           2.2415  -15.6508  -42.9888 O.2       4 UNK        -0.5000 
     52 CA          3.5639  -17.3215  -44.0993 C.3       4 UNK         0.1400 
     53 CB          2.7016  -17.9729  -45.1868 C.3       4 UNK        -0.1800 
     54 N           4.3201  -16.2235  -44.6971 N.am      4 UNK        -0.5000 
     55 C           5.5141  -15.7993  -44.2599 C.2       3 UNK         0.5000 
     56 O           6.1657  -16.3716  -43.3850 O.2       3 UNK        -0.5000 
     57 CA          6.0697  -14.5071  -44.8935 C.3       3 UNK         0.1400 
     58 CB          6.9516  -14.8363  -46.1076 C.3       3 UNK        -0.1800 
     59 N           5.0127  -13.5853  -45.3100 N.am      3 UNK        -0.5000 
     60 C           4.1821  -12.9435  -44.4778 C.2       2 UNK         0.5000 
     61 O           4.3221  -12.9470  -43.2540 O.2       2 UNK        -0.5000 
     62 CA          2.9969  -12.1723  -45.0999 C.3       2 UNK         0.1400 
     63 CB          2.9500  -10.7214  -44.5927 C.3       2 UNK        -0.1800 
     64 N           2.9582  -12.1460  -46.5660 N.am      2 UNK        -0.5000 
     65 C           2.7133  -13.1707  -47.3905 C.2       1 UNK         0.5000 
     66 O           2.5932  -14.3345  -47.0080 O.2       1 UNK        -0.5000 
     67 C          -1.0071  -21.8143  -48.7365 C.2       11 UNK         0.5000 
     68 O          -0.6339  -22.9216  -49.1253 O.2       11 UNK        -0.5000 
     69 N          -2.2834  -21.4104  -48.7848 N.am      12 UNK        -0.5000 
     70 CA         -3.3664  -22.2336  -49.3152 C.3       12 UNK         0.1400 
     71 CB         -4.6286  -21.3874  -49.4701 C.3       12 UNK        -0.1800 
     72 C          -3.6649  -23.4814  -48.4691 C.2       12 UNK         0.5000 
     73 O          -4.0388  -24.5065  -49.0397 O.2       12 UNK        -0.5000 
     74 N          -3.5031  -23.3849  -47.1426 N.am      13 UNK        -0.5000 
     75 CA         -3.6231  -24.5122  -46.2183 C.3       13 UNK         0.1400 
     76 CB         -3.7134  -24.0051  -44.7718 C.3       13 UNK        -0.1800 
     77 C          -2.4651  -25.5112  -46.3782 C.2       13 UNK         0.5000 
     78 O          -2.7127  -26.7159  -46.4157 O.2       13 UNK        -0.5000 
     79 N          -1.2333  -24.9994  -46.5206 N.am      14 UNK        -0.5000 
     80 CA         -0.0260  -25.7888  -46.7813 C.3       14 UNK         0.1400 
     81 CB          1.2119  -24.8847  -46.6813 C.3       14 UNK        -0.1800 
     82 C          -0.0681  -26.5118  -48.1412 C.2       14 UNK         0.5000 
     83 O           0.3673  -27.6598  -48.2355 O.2       14 UNK        -0.5000 
     84 N          -0.6334  -25.8437  -49.1556 N.am      15 UNK        -0.5000 
     85 CA         -0.9046  -26.3999  -50.4828 C.3       15 UNK         0.1400 
     86 CB         -1.1582  -25.2382  -51.4568 C.3       15 UNK        -0.1800 
     87 C          -2.0926  -27.3859  -50.5103 C.2       15 UNK         0.5000 
     88 O          -2.2637  -28.0840  -51.5103 O.2       15 UNK        -0.5000 
     89 N          -2.8987  -27.4065  -49.4367 N.am      16 UNK        -0.5000 
     90 CA         -4.1431  -28.1644  -49.2566 C.3       16 UNK         0.1400 
     91 CB         -3.8684  -29.6823  -49.2376 C.3       16 UNK        -0.1800 
     92 C          -5.2490  -27.7592  -50.2563 C.2       16 UNK         0.5000 
     93 O          -6.0924  -28.5825  -50.6166 O.2       16 UNK        -0.5000 
     94 N          -5.2210  -26.4915  -50.6832 N.am      17 UNK        -0.5000 
     95 CA         -6.1620  -25.8945  -51.6258 C.3       17 UNK         0.1400 
     96 CB         -5.3929  -24.9363  -52.5508 C.3       17 UNK        -0.1800 
     97 C          -7.2825  -25.1382  -50.8960 C.2       17 UNK         0.5000 
     98 O          -8.4301  -25.1867  -51.3379 O.2       17 UNK        -0.5000 
     99 N          -6.9191  -24.4338  -49.8104 N.am      18 UNK        -0.5000 
    100 CA        -7.7727  -23.5813  -48.9652 C.3       18 UNK         0.1400 
    101 CB        -8.7929  -24.4415  -48.1926 C.3       18 UNK        -0.1800 
    102 C         -8.4431  -22.3959  -49.7069 C.2       18 UNK         0.5000 
    103 O         -9.4086  -21.8221  -49.2020 O.2       18 UNK        -0.5000 
    104 N         -7.9148  -22.0403  -50.8860 N.am      19 UNK        -0.5000 
    105 CA        -8.4650  -21.0411  -51.8047 C.3       19 UNK         0.1400 
    106 CB        -8.0509  -21.4380  -53.2321 C.3       19 UNK        -0.1800 
    107 C         -8.0286  -19.5912  -51.5069 C.2       19 UNK         0.5000 
    108 O         -8.5263  -18.6806  -52.1694 O.2       19 UNK        -0.5000 
    109 N         -7.1046  -19.4057  -50.5505 N.am      20 UNK        -0.5000 
    110 CA        -6.4117  -18.1569  -50.2043 C.3       20 UNK         0.1400 
    111 CB        -7.3883  -17.0967  -49.6554 C.3       20 UNK        -0.1800 
    112 C         -5.5611  -17.6514  -51.3885 C.2       20 UNK         0.5000 
    113 O         -5.9247  -16.6853  -52.0614 O.2       20 UNK        -0.5000 
    114 N         -4.4511  -18.3535  -51.6333 N.am      21 UNK        -0.5000 
    115 CA        -3.5142  -18.1607  -52.7352 C.3       21 UNK         0.1400 
    116 CB        -4.1218  -18.7181  -54.0404 C.3       21 UNK        -0.1800 
    117 C         -2.1869  -18.8469  -52.3605 C.2       21 UNK         0.5000 
    118 O         -1.9903  -19.1912  -51.1941 O.2       21 UNK        -0.5000 
    119 N         -1.3034  -19.0561  -53.3439 N.am      22 UNK        -0.5000 
    120 CA         0.0023  -19.7175  -53.1599 C.3       22 UNK         0.1400 
    121 C         -0.0602  -21.2321  -52.7928 C.2       22 UNK         0.5000 
    122 N         -1.1973  -21.9059  -52.9170 N.am      22 UNK        -0.7600 
    123 O          0.9472  -21.8051  -52.3897 O.2       22 UNK        -0.5000 
    124 C124        0.9513  -19.5101  -54.3691 C.3       23 UNK        -0.0398 
    125 S125        1.1306  -17.7764  -54.9098 S.3       23 UNK        -0.2404 
    126 C126        2.4570  -17.1688  -53.8177 C.3       23 UNK        -0.0205 
    127 H127        5.6347  -10.7967  -50.5187 H         1 UNK         0.0600 
    128 H128        5.8323   -9.7014  -49.1475 H         1 UNK         0.0600 
    129 H129        4.7885   -9.2471  -50.4989 H         1 UNK         0.0600 
    130 H130        4.3152  -12.4861  -50.0418 H         1 UNK         0.3000 
    131 H131        2.7343  -13.8052  -49.4063 H         1 UNK         0.0600 
    132 H132        0.4142  -12.9698  -48.7694 H         1 UNK         0.0800 
    133 H133        1.0097  -11.3436  -48.8174 H         1 UNK         0.0800 
    134 H134       -0.9791  -13.7606  -50.5059 H         1 UNK         0.0800 
    135 H135       -0.7375  -13.6215  -52.2243 H         1 UNK         0.0800 
    136 H136        0.9029  -14.9900  -53.4057 H         1 UNK         0.1150 
    137 H137        2.8533  -18.1662  -51.2968 H         1 UNK         0.1150 
    138 H138        0.4976  -15.2968  -49.1532 H         1 UNK         0.1150 
    139 H139        3.0367  -17.0339  -48.4279 H         1 UNK         0.0800 
    140 H140        1.3626  -17.1533  -47.9691 H         1 UNK         0.0800 
    141 H141        0.4693  -20.1417  -50.1058 H         1 UNK         0.0800 
    142 H142       -0.1906  -18.9110  -49.0667 H         1 UNK         0.0800 
    143 H143        0.8761  -21.4823  -47.8378 H         1 UNK         0.0600 
    144 H144       -0.6191  -19.3005  -46.7734 H         1 UNK         0.3000 
    145 H145       -1.9361  -21.1064  -43.9579 H         1 UNK         0.0600 
    146 H146       -0.7996  -19.4682  -42.6801 H         1 UNK         0.0600 
    147 H147        0.4783  -20.3035  -43.5311 H         1 UNK         0.0600 
    148 H148       -0.0488  -18.7207  -44.0956 H         1 UNK         0.0600 
    149 H149       -2.1881  -18.3993  -45.0111 H         1 UNK         0.3000 
    150 H150       -5.2642  -19.0016  -46.6969 H         1 UNK         0.0600 
    151 H151       -6.0177  -18.7843  -44.3542 H         1 UNK         0.0600 
    152 H152       -6.0670  -17.2190  -45.1508 H         1 UNK         0.0600 
    153 H153       -4.7673  -17.5964  -44.0208 H         1 UNK         0.0600 
    154 H154       -3.6944  -16.6502  -46.0990 H         1 UNK         0.3000 
    155 H155       -1.6076  -16.8577  -48.9781 H         1 UNK         0.0600 
    156 H156       -4.1914  -15.2426  -48.6386 H         1 UNK         0.0600 
    157 H157       -3.6027  -16.0376  -50.0952 H         1 UNK         0.0600 
    158 H158       -2.7716  -14.6296  -49.4734 H         1 UNK         0.0600 
    159 H159       -2.0073  -14.6876  -47.2507 H         1 UNK         0.3000 
    160 H160        0.7490  -15.1174  -45.4999 H         1 UNK         0.0600 
    161 H161       -1.9160  -13.5934  -45.4131 H         1 UNK         0.0600 
    162 H162       -0.5804  -13.2825  -46.5257 H         1 UNK         0.0600 
    163 H163       -0.3751  -13.0036  -44.8102 H         1 UNK         0.0600 
    164 H164        0.3115  -15.6046  -43.4162 H         1 UNK         0.3000 
    165 H165       -1.7651  -15.4786  -41.3205 H         1 UNK         0.0600 
    166 H166       -2.6391  -17.7324  -40.5594 H         1 UNK         0.0600 
    167 H167       -3.7222  -16.9049  -41.6649 H         1 UNK         0.0600 
    168 H168       -2.7363  -18.2368  -42.2461 H         1 UNK         0.0600 
    169 H169        0.0170  -17.6446  -42.3343 H         1 UNK         0.3000 
    170 H170        2.5650  -16.6105  -40.1416 H         1 UNK         0.0600 
    171 H171        1.4177  -18.3754  -38.7773 H         1 UNK         0.0600 
    172 H172        1.1981  -19.3509  -40.2251 H         1 UNK         0.0600 
    173 H173        2.8202  -19.0091  -39.6209 H         1 UNK         0.0600 
    174 H174        2.8622  -18.5765  -41.9983 H         1 UNK         0.3000 
    175 H175        4.2557  -18.0740  -43.7147 H         1 UNK         0.0600 
    176 H176        1.9564  -17.2806  -45.5750 H         1 UNK         0.0600 
    177 H177        3.3151  -18.3060  -46.0236 H         1 UNK         0.0600 
    178 H178        2.1809  -18.8503  -44.8059 H         1 UNK         0.0600 
    179 H179        3.8281  -15.6585  -45.3769 H         1 UNK         0.3000 
    180 H180        6.6864  -14.0057  -44.1448 H         1 UNK         0.0600 
    181 H181        7.4016  -13.9351  -46.5246 H         1 UNK         0.0600 
    182 H182        6.3816  -15.3251  -46.8988 H         1 UNK         0.0600 
    183 H183        7.7661  -15.5057  -45.8278 H         1 UNK         0.0600 
    184 H184        4.8184  -13.5320  -46.2987 H         1 UNK         0.3000 
    185 H185        2.0928  -12.6786  -44.7572 H         1 UNK         0.0600 
    186 H186        2.9058  -10.6823  -43.5035 H         1 UNK         0.0600 
    187 H187        3.8304  -10.1600  -44.9077 H         1 UNK         0.0600 
    188 H188        2.0686  -10.2011  -44.9681 H         1 UNK         0.0600 
    189 H189        3.0705  -11.2330  -47.0013 H         1 UNK         0.3000 
    190 H190       -2.5235  -20.4625  -48.5069 H         1 UNK         0.3000 
    191 H191       -3.0676  -22.5728  -50.3092 H         1 UNK         0.0600 
    192 H192       -4.4384  -20.5436  -50.1268 H         1 UNK         0.0600 
    193 H193       -5.4227  -21.9757  -49.9211 H         1 UNK         0.0600 
    194 H194       -4.9845  -21.0057  -48.5121 H         1 UNK         0.0600 
    195 H195       -3.2745  -22.4851  -46.7360 H         1 UNK         0.3000 
    196 H196       -4.5516  -25.0406  -46.4459 H         1 UNK         0.0600 
    197 H197       -3.7952  -24.8364  -44.0706 H         1 UNK         0.0600 
    198 H198       -4.5917  -23.3753  -44.6307 H         1 UNK         0.0600 
    199 H199       -2.8351  -23.4237  -44.4913 H         1 UNK         0.0600 
    200 H200       -1.1057  -23.9945  -46.4333 H         1 UNK         0.3000 
    201 H201        0.0471  -26.5515  -46.0033 H         1 UNK         0.0600 
    202 H202        1.2882  -24.4297  -45.6936 H         1 UNK         0.0600 
    203 H203        1.1845  -24.0808  -47.4174 H         1 UNK         0.0600 
    204 H204        2.1268  -25.4541  -46.8495 H         1 UNK         0.0600 
    205 H205       -0.8795  -24.8678  -49.0144 H         1 UNK         0.3000 
    206 H206       -0.0186  -26.9424  -50.8185 H         1 UNK         0.0600 
    207 H207       -0.3070  -24.5573  -51.4846 H         1 UNK         0.0600 
    208 H208       -1.3167  -25.6038  -52.4722 H         1 UNK         0.0600 
    209 H209       -2.0403  -24.6642  -51.1721 H         1 UNK         0.0600 
    210 H210       -2.6596  -26.7973  -48.6653 H         1 UNK         0.3000 
    211 H211       -4.5197  -27.8887  -48.2708 H         1 UNK         0.0600 
    212 H212       -3.5577  -30.0516  -50.2151 H         1 UNK         0.0600 
    213 H213       -4.7612  -30.2376  -48.9480 H         1 UNK         0.0600 
    214 H214       -3.0865  -29.9311  -48.5200 H         1 UNK         0.0600 
    215 H215       -4.5323  -25.8704  -50.2688 H         1 UNK         0.3000 
    216 H216       -6.6199  -26.6705  -52.2430 H         1 UNK         0.0600 
    217 H217       -4.6287  -25.4695  -53.1169 H         1 UNK         0.0600 
    218 H218       -4.8971  -24.1413  -51.9921 H         1 UNK         0.0600 
    219 H219       -6.0623  -24.4658  -53.2723 H         1 UNK         0.0600 
    220 H220       -5.9473  -24.4941  -49.5244 H         1 UNK         0.3000 
    221 H221       -7.1066  -23.1298  -48.2286 H         1 UNK         0.0600 
    222 H222       -9.5370  -24.8812  -48.8574 H         1 UNK         0.0600 
    223 H223       -8.2988  -25.2533  -47.6588 H         1 UNK         0.0600 
    224 H224       -9.3280  -23.8472  -47.4511 H         1 UNK         0.0600 
    225 H225       -7.1373  -22.5802  -51.2331 H         1 UNK         0.3000 
    226 H226       -9.5552  -21.0699  -51.7470 H         1 UNK         0.0600 
    227 H227       -8.3945  -22.4434  -53.4773 H         1 UNK         0.0600 
    228 H228       -8.4833  -20.7614  -53.9704 H         1 UNK         0.0600 
    229 H229       -6.9677  -21.4124  -53.3589 H         1 UNK         0.0600 
    230 H230       -6.7826  -20.2307  -50.0687 H         1 UNK         0.3000 
    231 H231       -5.7256  -18.4012  -49.3939 H         1 UNK         0.0600 
    232 H232       -6.8459  -16.2127  -49.3181 H         1 UNK         0.0600 
    233 H233       -7.9460  -17.4814  -48.8016 H         1 UNK         0.0600 
    234 H234       -8.1081  -16.7684  -50.4053 H         1 UNK         0.0600 
    235 H235       -4.1354  -19.0445  -50.9629 H         1 UNK         0.3000 
    236 H236       -3.3136  -17.0937  -52.8494 H         1 UNK         0.0600 
    237 H237       -5.0840  -18.2554  -54.2603 H         1 UNK         0.0600 
    238 H238       -3.4778  -18.5236  -54.8983 H         1 UNK         0.0600 
    239 H239       -4.2805  -19.7955  -53.9796 H         1 UNK         0.0600 
    240 H240       -1.5145  -18.7444  -54.2801 H         1 UNK         0.3000 
    241 H241        0.4701  -19.2327  -52.3031 H         1 UNK         0.0600 
    242 H242       -1.2136  -22.8827  -52.6772 H         1 UNK         0.3800 
    243 H243       -2.0293  -21.4513  -53.2537 H         1 UNK         0.3800 
    244 H244        1.9431  -19.9101  -54.1508 H         1 UNK         0.0800 
    245 H245        0.5856  -20.0778  -55.2264 H         1 UNK         0.0800 
    246 H246        3.2046  -17.9476  -53.6607 H         1 UNK         0.0800 
    247 H247        2.9740  -16.3506  -54.3211 H         1 UNK         0.0800 
@<TRIPOS>BOND
     1    1    2 1    
     2    1  127 1    
     3    1  128 1    
     4    1  129 1    
     5    2    3 2    
     6    2    4 am   BACKBONE|DICT|INTERRES
     7    4    5 1    
     8    4  130 1    
     9    5    6 1    
    10    5   65 1    
    11    5  131 1    
    12    6    7 1    
    13    6  132 1    
    14    6  133 1    
    15    7    8 1    
    16    8    9 1    
    17    8  134 1    
    18    8  135 1    
    19    9   10 ar   
    20    9   14 ar   
    21   10   11 ar   
    22   10  136 1    
    23   11   12 ar   
    24   11  126 1    
    25   12   13 ar   
    26   12  137 1    
    27   13   14 ar   
    28   13   15 1    
    29   14  138 1    
    30   15   16 1    
    31   15  139 1    
    32   15  140 1    
    33   16   17 1    
    34   17   18 1    
    35   17  141 1    
    36   17  142 1    
    37   18   19 1    
    38   18   67 1    
    39   18  143 1    
    40   19   20 am   BACKBONE|DICT|INTERRES
    41   19  144 1    
    42   20   21 2    
    43   20   22 1    
    44   22   23 1    
    45   22   24 1    
    46   22  145 1    
    47   23  146 1    
    48   23  147 1    
    49   23  148 1    
    50   24   25 am   BACKBONE|DICT|INTERRES
    51   24  149 1    
    52   25   26 2    
    53   25   27 1    
    54   27   28 1    
    55   27   29 1    
    56   27  150 1    
    57   28  151 1    
    58   28  152 1    
    59   28  153 1    
    60   29   30 am   BACKBONE|DICT|INTERRES
    61   29  154 1    
    62   30   31 2    
    63   30   32 1    
    64   32   33 1    
    65   32   34 1    
    66   32  155 1    
    67   33  156 1    
    68   33  157 1    
    69   33  158 1    
    70   34   35 am   BACKBONE|DICT|INTERRES
    71   34  159 1    
    72   35   36 2    
    73   35   37 1    
    74   37   38 1    
    75   37   39 1    
    76   37  160 1    
    77   38  161 1    
    78   38  162 1    
    79   38  163 1    
    80   39   40 am   BACKBONE|DICT|INTERRES
    81   39  164 1    
    82   40   41 2    
    83   40   42 1    
    84   42   43 1    
    85   42   44 1    
    86   42  165 1    
    87   43  166 1    
    88   43  167 1    
    89   43  168 1    
    90   44   45 am   BACKBONE|DICT|INTERRES
    91   44  169 1    
    92   45   46 2    
    93   45   47 1    
    94   47   48 1    
    95   47   49 1    
    96   47  170 1    
    97   48  171 1    
    98   48  172 1    
    99   48  173 1    
   100   49   50 am   BACKBONE|DICT|INTERRES
   101   49  174 1    
   102   50   51 2    
   103   50   52 1    
   104   52   53 1    
   105   52   54 1    
   106   52  175 1    
   107   53  176 1    
   108   53  177 1    
   109   53  178 1    
   110   54   55 am   BACKBONE|DICT|INTERRES
   111   54  179 1    
   112   55   56 2    
   113   55   57 1    
   114   57   58 1    
   115   57   59 1    
   116   57  180 1    
   117   58  181 1    
   118   58  182 1    
   119   58  183 1    
   120   59   60 am   BACKBONE|DICT|INTERRES
   121   59  184 1    
   122   60   61 2    
   123   60   62 1    
   124   62   63 1    
   125   62   64 1    
   126   62  185 1    
   127   63  186 1    
   128   63  187 1    
   129   63  188 1    
   130   64   65 am   BACKBONE|DICT|INTERRES
   131   64  189 1    
   132   65   66 2    
   133   67   68 2    
   134   67   69 am   BACKBONE|DICT|INTERRES
   135   69   70 1    
   136   69  190 1    
   137   70   71 1    
   138   70   72 1    
   139   70  191 1    
   140   71  192 1    
   141   71  193 1    
   142   71  194 1    
   143   72   73 2    
   144   72   74 am   BACKBONE|DICT|INTERRES
   145   74   75 1    
   146   74  195 1    
   147   75   76 1    
   148   75   77 1    
   149   75  196 1    
   150   76  197 1    
   151   76  198 1    
   152   76  199 1    
   153   77   78 2    
   154   77   79 am   BACKBONE|DICT|INTERRES
   155   79   80 1    
   156   79  200 1    
   157   80   81 1    
   158   80   82 1    
   159   80  201 1    
   160   81  202 1    
   161   81  203 1    
   162   81  204 1    
   163   82   83 2    
   164   82   84 am   BACKBONE|DICT|INTERRES
   165   84   85 1    
   166   84  205 1    
   167   85   86 1    
   168   85   87 1    
   169   85  206 1    
   170   86  207 1    
   171   86  208 1    
   172   86  209 1    
   173   87   88 2    
   174   87   89 am   BACKBONE|DICT|INTERRES
   175   89   90 1    
   176   89  210 1    
   177   90   91 1    
   178   90   92 1    
   179   90  211 1    
   180   91  212 1    
   181   91  213 1    
   182   91  214 1    
   183   92   93 2    
   184   92   94 am   BACKBONE|DICT|INTERRES
   185   94   95 1    
   186   94  215 1    
   187   95   96 1    
   188   95   97 1    
   189   95  216 1    
   190   96  217 1    
   191   96  218 1    
   192   96  219 1    
   193   97   98 2    
   194   97   99 am   BACKBONE|DICT|INTERRES
   195   99  100 1    
   196   99  220 1    
   197  100  101 1    
   198  100  102 1    
   199  100  221 1    
   200  101  222 1    
   201  101  223 1    
   202  101  224 1    
   203  102  103 2    
   204  102  104 am   BACKBONE|DICT|INTERRES
   205  104  105 1    
   206  104  225 1    
   207  105  106 1    
   208  105  107 1    
   209  105  226 1    
   210  106  227 1    
   211  106  228 1    
   212  106  229 1    
   213  107  108 2    
   214  107  109 am   BACKBONE|DICT|INTERRES
   215  109  110 1    
   216  109  230 1    
   217  110  111 1    
   218  110  112 1    
   219  110  231 1    
   220  111  232 1    
   221  111  233 1    
   222  111  234 1    
   223  112  113 2    
   224  112  114 am   BACKBONE|DICT|INTERRES
   225  114  115 1    
   226  114  235 1    
   227  115  116 1    
   228  115  117 1    
   229  115  236 1    
   230  116  237 1    
   231  116  238 1    
   232  116  239 1    
   233  117  118 2    
   234  117  119 am   BACKBONE|DICT|INTERRES
   235  119  120 1    
   236  119  240 1    
   237  120  121 1    
   238  120  124 1    
   239  120  241 1    
   240  121  122 am   BACKBONE|DICT|INTERRES
   241  121  123 2    
   242  122  242 1    
   243  122  243 1    
   244  124  125 1    
   245  124  244 1    
   246  124  245 1    
   247  125  126 1    
   248  126  246 1    
   249  126  247 1    
@<TRIPOS>SUBSTRUCTURE
     1 UNK         1 GROUP             0       ****    0 ROOT    
