@<TRIPOS>MOLECULE
3R540
247   249    1
SMALL
USER_CHARGES


@<TRIPOS>ATOM
      1 CA         -1.9873  -11.9472  -49.7859 C.3       0 UNK        -0.1800 
      2 C          -1.8375  -12.7515  -48.5036 C.2       0 UNK         0.5000 
      3 O          -1.2113  -12.2794  -47.5542 O.2       0 UNK        -0.5000 
      4 N          -2.4241  -13.9560  -48.4611 N.am      1 UNK        -0.5000 
      5 CA         -2.3483  -14.8982  -47.3352 C.3       1 UNK         0.1400 
      6 C6         -3.0088  -16.2610  -47.6643 C.3       23 UNK        -0.0398 
      7 S7         -2.1610  -17.1244  -49.0329 S.3       23 UNK        -0.2404 
      8 C8         -2.0638  -18.8276  -48.3885 C.3       23 UNK        -0.0205 
      9 C9         -1.1591  -19.7203  -49.2269 C.ar      23 UNK        -0.0193 
     10 C10        -1.6673  -20.8626  -49.8546 C.ar      23 UNK        -0.1150 
     11 C11        -0.8187  -21.7203  -50.5626 C.ar      23 UNK        -0.0193 
     12 C12         0.5392  -21.4113  -50.6711 C.ar      23 UNK        -0.1150 
     13 C13         1.0602  -20.2765  -50.0453 C.ar      23 UNK        -0.0193 
     14 C14         0.2068  -19.4392  -49.3207 C.ar      23 UNK        -0.1150 
     15 C15         2.5468  -19.9632  -50.1419 C.3       23 UNK        -0.0205 
     16 S16         3.5824  -21.1735  -49.2507 S.3       23 UNK        -0.2404 
     17 C17         3.0270  -20.9521  -47.5257 C.3       23 UNK        -0.0398 
     18 CA          2.7327  -22.2783  -46.7809 C.3       11 UNK         0.1400 
     19 N           2.6157  -22.0461  -45.3381 N.am      11 UNK        -0.5000 
     20 C           2.7003  -22.9878  -44.3887 C.2       10 UNK         0.5000 
     21 O           2.9525  -24.1705  -44.6195 O.2       10 UNK        -0.5000 
     22 CA          2.4506  -22.5311  -42.9363 C.3       10 UNK         0.1400 
     23 CB          3.7577  -22.0514  -42.2875 C.3       10 UNK        -0.1800 
     24 N           1.4504  -21.4662  -42.8418 N.am      10 UNK        -0.5000 
     25 C           0.1419  -21.6292  -43.0868 C.2       9 UNK         0.5000 
     26 O          -0.3794  -22.7194  -43.3192 O.2       9 UNK        -0.5000 
     27 CA         -0.7193  -20.3512  -43.1295 C.3       9 UNK         0.1400 
     28 CB         -1.2158  -19.9823  -41.7247 C.3       9 UNK        -0.1800 
     29 N          -0.0091  -19.2124  -43.7186 N.am      9 UNK        -0.5000 
     30 C           0.4342  -19.1725  -44.9818 C.2       8 UNK         0.5000 
     31 O           0.2348  -20.0718  -45.7926 O.2       8 UNK        -0.5000 
     32 CA          1.2923  -17.9727  -45.4055 C.3       8 UNK         0.1400 
     33 CB          0.4362  -16.8466  -45.9813 C.3       8 UNK        -0.1800 
     34 N           2.1036  -17.4590  -44.3083 N.am      8 UNK        -0.5000 
     35 C           3.2687  -17.9954  -43.9266 C.2       7 UNK         0.5000 
     36 O           3.7932  -18.9595  -44.4851 O.2       7 UNK        -0.5000 
     37 CA          3.9374  -17.3658  -42.6913 C.3       7 UNK         0.1400 
     38 CB          4.7631  -16.1346  -43.0935 C.3       7 UNK        -0.1800 
     39 N           2.9676  -16.9825  -41.6637 N.am      7 UNK        -0.5000 
     40 C           2.2222  -17.8544  -40.9702 C.2       6 UNK         0.5000 
     41 O           2.2928  -19.0760  -41.1104 O.2       6 UNK        -0.5000 
     42 CA          1.1957  -17.2638  -39.9842 C.3       6 UNK         0.1400 
     43 CB          1.8411  -17.0466  -38.6076 C.3       6 UNK        -0.1800 
     44 N           0.5701  -16.0123  -40.4242 N.am      6 UNK        -0.5000 
     45 C          -0.0955  -15.8248  -41.5731 C.2       5 UNK         0.5000 
     46 O          -0.1862  -16.6822  -42.4515 O.2       5 UNK        -0.5000 
     47 CA         -0.7842  -14.4621  -41.7893 C.3       5 UNK         0.1400 
     48 CB         -0.7031  -13.5059  -40.5782 C.3       5 UNK        -0.1800 
     49 N          -0.3134  -13.7855  -42.9983 N.am      5 UNK        -0.5000 
     50 C           0.9416  -13.4120  -43.2876 C.2       4 UNK         0.5000 
     51 O           1.9202  -13.6903  -42.5925 O.2       4 UNK        -0.5000 
     52 CA          1.1379  -12.5531  -44.5536 C.3       4 UNK         0.1400 
     53 CB          1.5488  -13.4140  -45.7533 C.3       4 UNK        -0.1800 
     54 N          -0.0445  -11.7717  -44.9222 N.am      4 UNK        -0.5000 
     55 C          -0.5078  -10.7141  -44.2419 C.2       3 UNK         0.5000 
     56 O           0.0290  -10.2580  -43.2318 O.2       3 UNK        -0.5000 
     57 CA         -1.7956  -10.0668  -44.7767 C.3       3 UNK         0.1400 
     58 CB         -1.4884   -9.1279  -45.9541 C.3       3 UNK        -0.1800 
     59 N          -2.7655  -11.0771  -45.1997 N.am      3 UNK        -0.5000 
     60 C          -3.6274  -11.6883  -44.3749 C.2       2 UNK         0.5000 
     61 O          -3.7160  -11.4386  -43.1725 O.2       2 UNK        -0.5000 
     62 CA         -4.5479  -12.7615  -44.9905 C.3       2 UNK         0.1400 
     63 CB         -5.8754  -12.1347  -45.4431 C.3       2 UNK        -0.1800 
     64 N          -3.9429  -13.4663  -46.1222 N.am      2 UNK        -0.5000 
     65 C          -2.9131  -14.3182  -46.0202 C.2       1 UNK         0.5000 
     66 O          -2.3825  -14.6152  -44.9505 O.2       1 UNK        -0.5000 
     67 C           1.4960  -23.0198  -47.3431 C.2       11 UNK         0.5000 
     68 O           1.6446  -23.8708  -48.2217 O.2       11 UNK        -0.5000 
     69 N           0.3074  -22.7269  -46.7957 N.am      12 UNK        -0.5000 
     70 CA         -1.0050  -23.2631  -47.1694 C.3       12 UNK         0.1400 
     71 CB         -2.1013  -22.3577  -46.5791 C.3       12 UNK        -0.1800 
     72 C          -1.2355  -24.7535  -46.8298 C.2       12 UNK         0.5000 
     73 O          -2.3374  -25.1313  -46.4280 O.2       12 UNK        -0.5000 
     74 N          -0.2215  -25.5992  -47.0472 N.am      13 UNK        -0.5000 
     75 CA         -0.2859  -27.0567  -46.9088 C.3       13 UNK         0.1400 
     76 CB          1.1349  -27.6302  -47.0132 C.3       13 UNK        -0.1800 
     77 C          -1.2179  -27.7143  -47.9476 C.2       13 UNK         0.5000 
     78 O          -1.7917  -28.7682  -47.6730 O.2       13 UNK        -0.5000 
     79 N          -1.3777  -27.0568  -49.1045 N.am      14 UNK        -0.5000 
     80 CA         -2.3104  -27.4221  -50.1724 C.3       14 UNK         0.1400 
     81 CB         -1.7054  -26.9846  -51.5177 C.3       14 UNK        -0.1800 
     82 C          -3.7196  -26.8180  -49.9760 C.2       14 UNK         0.5000 
     83 O          -4.5536  -26.9536  -50.8722 O.2       14 UNK        -0.5000 
     84 N          -3.9621  -26.1597  -48.8306 N.am      15 UNK        -0.5000 
     85 CA         -5.1700  -25.4138  -48.4711 C.3       15 UNK         0.1400 
     86 CB         -6.4008  -26.3440  -48.3687 C.3       15 UNK        -0.1800 
     87 C          -5.3549  -24.1887  -49.3893 C.2       15 UNK         0.5000 
     88 O          -4.4332  -23.3762  -49.4785 O.2       15 UNK        -0.5000 
     89 N          -6.5337  -24.0493  -50.0146 N.am      16 UNK        -0.5000 
     90 CA         -6.9758  -23.0064  -50.9574 C.3       16 UNK         0.1400 
     91 CB         -6.0927  -22.9863  -52.2184 C.3       16 UNK        -0.1800 
     92 C          -7.1036  -21.5853  -50.3690 C.2       16 UNK         0.5000 
     93 O          -8.0130  -20.8555  -50.7645 O.2       16 UNK        -0.5000 
     94 N          -6.2049  -21.2241  -49.4441 N.am      17 UNK        -0.5000 
     95 CA         -6.0944  -19.9446  -48.7372 C.3       17 UNK         0.1400 
     96 CB         -7.3388  -19.6848  -47.8625 C.3       17 UNK        -0.1800 
     97 C          -5.7483  -18.7554  -49.6601 C.2       17 UNK         0.5000 
     98 O          -6.0641  -17.6120  -49.3262 O.2       17 UNK        -0.5000 
     99 N          -5.0866  -19.0360  -50.7898 N.am      18 UNK        -0.5000 
    100 CA        -4.6441  -18.0467  -51.7619 C.3       18 UNK         0.1400 
    101 CB        -5.7810  -17.7288  -52.7502 C.3       18 UNK        -0.1800 
    102 C         -3.4105  -18.5883  -52.4898 C.2       18 UNK         0.5000 
    103 O         -3.5264  -19.5518  -53.2487 O.2       18 UNK        -0.5000 
    104 N         -2.2583  -17.9390  -52.2834 N.am      19 UNK        -0.5000 
    105 CA        -0.9802  -18.2705  -52.9205 C.3       19 UNK         0.1400 
    106 CB         0.1158  -17.3531  -52.3577 C.3       19 UNK        -0.1800 
    107 C         -1.0236  -18.1663  -54.4576 C.2       19 UNK         0.5000 
    108 O         -0.3355  -18.9239  -55.1407 O.2       19 UNK        -0.5000 
    109 N         -1.8661  -17.2588  -54.9714 N.am      20 UNK        -0.5000 
    110 CA        -2.1402  -17.0736  -56.3963 C.3       20 UNK         0.1400 
    111 CB        -2.9540  -15.7839  -56.5831 C.3       20 UNK        -0.1800 
    112 C         -2.8691  -18.2686  -57.0431 C.2       20 UNK         0.5000 
    113 O         -2.7006  -18.4926  -58.2424 O.2       20 UNK        -0.5000 
    114 N         -3.6530  -19.0157  -56.2511 N.am      21 UNK        -0.5000 
    115 CA        -4.2989  -20.2556  -56.6814 C.3       21 UNK         0.1400 
    116 CB        -5.5471  -20.5186  -55.8229 C.3       21 UNK        -0.1800 
    117 C         -3.3208  -21.4406  -56.6079 C.2       21 UNK         0.5000 
    118 O         -3.3299  -22.2908  -57.4992 O.2       21 UNK        -0.5000 
    119 N         -2.4948  -21.4675  -55.5544 N.am      22 UNK        -0.5000 
    120 CA        -1.4600  -22.4875  -55.3255 C.3       22 UNK         0.1400 
    121 C         -0.2729  -22.4142  -56.3254 C.2       22 UNK         0.5000 
    122 N          0.1966  -21.2300  -56.6956 N.am      22 UNK        -0.7600 
    123 O          0.2243  -23.4438  -56.7730 O.2       22 UNK        -0.5000 
    124 C124       -0.9431  -22.4625  -53.8677 C.3       23 UNK        -0.0398 
    125 S125       -2.2849  -22.7679  -52.6755 S.3       23 UNK        -0.2404 
    126 C126       -1.3517  -23.0211  -51.1424 C.3       23 UNK        -0.0205 
    127 H127       -1.0062  -11.7395  -50.2127 H         1 UNK         0.0600 
    128 H128       -2.4772  -10.9965  -49.5760 H         1 UNK         0.0600 
    129 H129       -2.5783  -12.4790  -50.5318 H         1 UNK         0.0600 
    130 H130       -2.9183  -14.2925  -49.2749 H         1 UNK         0.3000 
    131 H131       -1.2869  -15.0718  -47.1587 H         1 UNK         0.0600 
    132 H132       -3.0013  -16.9066  -46.7840 H         1 UNK         0.0800 
    133 H133       -4.0579  -16.1278  -47.9339 H         1 UNK         0.0800 
    134 H134       -1.6920  -18.8259  -47.3648 H         1 UNK         0.0800 
    135 H135       -3.0691  -19.2419  -48.3409 H         1 UNK         0.0800 
    136 H136       -2.7152  -21.1114  -49.7639 H         1 UNK         0.1150 
    137 H137        1.2019  -22.0734  -51.2103 H         1 UNK         0.1150 
    138 H138        0.6036  -18.5667  -48.8215 H         1 UNK         0.1150 
    139 H139        2.8388  -19.9556  -51.1929 H         1 UNK         0.0800 
    140 H140        2.7579  -18.9631  -49.7600 H         1 UNK         0.0800 
    141 H141        2.1564  -20.3003  -47.4983 H         1 UNK         0.0800 
    142 H142        3.8183  -20.4084  -47.0073 H         1 UNK         0.0800 
    143 H143        3.5924  -22.9356  -46.9290 H         1 UNK         0.0600 
    144 H144        2.4087  -21.0999  -45.0521 H         1 UNK         0.3000 
    145 H145        2.0864  -23.3933  -42.3737 H         1 UNK         0.0600 
    146 H146        3.6040  -21.7882  -41.2407 H         1 UNK         0.0600 
    147 H147        4.5196  -22.8311  -42.3193 H         1 UNK         0.0600 
    148 H148        4.1616  -21.1748  -42.7955 H         1 UNK         0.0600 
    149 H149        1.7852  -20.5449  -42.5827 H         1 UNK         0.3000 
    150 H150       -1.5902  -20.5551  -43.7558 H         1 UNK         0.0600 
    151 H151       -1.8509  -20.7708  -41.3194 H         1 UNK         0.0600 
    152 H152       -1.8030  -19.0638  -41.7382 H         1 UNK         0.0600 
    153 H153       -0.3872  -19.8446  -41.0314 H         1 UNK         0.0600 
    154 H154        0.1166  -18.3903  -43.1337 H         1 UNK         0.3000 
    155 H155        1.9538  -18.3134  -46.2042 H         1 UNK         0.0600 
    156 H156        1.0680  -16.1219  -46.4900 H         1 UNK         0.0600 
    157 H157       -0.1420  -16.3333  -45.2121 H         1 UNK         0.0600 
    158 H158       -0.2590  -17.2269  -46.7248 H         1 UNK         0.0600 
    159 H159        1.6951  -16.7252  -43.7449 H         1 UNK         0.3000 
    160 H160        4.6134  -18.1087  -42.2628 H         1 UNK         0.0600 
    161 H161        4.1346  -15.3449  -43.5075 H         1 UNK         0.0600 
    162 H162        5.5069  -16.3929  -43.8484 H         1 UNK         0.0600 
    163 H163        5.2984  -15.7225  -42.2380 H         1 UNK         0.0600 
    164 H164        2.8227  -15.9931  -41.5139 H         1 UNK         0.3000 
    165 H165        0.3965  -17.9966  -39.8667 H         1 UNK         0.0600 
    166 H166        1.1022  -16.7346  -37.8693 H         1 UNK         0.0600 
    167 H167        2.2966  -17.9671  -38.2396 H         1 UNK         0.0600 
    168 H168        2.6219  -16.2859  -38.6449 H         1 UNK         0.0600 
    169 H169        0.6129  -15.2415  -39.7738 H         1 UNK         0.3000 
    170 H170       -1.8382  -14.6853  -41.9608 H         1 UNK         0.0600 
    171 H171       -1.1420  -13.9561  -39.6869 H         1 UNK         0.0600 
    172 H172        0.3237  -13.2232  -40.3429 H         1 UNK         0.0600 
    173 H173       -1.2571  -12.5876  -40.7753 H         1 UNK         0.0600 
    174 H174       -1.0289  -13.6184  -43.6963 H         1 UNK         0.3000 
    175 H175        1.9541  -11.8591  -44.3426 H         1 UNK         0.0600 
    176 H176        0.6960  -13.9688  -46.1401 H         1 UNK         0.0600 
    177 H177        1.9308  -12.7946  -46.5649 H         1 UNK         0.0600 
    178 H178        2.3309  -14.1273  -45.4890 H         1 UNK         0.0600 
    179 H179       -0.5209  -12.0435  -45.7780 H         1 UNK         0.3000 
    180 H180       -2.2283   -9.4648  -43.9746 H         1 UNK         0.0600 
    181 H181       -2.3921   -8.6309  -46.3068 H         1 UNK         0.0600 
    182 H182       -1.0494   -9.6620  -46.7974 H         1 UNK         0.0600 
    183 H183       -0.7843   -8.3496  -45.6572 H         1 UNK         0.0600 
    184 H184       -2.7079  -11.3828  -46.1619 H         1 UNK         0.3000 
    185 H185       -4.7659  -13.4946  -44.2108 H         1 UNK         0.0600 
    186 H186       -5.7255  -11.4044  -46.2393 H         1 UNK         0.0600 
    187 H187       -6.5662  -12.8946  -45.8089 H         1 UNK         0.0600 
    188 H188       -6.3672  -11.6217  -44.6155 H         1 UNK         0.0600 
    189 H189       -4.3121  -13.2616  -47.0393 H         1 UNK         0.3000 
    190 H190        0.2856  -21.9641  -46.1261 H         1 UNK         0.3000 
    191 H191       -1.0781  -23.1961  -48.2527 H         1 UNK         0.0600 
    192 H192       -3.0877  -22.6404  -46.9491 H         1 UNK         0.0600 
    193 H193       -1.9452  -21.3157  -46.8526 H         1 UNK         0.0600 
    194 H194       -2.1249  -22.4171  -45.4909 H         1 UNK         0.0600 
    195 H195        0.6396  -25.2053  -47.4184 H         1 UNK         0.3000 
    196 H196       -0.6793  -27.2864  -45.9165 H         1 UNK         0.0600 
    197 H197        1.5867  -27.4117  -47.9817 H         1 UNK         0.0600 
    198 H198        1.7837  -27.2173  -46.2402 H         1 UNK         0.0600 
    199 H199        1.1295  -28.7139  -46.8887 H         1 UNK         0.0600 
    200 H200       -0.8553  -26.2034  -49.2374 H         1 UNK         0.3000 
    201 H201       -2.4255  -28.5077  -50.1928 H         1 UNK         0.0600 
    202 H202       -1.6273  -25.9003  -51.5904 H         1 UNK         0.0600 
    203 H203       -2.3197  -27.3231  -52.3530 H         1 UNK         0.0600 
    204 H204       -0.7097  -27.4050  -51.6600 H         1 UNK         0.0600 
    205 H205       -3.2096  -26.0824  -48.1579 H         1 UNK         0.3000 
    206 H206       -4.9866  -25.0110  -47.4739 H         1 UNK         0.0600 
    207 H207       -6.2013  -27.1761  -47.6932 H         1 UNK         0.0600 
    208 H208       -7.2639  -25.8110  -47.9681 H         1 UNK         0.0600 
    209 H209       -6.6877  -26.7657  -49.3323 H         1 UNK         0.0600 
    210 H210       -7.2230  -24.7661  -49.8365 H         1 UNK         0.3000 
    211 H211       -7.9789  -23.3032  -51.2676 H         1 UNK         0.0600 
    212 H212       -6.5095  -22.3224  -52.9768 H         1 UNK         0.0600 
    213 H213       -6.0081  -23.9784  -52.6619 H         1 UNK         0.0600 
    214 H214       -5.0877  -22.6303  -51.9967 H         1 UNK         0.0600 
    215 H215       -5.4721  -21.9043  -49.2516 H         1 UNK         0.3000 
    216 H216       -5.2473  -20.0563  -48.0603 H         1 UNK         0.0600 
    217 H217       -7.1854  -18.8248  -47.2096 H         1 UNK         0.0600 
    218 H218       -8.2238  -19.4812  -48.4657 H         1 UNK         0.0600 
    219 H219       -7.5571  -20.5401  -47.2230 H         1 UNK         0.0600 
    220 H220       -4.8457  -19.9944  -51.0027 H         1 UNK         0.3000 
    221 H221       -4.3662  -17.1253  -51.2455 H         1 UNK         0.0600 
    222 H222       -6.6310  -17.2753  -52.2402 H         1 UNK         0.0600 
    223 H223       -6.1377  -18.6274  -53.2554 H         1 UNK         0.0600 
    224 H224       -5.4499  -17.0279  -53.5174 H         1 UNK         0.0600 
    225 H225       -2.2342  -17.1939  -51.6015 H         1 UNK         0.3000 
    226 H226       -0.7372  -19.3017  -52.6576 H         1 UNK         0.0600 
    227 H227       -0.0657  -16.3073  -52.6087 H         1 UNK         0.0600 
    228 H228        0.1790  -17.4275  -51.2729 H         1 UNK         0.0600 
    229 H229        1.0934  -17.6242  -52.7582 H         1 UNK         0.0600 
    230 H230       -2.3846  -16.6764  -54.3310 H         1 UNK         0.3000 
    231 H231       -1.1842  -16.9538  -56.9104 H         1 UNK         0.0600 
    232 H232       -3.9155  -15.8369  -56.0707 H         1 UNK         0.0600 
    233 H233       -3.1547  -15.5983  -57.6392 H         1 UNK         0.0600 
    234 H234       -2.4149  -14.9176  -56.1994 H         1 UNK         0.0600 
    235 H235       -3.7005  -18.8058  -55.2624 H         1 UNK         0.3000 
    236 H236       -4.6252  -20.1486  -57.7182 H         1 UNK         0.0600 
    237 H237       -6.0848  -21.3967  -56.1822 H         1 UNK         0.0600 
    238 H238       -5.2950  -20.6998  -54.7780 H         1 UNK         0.0600 
    239 H239       -6.2375  -19.6760  -55.8603 H         1 UNK         0.0600 
    240 H240       -2.5978  -20.7626  -54.8351 H         1 UNK         0.3000 
    241 H241       -1.9326  -23.4594  -55.4826 H         1 UNK         0.0600 
    242 H242        0.9619  -21.1821  -57.3486 H         1 UNK         0.3800 
    243 H243       -0.1387  -20.3773  -56.2520 H         1 UNK         0.3800 
    244 H244       -0.4764  -21.5035  -53.6389 H         1 UNK         0.0800 
    245 H245       -0.1764  -23.2257  -53.7224 H         1 UNK         0.0800 
    246 H246       -0.5385  -23.7267  -51.3176 H         1 UNK         0.0800 
    247 H247       -2.0097  -23.4971  -50.4160 H         1 UNK         0.0800 
@<TRIPOS>BOND
     1    1    2 1    
     2    1  127 1    
     3    1  128 1    
     4    1  129 1    
     5    2    3 2    
     6    2    4 am   BACKBONE|DICT|INTERRES
     7    4    5 1    
     8    4  130 1    
     9    5    6 1    
    10    5   65 1    
    11    5  131 1    
    12    6    7 1    
    13    6  132 1    
    14    6  133 1    
    15    7    8 1    
    16    8    9 1    
    17    8  134 1    
    18    8  135 1    
    19    9   10 ar   
    20    9   14 ar   
    21   10   11 ar   
    22   10  136 1    
    23   11   12 ar   
    24   11  126 1    
    25   12   13 ar   
    26   12  137 1    
    27   13   14 ar   
    28   13   15 1    
    29   14  138 1    
    30   15   16 1    
    31   15  139 1    
    32   15  140 1    
    33   16   17 1    
    34   17   18 1    
    35   17  141 1    
    36   17  142 1    
    37   18   19 1    
    38   18   67 1    
    39   18  143 1    
    40   19   20 am   BACKBONE|DICT|INTERRES
    41   19  144 1    
    42   20   21 2    
    43   20   22 1    
    44   22   23 1    
    45   22   24 1    
    46   22  145 1    
    47   23  146 1    
    48   23  147 1    
    49   23  148 1    
    50   24   25 am   BACKBONE|DICT|INTERRES
    51   24  149 1    
    52   25   26 2    
    53   25   27 1    
    54   27   28 1    
    55   27   29 1    
    56   27  150 1    
    57   28  151 1    
    58   28  152 1    
    59   28  153 1    
    60   29   30 am   BACKBONE|DICT|INTERRES
    61   29  154 1    
    62   30   31 2    
    63   30   32 1    
    64   32   33 1    
    65   32   34 1    
    66   32  155 1    
    67   33  156 1    
    68   33  157 1    
    69   33  158 1    
    70   34   35 am   BACKBONE|DICT|INTERRES
    71   34  159 1    
    72   35   36 2    
    73   35   37 1    
    74   37   38 1    
    75   37   39 1    
    76   37  160 1    
    77   38  161 1    
    78   38  162 1    
    79   38  163 1    
    80   39   40 am   BACKBONE|DICT|INTERRES
    81   39  164 1    
    82   40   41 2    
    83   40   42 1    
    84   42   43 1    
    85   42   44 1    
    86   42  165 1    
    87   43  166 1    
    88   43  167 1    
    89   43  168 1    
    90   44   45 am   BACKBONE|DICT|INTERRES
    91   44  169 1    
    92   45   46 2    
    93   45   47 1    
    94   47   48 1    
    95   47   49 1    
    96   47  170 1    
    97   48  171 1    
    98   48  172 1    
    99   48  173 1    
   100   49   50 am   BACKBONE|DICT|INTERRES
   101   49  174 1    
   102   50   51 2    
   103   50   52 1    
   104   52   53 1    
   105   52   54 1    
   106   52  175 1    
   107   53  176 1    
   108   53  177 1    
   109   53  178 1    
   110   54   55 am   BACKBONE|DICT|INTERRES
   111   54  179 1    
   112   55   56 2    
   113   55   57 1    
   114   57   58 1    
   115   57   59 1    
   116   57  180 1    
   117   58  181 1    
   118   58  182 1    
   119   58  183 1    
   120   59   60 am   BACKBONE|DICT|INTERRES
   121   59  184 1    
   122   60   61 2    
   123   60   62 1    
   124   62   63 1    
   125   62   64 1    
   126   62  185 1    
   127   63  186 1    
   128   63  187 1    
   129   63  188 1    
   130   64   65 am   BACKBONE|DICT|INTERRES
   131   64  189 1    
   132   65   66 2    
   133   67   68 2    
   134   67   69 am   BACKBONE|DICT|INTERRES
   135   69   70 1    
   136   69  190 1    
   137   70   71 1    
   138   70   72 1    
   139   70  191 1    
   140   71  192 1    
   141   71  193 1    
   142   71  194 1    
   143   72   73 2    
   144   72   74 am   BACKBONE|DICT|INTERRES
   145   74   75 1    
   146   74  195 1    
   147   75   76 1    
   148   75   77 1    
   149   75  196 1    
   150   76  197 1    
   151   76  198 1    
   152   76  199 1    
   153   77   78 2    
   154   77   79 am   BACKBONE|DICT|INTERRES
   155   79   80 1    
   156   79  200 1    
   157   80   81 1    
   158   80   82 1    
   159   80  201 1    
   160   81  202 1    
   161   81  203 1    
   162   81  204 1    
   163   82   83 2    
   164   82   84 am   BACKBONE|DICT|INTERRES
   165   84   85 1    
   166   84  205 1    
   167   85   86 1    
   168   85   87 1    
   169   85  206 1    
   170   86  207 1    
   171   86  208 1    
   172   86  209 1    
   173   87   88 2    
   174   87   89 am   BACKBONE|DICT|INTERRES
   175   89   90 1    
   176   89  210 1    
   177   90   91 1    
   178   90   92 1    
   179   90  211 1    
   180   91  212 1    
   181   91  213 1    
   182   91  214 1    
   183   92   93 2    
   184   92   94 am   BACKBONE|DICT|INTERRES
   185   94   95 1    
   186   94  215 1    
   187   95   96 1    
   188   95   97 1    
   189   95  216 1    
   190   96  217 1    
   191   96  218 1    
   192   96  219 1    
   193   97   98 2    
   194   97   99 am   BACKBONE|DICT|INTERRES
   195   99  100 1    
   196   99  220 1    
   197  100  101 1    
   198  100  102 1    
   199  100  221 1    
   200  101  222 1    
   201  101  223 1    
   202  101  224 1    
   203  102  103 2    
   204  102  104 am   BACKBONE|DICT|INTERRES
   205  104  105 1    
   206  104  225 1    
   207  105  106 1    
   208  105  107 1    
   209  105  226 1    
   210  106  227 1    
   211  106  228 1    
   212  106  229 1    
   213  107  108 2    
   214  107  109 am   BACKBONE|DICT|INTERRES
   215  109  110 1    
   216  109  230 1    
   217  110  111 1    
   218  110  112 1    
   219  110  231 1    
   220  111  232 1    
   221  111  233 1    
   222  111  234 1    
   223  112  113 2    
   224  112  114 am   BACKBONE|DICT|INTERRES
   225  114  115 1    
   226  114  235 1    
   227  115  116 1    
   228  115  117 1    
   229  115  236 1    
   230  116  237 1    
   231  116  238 1    
   232  116  239 1    
   233  117  118 2    
   234  117  119 am   BACKBONE|DICT|INTERRES
   235  119  120 1    
   236  119  240 1    
   237  120  121 1    
   238  120  124 1    
   239  120  241 1    
   240  121  122 am   BACKBONE|DICT|INTERRES
   241  121  123 2    
   242  122  242 1    
   243  122  243 1    
   244  124  125 1    
   245  124  244 1    
   246  124  245 1    
   247  125  126 1    
   248  126  246 1    
   249  126  247 1    
@<TRIPOS>SUBSTRUCTURE
     1 UNK         1 GROUP             0       ****    0 ROOT    
