@<TRIPOS>MOLECULE
3R540
247   249    1
SMALL
USER_CHARGES


@<TRIPOS>ATOM
      1 CA          1.4015  -12.5126  -52.1838 C.3       0 UNK        -0.1800 
      2 C           0.1876  -12.4662  -51.2662 C.2       0 UNK         0.5000 
      3 O          -0.9397  -12.3537  -51.7464 O.2       0 UNK        -0.5000 
      4 N           0.4179  -12.5532  -49.9533 N.am      1 UNK        -0.5000 
      5 CA         -0.5914  -12.6099  -48.8985 C.3       1 UNK         0.1400 
      6 C6         -1.3460  -11.2555  -48.7120 C.3       23 UNK        -0.0398 
      7 S7         -2.7811  -11.2502  -47.5697 S.3       23 UNK        -0.2404 
      8 C8         -4.1284  -11.9970  -48.5559 C.3       23 UNK        -0.0205 
      9 C9         -3.9422  -13.4857  -48.8427 C.ar      23 UNK        -0.0193 
     10 C10        -4.2958  -13.9970  -50.0954 C.ar      23 UNK        -0.1150 
     11 C11        -4.0899  -15.3459  -50.4016 C.ar      23 UNK        -0.0193 
     12 C12        -3.5046  -16.1829  -49.4472 C.ar      23 UNK        -0.1150 
     13 C13        -3.1306  -15.6842  -48.1947 C.ar      23 UNK        -0.0193 
     14 C14        -3.3975  -14.3492  -47.8843 C.ar      23 UNK        -0.1150 
     15 C15        -2.3445  -16.5629  -47.2307 C.3       23 UNK        -0.0205 
     16 S16        -3.0419  -16.6305  -45.5451 S.3       23 UNK        -0.2404 
     17 C17        -1.9501  -17.8424  -44.6975 C.3       23 UNK        -0.0398 
     18 CA         -1.7155  -19.1772  -45.4526 C.3       11 UNK         0.1400 
     19 N          -0.7756  -20.0758  -44.7794 N.am      11 UNK        -0.5000 
     20 C          -0.2563  -21.1742  -45.3531 C.2       10 UNK         0.5000 
     21 O          -0.4591  -21.4946  -46.5236 O.2       10 UNK        -0.5000 
     22 CA          0.5753  -22.1051  -44.4563 C.3       10 UNK         0.1400 
     23 CB          2.0308  -21.6250  -44.3528 C.3       10 UNK        -0.1800 
     24 N          -0.0146  -22.2271  -43.1236 N.am      10 UNK        -0.5000 
     25 C          -1.1673  -22.8655  -42.8729 C.2       9 UNK         0.5000 
     26 O          -1.8107  -23.4737  -43.7293 O.2       9 UNK        -0.5000 
     27 CA         -1.7118  -22.7680  -41.4352 C.3       9 UNK         0.1400 
     28 CB         -1.0902  -23.8563  -40.5476 C.3       9 UNK        -0.1800 
     29 N          -1.4733  -21.4553  -40.8302 N.am      9 UNK        -0.5000 
     30 C          -2.0503  -20.3145  -41.2360 C.2       8 UNK         0.5000 
     31 O          -2.8834  -20.2560  -42.1387 O.2       8 UNK        -0.5000 
     32 CA         -1.5691  -19.0140  -40.5628 C.3       8 UNK         0.1400 
     33 CB         -2.3699  -18.7397  -39.2817 C.3       8 UNK        -0.1800 
     34 N          -0.1365  -19.0297  -40.2505 N.am      8 UNK        -0.5000 
     35 C           0.8346  -19.1337  -41.1666 C.2       7 UNK         0.5000 
     36 O           0.6222  -19.1762  -42.3827 O.2       7 UNK        -0.5000 
     37 CA          2.2663  -19.2850  -40.6333 C.3       7 UNK         0.1400 
     38 CB          2.4314  -20.6428  -39.9182 C.3       7 UNK        -0.1800 
     39 N           3.1888  -19.1974  -41.7596 N.am      7 UNK        -0.5000 
     40 C           4.5191  -19.0753  -41.6962 C.2       6 UNK         0.5000 
     41 O           5.1473  -18.9716  -40.6419 O.2       6 UNK        -0.5000 
     42 CA          5.2853  -19.0856  -43.0343 C.3       6 UNK         0.1400 
     43 CB          5.8387  -20.4909  -43.3182 C.3       6 UNK        -0.1800 
     44 N           4.4773  -18.6575  -44.1799 N.am      6 UNK        -0.5000 
     45 C           4.1212  -17.3893  -44.4172 C.2       5 UNK         0.5000 
     46 O           4.4199  -16.4468  -43.6803 O.2       5 UNK        -0.5000 
     47 CA          3.2733  -17.1478  -45.6800 C.3       5 UNK         0.1400 
     48 CB          1.7768  -17.3060  -45.3675 C.3       5 UNK        -0.1800 
     49 N           3.5115  -15.8162  -46.2347 N.am      5 UNK        -0.5000 
     50 C           4.6134  -15.4588  -46.9095 C.2       4 UNK         0.5000 
     51 O           5.5192  -16.2441  -47.1936 O.2       4 UNK        -0.5000 
     52 CA          4.7304  -13.9881  -47.3541 C.3       4 UNK         0.1400 
     53 CB          4.4341  -13.8563  -48.8573 C.3       4 UNK        -0.1800 
     54 N           3.8236  -13.1099  -46.6128 N.am      4 UNK        -0.5000 
     55 C           4.1484  -12.4506  -45.4910 C.2       3 UNK         0.5000 
     56 O           5.2720  -12.4739  -44.9874 O.2       3 UNK        -0.5000 
     57 CA          3.0381  -11.6206  -44.8113 C.3       3 UNK         0.1400 
     58 CB          3.1293  -10.1487  -45.2420 C.3       3 UNK        -0.1800 
     59 N           1.6886  -12.1126  -45.0934 N.am      3 UNK        -0.5000 
     60 C           1.1948  -13.2789  -44.6571 C.2       2 UNK         0.5000 
     61 O           1.7970  -14.0263  -43.8887 O.2       2 UNK        -0.5000 
     62 CA         -0.1824  -13.7095  -45.1980 C.3       2 UNK         0.1400 
     63 CB         -1.2799  -13.4183  -44.1641 C.3       2 UNK        -0.1800 
     64 N          -0.5658  -13.1027  -46.4769 N.am      2 UNK        -0.5000 
     65 C           0.0949  -13.1881  -47.6376 C.2       1 UNK         0.5000 
     66 O           1.2089  -13.7114  -47.7331 O.2       1 UNK        -0.5000 
     67 C          -3.0357  -19.8956  -45.8000 C.2       11 UNK         0.5000 
     68 O          -3.5125  -19.7439  -46.9211 O.2       11 UNK        -0.5000 
     69 N          -3.5750  -20.7024  -44.8755 N.am      12 UNK        -0.5000 
     70 CA         -4.7728  -21.5147  -45.0991 C.3       12 UNK         0.1400 
     71 CB         -5.1692  -22.2369  -43.8031 C.3       12 UNK        -0.1800 
     72 C          -4.6090  -22.5084  -46.2647 C.2       12 UNK         0.5000 
     73 O          -5.4931  -22.5862  -47.1169 O.2       12 UNK        -0.5000 
     74 N          -3.4600  -23.1987  -46.3177 N.am      13 UNK        -0.5000 
     75 CA         -3.0864  -24.0918  -47.4172 C.3       13 UNK         0.1400 
     76 CB         -1.8152  -24.8674  -47.0436 C.3       13 UNK        -0.1800 
     77 C          -2.8966  -23.3546  -48.7565 C.2       13 UNK         0.5000 
     78 O          -3.2982  -23.8755  -49.7986 O.2       13 UNK        -0.5000 
     79 N          -2.3036  -22.1547  -48.7107 N.am      14 UNK        -0.5000 
     80 CA         -2.1306  -21.2762  -49.8647 C.3       14 UNK         0.1400 
     81 CB         -1.1635  -20.1340  -49.5190 C.3       14 UNK        -0.1800 
     82 C          -3.4663  -20.7384  -50.4000 C.2       14 UNK         0.5000 
     83 O          -3.7125  -20.8421  -51.6010 O.2       14 UNK        -0.5000 
     84 N          -4.3123  -20.2144  -49.5039 N.am      15 UNK        -0.5000 
     85 CA         -5.6325  -19.6551  -49.7986 C.3       15 UNK         0.1400 
     86 CB         -6.1886  -18.9659  -48.5440 C.3       15 UNK        -0.1800 
     87 C          -6.6279  -20.6993  -50.3337 C.2       15 UNK         0.5000 
     88 O          -7.3927  -20.3925  -51.2492 O.2       15 UNK        -0.5000 
     89 N          -6.5647  -21.9266  -49.7986 N.am      16 UNK        -0.5000 
     90 CA         -7.3234  -23.0842  -50.2811 C.3       16 UNK         0.1400 
     91 CB         -7.2886  -24.1841  -49.2078 C.3       16 UNK        -0.1800 
     92 C          -6.8083  -23.6424  -51.6242 C.2       16 UNK         0.5000 
     93 O          -7.4802  -24.4873  -52.2168 O.2       16 UNK        -0.5000 
     94 N          -5.6211  -23.1912  -52.0579 N.am      17 UNK        -0.5000 
     95 CA         -4.8665  -23.6317  -53.2336 C.3       17 UNK         0.1400 
     96 CB         -5.6318  -23.3440  -54.5404 C.3       17 UNK        -0.1800 
     97 C          -4.3699  -25.0887  -53.1284 C.2       17 UNK         0.5000 
     98 O          -4.0328  -25.6960  -54.1449 O.2       17 UNK        -0.5000 
     99 N          -4.2629  -25.6074  -51.8969 N.am      18 UNK        -0.5000 
    100 CA        -3.6631  -26.9041  -51.5780 C.3       18 UNK         0.1400 
    101 CB        -4.0313  -27.2941  -50.1384 C.3       18 UNK        -0.1800 
    102 C         -2.1352  -26.8768  -51.7658 C.2       18 UNK         0.5000 
    103 O         -1.5521  -27.8742  -52.1899 O.2       18 UNK        -0.5000 
    104 N         -1.5305  -25.7089  -51.5052 N.am      19 UNK        -0.5000 
    105 CA        -0.1299  -25.3972  -51.8006 C.3       19 UNK         0.1400 
    106 CB         0.3829  -24.3940  -50.7538 C.3       19 UNK        -0.1800 
    107 C          0.0722  -24.8646  -53.2395 C.2       19 UNK         0.5000 
    108 O          1.1700  -24.4086  -53.5600 O.2       19 UNK        -0.5000 
    109 N         -0.9813  -24.9159  -54.0726 N.am      20 UNK        -0.5000 
    110 CA        -1.0472  -24.4814  -55.4748 C.3       20 UNK         0.1400 
    111 CB        -0.1089  -25.3309  -56.3580 C.3       20 UNK        -0.1800 
    112 C         -0.8509  -22.9618  -55.6716 C.2       20 UNK         0.5000 
    113 O         -0.3661  -22.5367  -56.7224 O.2       20 UNK        -0.5000 
    114 N         -1.2382  -22.1723  -54.6616 N.am      21 UNK        -0.5000 
    115 CA        -1.1840  -20.7111  -54.6660 C.3       21 UNK         0.1400 
    116 CB        -0.5992  -20.2349  -53.3237 C.3       21 UNK        -0.1800 
    117 C         -2.5685  -20.1058  -54.9889 C.2       21 UNK         0.5000 
    118 O         -3.3604  -20.7248  -55.7028 O.2       21 UNK        -0.5000 
    119 N         -2.8127  -18.8850  -54.4988 N.am      22 UNK        -0.5000 
    120 CA        -3.9880  -18.0441  -54.7828 C.3       22 UNK         0.1400 
    121 C         -5.3605  -18.5288  -54.2297 C.2       22 UNK         0.5000 
    122 N         -5.4268  -19.5215  -53.3571 N.am      22 UNK        -0.7600 
    123 O         -6.3957  -17.9896  -54.6117 O.2       22 UNK        -0.5000 
    124 C124       -3.7167  -16.5564  -54.4242 C.3       23 UNK        -0.0398 
    125 S125       -2.9973  -16.2846  -52.7626 S.3       23 UNK        -0.2404 
    126 C126       -4.4722  -15.8909  -51.7713 C.3       23 UNK        -0.0205 
    127 H127        1.3189  -13.3535  -52.8724 H         1 UNK         0.0600 
    128 H128        2.3302  -12.6227  -51.6229 H         1 UNK         0.0600 
    129 H129        1.4646  -11.5955  -52.7695 H         1 UNK         0.0600 
    130 H130        1.3574  -12.7139  -49.6114 H         1 UNK         0.3000 
    131 H131       -1.3037  -13.3666  -49.2207 H         1 UNK         0.0600 
    132 H132       -0.6450  -10.4934  -48.3686 H         1 UNK         0.0800 
    133 H133       -1.7103  -10.8976  -49.6751 H         1 UNK         0.0800 
    134 H134       -4.2296  -11.4360  -49.4863 H         1 UNK         0.0800 
    135 H135       -5.0664  -11.8688  -48.0146 H         1 UNK         0.0800 
    136 H136       -4.7211  -13.3396  -50.8407 H         1 UNK         0.1150 
    137 H137       -3.3081  -17.2158  -49.6998 H         1 UNK         0.1150 
    138 H138       -3.1245  -13.9725  -46.9103 H         1 UNK         0.1150 
    139 H139       -2.3010  -17.5640  -47.6506 H         1 UNK         0.0800 
    140 H140       -1.3171  -16.2001  -47.1801 H         1 UNK         0.0800 
    141 H141       -2.3798  -18.0422  -43.7153 H         1 UNK         0.0800 
    142 H142       -0.9942  -17.3546  -44.5066 H         1 UNK         0.0800 
    143 H143       -1.2221  -18.9341  -46.3927 H         1 UNK         0.0600 
    144 H144       -0.5164  -19.8509  -43.8240 H         1 UNK         0.3000 
    145 H145        0.5810  -23.0958  -44.9163 H         1 UNK         0.0600 
    146 H146        2.6160  -22.2724  -43.6996 H         1 UNK         0.0600 
    147 H147        2.5095  -21.6333  -45.3327 H         1 UNK         0.0600 
    148 H148        2.0979  -20.6095  -43.9688 H         1 UNK         0.0600 
    149 H149        0.4304  -21.7149  -42.3780 H         1 UNK         0.3000 
    150 H150       -2.7904  -22.9337  -41.4753 H         1 UNK         0.0600 
    151 H151       -1.2670  -24.8483  -40.9657 H         1 UNK         0.0600 
    152 H152       -1.5241  -23.8446  -39.5476 H         1 UNK         0.0600 
    153 H153       -0.0115  -23.7294  -40.4476 H         1 UNK         0.0600 
    154 H154       -0.8050  -21.4150  -40.0753 H         1 UNK         0.3000 
    155 H155       -1.7504  -18.1939  -41.2606 H         1 UNK         0.0600 
    156 H156       -2.2081  -19.5136  -38.5303 H         1 UNK         0.0600 
    157 H157       -2.0941  -17.7811  -38.8419 H         1 UNK         0.0600 
    158 H158       -3.4400  -18.7037  -39.4909 H         1 UNK         0.0600 
    159 H159        0.1113  -18.9984  -39.2719 H         1 UNK         0.3000 
    160 H160        2.4675  -18.4664  -39.9398 H         1 UNK         0.0600 
    161 H161        2.2507  -21.4777  -40.5964 H         1 UNK         0.0600 
    162 H162        1.7387  -20.7414  -39.0819 H         1 UNK         0.0600 
    163 H163        3.4346  -20.7607  -39.5091 H         1 UNK         0.0600 
    164 H164        2.7313  -19.2115  -42.6614 H         1 UNK         0.3000 
    165 H165        6.1311  -18.4019  -42.9336 H         1 UNK         0.0600 
    166 H166        6.4456  -20.5011  -44.2237 H         1 UNK         0.0600 
    167 H167        6.4735  -20.8335  -42.5000 H         1 UNK         0.0600 
    168 H168        5.0389  -21.2223  -43.4403 H         1 UNK         0.0600 
    169 H169        4.2104  -19.3771  -44.8356 H         1 UNK         0.3000 
    170 H170        3.5464  -17.8878  -46.4354 H         1 UNK         0.0600 
    171 H171        1.5521  -18.3226  -45.0443 H         1 UNK         0.0600 
    172 H172        1.4597  -16.6356  -44.5684 H         1 UNK         0.0600 
    173 H173        1.1627  -17.1014  -46.2448 H         1 UNK         0.0600 
    174 H174        2.8461  -15.0981  -45.9907 H         1 UNK         0.3000 
    175 H175        5.7634  -13.6750  -47.1888 H         1 UNK         0.0600 
    176 H176        5.1444  -14.4386  -49.4456 H         1 UNK         0.0600 
    177 H177        3.4351  -14.2144  -49.1070 H         1 UNK         0.0600 
    178 H178        4.5129  -12.8202  -49.1867 H         1 UNK         0.0600 
    179 H179        2.8668  -13.0761  -46.9510 H         1 UNK         0.3000 
    180 H180        3.2009  -11.6731  -43.7327 H         1 UNK         0.0600 
    181 H181        2.9571  -10.0312  -46.3127 H         1 UNK         0.0600 
    182 H182        4.1152   -9.7374  -45.0211 H         1 UNK         0.0600 
    183 H183        2.3978   -9.5366  -44.7140 H         1 UNK         0.0600 
    184 H184        1.1219  -11.5570  -45.7164 H         1 UNK         0.3000 
    185 H185       -0.1417  -14.7890  -45.3537 H         1 UNK         0.0600 
    186 H186       -1.0531  -13.8922  -43.2081 H         1 UNK         0.0600 
    187 H187       -1.3878  -12.3479  -43.9845 H         1 UNK         0.0600 
    188 H188       -2.2457  -13.8021  -44.4924 H         1 UNK         0.0600 
    189 H189       -1.4501  -12.6094  -46.4836 H         1 UNK         0.3000 
    190 H190       -3.1685  -20.7288  -43.9443 H         1 UNK         0.3000 
    191 H191       -5.5827  -20.8315  -45.3629 H         1 UNK         0.0600 
    192 H192       -4.4012  -22.9374  -43.4772 H         1 UNK         0.0600 
    193 H193       -6.0911  -22.8033  -43.9405 H         1 UNK         0.0600 
    194 H194       -5.3406  -21.5277  -42.9931 H         1 UNK         0.0600 
    195 H195       -2.7932  -23.0963  -45.5603 H         1 UNK         0.3000 
    196 H196       -3.8967  -24.8112  -47.5508 H         1 UNK         0.0600 
    197 H197       -1.5374  -25.5659  -47.8341 H         1 UNK         0.0600 
    198 H198       -1.9614  -25.4475  -46.1322 H         1 UNK         0.0600 
    199 H199       -0.9683  -24.1998  -46.8817 H         1 UNK         0.0600 
    200 H200       -1.9408  -21.8202  -47.8237 H         1 UNK         0.3000 
    201 H201       -1.6822  -21.8627  -50.6662 H         1 UNK         0.0600 
    202 H202       -0.1759  -20.5205  -49.2666 H         1 UNK         0.0600 
    203 H203       -1.5172  -19.5506  -48.6720 H         1 UNK         0.0600 
    204 H204       -1.0416  -19.4466  -50.3564 H         1 UNK         0.0600 
    205 H205       -4.0131  -20.1567  -48.5299 H         1 UNK         0.3000 
    206 H206       -5.5025  -18.8952  -50.5703 H         1 UNK         0.0600 
    207 H207       -7.1638  -18.5193  -48.7414 H         1 UNK         0.0600 
    208 H208       -6.3070  -19.6702  -47.7196 H         1 UNK         0.0600 
    209 H209       -5.5269  -18.1672  -48.2074 H         1 UNK         0.0600 
    210 H210       -5.9507  -22.0879  -49.0054 H         1 UNK         0.3000 
    211 H211       -8.3619  -22.7809  -50.4285 H         1 UNK         0.0600 
    212 H212       -6.2697  -24.5227  -49.0141 H         1 UNK         0.0600 
    213 H213       -7.8709  -25.0538  -49.5147 H         1 UNK         0.0600 
    214 H214       -7.7094  -23.8299  -48.2667 H         1 UNK         0.0600 
    215 H215       -5.1547  -22.4901  -51.4959 H         1 UNK         0.3000 
    216 H216       -3.9663  -23.0166  -53.2505 H         1 UNK         0.0600 
    217 H217       -5.9576  -22.3044  -54.5829 H         1 UNK         0.0600 
    218 H218       -6.5109  -23.9793  -54.6479 H         1 UNK         0.0600 
    219 H219       -4.9961  -23.5153  -55.4099 H         1 UNK         0.0600 
    220 H220       -4.4641  -25.0017  -51.1098 H         1 UNK         0.3000 
    221 H221       -4.0763  -27.6536  -52.2562 H         1 UNK         0.0600 
    222 H222       -3.6266  -26.5898  -49.4114 H         1 UNK         0.0600 
    223 H223       -5.1126  -27.3299  -50.0041 H         1 UNK         0.0600 
    224 H224       -3.6393  -28.2813  -49.8909 H         1 UNK         0.0600 
    225 H225       -2.0945  -24.9591  -51.1202 H         1 UNK         0.3000 
    226 H226        0.4659  -26.3075  -51.7089 H         1 UNK         0.0600 
    227 H227        0.1978  -24.7470  -49.7392 H         1 UNK         0.0600 
    228 H228        1.4585  -24.2428  -50.8518 H         1 UNK         0.0600 
    229 H229       -0.0916  -23.4209  -50.8633 H         1 UNK         0.0600 
    230 H230       -1.8317  -25.3367  -53.7230 H         1 UNK         0.3000 
    231 H231       -2.0671  -24.6867  -55.8024 H         1 UNK         0.0600 
    232 H232       -0.2744  -25.1256  -57.4162 H         1 UNK         0.0600 
    233 H233       -0.2824  -26.3963  -56.2061 H         1 UNK         0.0600 
    234 H234        0.9414  -25.1279  -56.1474 H         1 UNK         0.0600 
    235 H235       -1.6512  -22.6022  -53.8494 H         1 UNK         0.3000 
    236 H236       -0.5071  -20.3689  -55.4512 H         1 UNK         0.0600 
    237 H237       -1.2887  -20.4216  -52.5055 H         1 UNK         0.0600 
    238 H238        0.3345  -20.7501  -53.0961 H         1 UNK         0.0600 
    239 H239       -0.3767  -19.1675  -53.3367 H         1 UNK         0.0600 
    240 H240       -2.1285  -18.4616  -53.8892 H         1 UNK         0.3000 
    241 H241       -4.1165  -18.0774  -55.8664 H         1 UNK         0.0600 
    242 H242       -6.3283  -19.8042  -52.9983 H         1 UNK         0.3800 
    243 H243       -4.5914  -19.9624  -52.9839 H         1 UNK         0.3800 
    244 H244       -3.0002  -16.1536  -55.1411 H         1 UNK         0.0800 
    245 H245       -4.6110  -15.9434  -54.5495 H         1 UNK         0.0800 
    246 H246       -5.0880  -15.1674  -52.3076 H         1 UNK         0.0800 
    247 H247       -5.0807  -16.7877  -51.6524 H         1 UNK         0.0800 
@<TRIPOS>BOND
     1    1    2 1    
     2    1  127 1    
     3    1  128 1    
     4    1  129 1    
     5    2    3 2    
     6    2    4 am   BACKBONE|DICT|INTERRES
     7    4    5 1    
     8    4  130 1    
     9    5    6 1    
    10    5   65 1    
    11    5  131 1    
    12    6    7 1    
    13    6  132 1    
    14    6  133 1    
    15    7    8 1    
    16    8    9 1    
    17    8  134 1    
    18    8  135 1    
    19    9   10 ar   
    20    9   14 ar   
    21   10   11 ar   
    22   10  136 1    
    23   11   12 ar   
    24   11  126 1    
    25   12   13 ar   
    26   12  137 1    
    27   13   14 ar   
    28   13   15 1    
    29   14  138 1    
    30   15   16 1    
    31   15  139 1    
    32   15  140 1    
    33   16   17 1    
    34   17   18 1    
    35   17  141 1    
    36   17  142 1    
    37   18   19 1    
    38   18   67 1    
    39   18  143 1    
    40   19   20 am   BACKBONE|DICT|INTERRES
    41   19  144 1    
    42   20   21 2    
    43   20   22 1    
    44   22   23 1    
    45   22   24 1    
    46   22  145 1    
    47   23  146 1    
    48   23  147 1    
    49   23  148 1    
    50   24   25 am   BACKBONE|DICT|INTERRES
    51   24  149 1    
    52   25   26 2    
    53   25   27 1    
    54   27   28 1    
    55   27   29 1    
    56   27  150 1    
    57   28  151 1    
    58   28  152 1    
    59   28  153 1    
    60   29   30 am   BACKBONE|DICT|INTERRES
    61   29  154 1    
    62   30   31 2    
    63   30   32 1    
    64   32   33 1    
    65   32   34 1    
    66   32  155 1    
    67   33  156 1    
    68   33  157 1    
    69   33  158 1    
    70   34   35 am   BACKBONE|DICT|INTERRES
    71   34  159 1    
    72   35   36 2    
    73   35   37 1    
    74   37   38 1    
    75   37   39 1    
    76   37  160 1    
    77   38  161 1    
    78   38  162 1    
    79   38  163 1    
    80   39   40 am   BACKBONE|DICT|INTERRES
    81   39  164 1    
    82   40   41 2    
    83   40   42 1    
    84   42   43 1    
    85   42   44 1    
    86   42  165 1    
    87   43  166 1    
    88   43  167 1    
    89   43  168 1    
    90   44   45 am   BACKBONE|DICT|INTERRES
    91   44  169 1    
    92   45   46 2    
    93   45   47 1    
    94   47   48 1    
    95   47   49 1    
    96   47  170 1    
    97   48  171 1    
    98   48  172 1    
    99   48  173 1    
   100   49   50 am   BACKBONE|DICT|INTERRES
   101   49  174 1    
   102   50   51 2    
   103   50   52 1    
   104   52   53 1    
   105   52   54 1    
   106   52  175 1    
   107   53  176 1    
   108   53  177 1    
   109   53  178 1    
   110   54   55 am   BACKBONE|DICT|INTERRES
   111   54  179 1    
   112   55   56 2    
   113   55   57 1    
   114   57   58 1    
   115   57   59 1    
   116   57  180 1    
   117   58  181 1    
   118   58  182 1    
   119   58  183 1    
   120   59   60 am   BACKBONE|DICT|INTERRES
   121   59  184 1    
   122   60   61 2    
   123   60   62 1    
   124   62   63 1    
   125   62   64 1    
   126   62  185 1    
   127   63  186 1    
   128   63  187 1    
   129   63  188 1    
   130   64   65 am   BACKBONE|DICT|INTERRES
   131   64  189 1    
   132   65   66 2    
   133   67   68 2    
   134   67   69 am   BACKBONE|DICT|INTERRES
   135   69   70 1    
   136   69  190 1    
   137   70   71 1    
   138   70   72 1    
   139   70  191 1    
   140   71  192 1    
   141   71  193 1    
   142   71  194 1    
   143   72   73 2    
   144   72   74 am   BACKBONE|DICT|INTERRES
   145   74   75 1    
   146   74  195 1    
   147   75   76 1    
   148   75   77 1    
   149   75  196 1    
   150   76  197 1    
   151   76  198 1    
   152   76  199 1    
   153   77   78 2    
   154   77   79 am   BACKBONE|DICT|INTERRES
   155   79   80 1    
   156   79  200 1    
   157   80   81 1    
   158   80   82 1    
   159   80  201 1    
   160   81  202 1    
   161   81  203 1    
   162   81  204 1    
   163   82   83 2    
   164   82   84 am   BACKBONE|DICT|INTERRES
   165   84   85 1    
   166   84  205 1    
   167   85   86 1    
   168   85   87 1    
   169   85  206 1    
   170   86  207 1    
   171   86  208 1    
   172   86  209 1    
   173   87   88 2    
   174   87   89 am   BACKBONE|DICT|INTERRES
   175   89   90 1    
   176   89  210 1    
   177   90   91 1    
   178   90   92 1    
   179   90  211 1    
   180   91  212 1    
   181   91  213 1    
   182   91  214 1    
   183   92   93 2    
   184   92   94 am   BACKBONE|DICT|INTERRES
   185   94   95 1    
   186   94  215 1    
   187   95   96 1    
   188   95   97 1    
   189   95  216 1    
   190   96  217 1    
   191   96  218 1    
   192   96  219 1    
   193   97   98 2    
   194   97   99 am   BACKBONE|DICT|INTERRES
   195   99  100 1    
   196   99  220 1    
   197  100  101 1    
   198  100  102 1    
   199  100  221 1    
   200  101  222 1    
   201  101  223 1    
   202  101  224 1    
   203  102  103 2    
   204  102  104 am   BACKBONE|DICT|INTERRES
   205  104  105 1    
   206  104  225 1    
   207  105  106 1    
   208  105  107 1    
   209  105  226 1    
   210  106  227 1    
   211  106  228 1    
   212  106  229 1    
   213  107  108 2    
   214  107  109 am   BACKBONE|DICT|INTERRES
   215  109  110 1    
   216  109  230 1    
   217  110  111 1    
   218  110  112 1    
   219  110  231 1    
   220  111  232 1    
   221  111  233 1    
   222  111  234 1    
   223  112  113 2    
   224  112  114 am   BACKBONE|DICT|INTERRES
   225  114  115 1    
   226  114  235 1    
   227  115  116 1    
   228  115  117 1    
   229  115  236 1    
   230  116  237 1    
   231  116  238 1    
   232  116  239 1    
   233  117  118 2    
   234  117  119 am   BACKBONE|DICT|INTERRES
   235  119  120 1    
   236  119  240 1    
   237  120  121 1    
   238  120  124 1    
   239  120  241 1    
   240  121  122 am   BACKBONE|DICT|INTERRES
   241  121  123 2    
   242  122  242 1    
   243  122  243 1    
   244  124  125 1    
   245  124  244 1    
   246  124  245 1    
   247  125  126 1    
   248  126  246 1    
   249  126  247 1    
@<TRIPOS>SUBSTRUCTURE
     1 UNK         1 GROUP             0       ****    0 ROOT    
