@<TRIPOS>MOLECULE
3R540
247   249    1
SMALL
USER_CHARGES


@<TRIPOS>ATOM
      1 CA         -0.4895  -14.7017  -51.9835 C.3       0 UNK        -0.1800 
      2 C           0.0374  -14.2558  -50.6268 C.2       0 UNK         0.5000 
      3 O           1.1102  -14.6930  -50.2120 O.2       0 UNK        -0.5000 
      4 N          -0.7243  -13.4037  -49.9300 N.am      1 UNK        -0.5000 
      5 CA         -0.3802  -12.8450  -48.6190 C.3       1 UNK         0.1400 
      6 C6         -1.6238  -12.2535  -47.9023 C.3       23 UNK        -0.0398 
      7 S7         -2.5644  -13.4926  -46.9460 S.3       23 UNK        -0.2404 
      8 C8         -3.4923  -14.3916  -48.2282 C.3       23 UNK        -0.0205 
      9 C9         -3.2014  -15.8877  -48.2027 C.ar      23 UNK        -0.0193 
     10 C10        -4.2505  -16.8033  -48.0747 C.ar      23 UNK        -0.1150 
     11 C11        -4.0014  -18.1789  -48.0914 C.ar      23 UNK        -0.0193 
     12 C12        -2.6889  -18.6330  -48.2454 C.ar      23 UNK        -0.1150 
     13 C13        -1.6288  -17.7337  -48.3774 C.ar      23 UNK        -0.0193 
     14 C14        -1.8934  -16.3640  -48.3453 C.ar      23 UNK        -0.1150 
     15 C15        -0.2154  -18.2359  -48.6436 C.3       23 UNK        -0.0205 
     16 S16         0.9072  -18.1047  -47.2181 S.3       23 UNK        -0.2404 
     17 C17         0.2153  -19.2849  -46.0161 C.3       23 UNK        -0.0398 
     18 CA          0.4541  -20.7830  -46.3594 C.3       11 UNK         0.1400 
     19 N           0.9220  -21.5427  -45.1960 N.am      11 UNK        -0.5000 
     20 C           1.2822  -22.8350  -45.2025 C.2       10 UNK         0.5000 
     21 O           1.3157  -23.5368  -46.2136 O.2       10 UNK        -0.5000 
     22 CA          1.6000  -23.4590  -43.8307 C.3       10 UNK         0.1400 
     23 CB          3.0756  -23.2399  -43.4670 C.3       10 UNK        -0.1800 
     24 N           0.7559  -22.9388  -42.7514 N.am      10 UNK        -0.5000 
     25 C          -0.5792  -23.0241  -42.6927 C.2       9 UNK         0.5000 
     26 O          -1.2612  -23.5578  -43.5667 O.2       9 UNK        -0.5000 
     27 CA         -1.2822  -22.3646  -41.4924 C.3       9 UNK         0.1400 
     28 CB         -1.2901  -23.2956  -40.2659 C.3       9 UNK        -0.1800 
     29 N          -0.7799  -21.0247  -41.1596 N.am      9 UNK        -0.5000 
     30 C           0.4073  -20.6615  -40.6469 C.2       8 UNK         0.5000 
     31 O           1.3094  -21.4595  -40.3895 O.2       8 UNK        -0.5000 
     32 CA          0.6565  -19.1561  -40.4165 C.3       8 UNK         0.1400 
     33 CB          1.7674  -18.6491  -41.3518 C.3       8 UNK        -0.1800 
     34 N          -0.5435  -18.3382  -40.6108 N.am      8 UNK        -0.5000 
     35 C          -1.5362  -18.2194  -39.7157 C.2       7 UNK         0.5000 
     36 O          -1.5013  -18.7304  -38.5958 O.2       7 UNK        -0.5000 
     37 CA         -2.7902  -17.4217  -40.1349 C.3       7 UNK         0.1400 
     38 CB         -2.7559  -16.0127  -39.5234 C.3       7 UNK        -0.1800 
     39 N          -2.9774  -17.2990  -41.5826 N.am      7 UNK        -0.5000 
     40 C          -3.1608  -18.3112  -42.4423 C.2       6 UNK         0.5000 
     41 O          -3.2205  -19.4941  -42.1063 O.2       6 UNK        -0.5000 
     42 CA         -3.2245  -17.9410  -43.9386 C.3       6 UNK         0.1400 
     43 CB         -4.6820  -17.6859  -44.3483 C.3       6 UNK        -0.1800 
     44 N          -2.4040  -16.7823  -44.3239 N.am      6 UNK        -0.5000 
     45 C          -1.0994  -16.6242  -44.0584 C.2       5 UNK         0.5000 
     46 O          -0.4354  -17.4260  -43.3959 O.2       5 UNK        -0.5000 
     47 CA         -0.4307  -15.3512  -44.5897 C.3       5 UNK         0.1400 
     48 CB         -0.9185  -14.1073  -43.8240 C.3       5 UNK        -0.1800 
     49 N           1.0121  -15.4884  -44.4349 N.am      5 UNK        -0.5000 
     50 C           1.9357  -14.8241  -45.1309 C.2       4 UNK         0.5000 
     51 O           1.6727  -13.9900  -46.0024 O.2       4 UNK        -0.5000 
     52 CA          3.4000  -15.1666  -44.8090 C.3       4 UNK         0.1400 
     53 CB          3.8391  -16.4264  -45.5713 C.3       4 UNK        -0.1800 
     54 N           4.2518  -14.0515  -45.2111 N.am      4 UNK        -0.5000 
     55 C           4.7406  -13.1139  -44.3899 C.2       3 UNK         0.5000 
     56 O           4.6824  -13.1738  -43.1612 O.2       3 UNK        -0.5000 
     57 CA          5.3773  -11.8815  -45.0649 C.3       3 UNK         0.1400 
     58 CB          6.8809  -12.1022  -45.2904 C.3       3 UNK        -0.1800 
     59 N           4.7391  -11.5566  -46.3446 N.am      3 UNK        -0.5000 
     60 C           3.4952  -11.0720  -46.4687 C.2       2 UNK         0.5000 
     61 O           2.7989  -10.7340  -45.5097 O.2       2 UNK        -0.5000 
     62 CA          2.9057  -10.9803  -47.8852 C.3       2 UNK         0.1400 
     63 CB          3.8952  -11.3318  -49.0189 C.3       2 UNK        -0.1800 
     64 N           1.7518  -11.8708  -47.9291 N.am      2 UNK        -0.5000 
     65 C           0.7283  -11.7860  -48.7817 C.2       1 UNK         0.5000 
     66 O           0.6256  -10.9192  -49.6539 O.2       1 UNK        -0.5000 
     67 C          -0.8217  -21.4150  -46.9490 C.2       11 UNK         0.5000 
     68 O          -0.8863  -21.6578  -48.1540 O.2       11 UNK        -0.5000 
     69 N          -1.8035  -21.6776  -46.0737 N.am      12 UNK        -0.5000 
     70 CA         -3.1035  -22.2505  -46.4171 C.3       12 UNK         0.1400 
     71 CB         -4.0765  -22.0411  -45.2472 C.3       12 UNK        -0.1800 
     72 C          -3.0153  -23.7354  -46.8041 C.2       12 UNK         0.5000 
     73 O          -3.7463  -24.1656  -47.6946 O.2       12 UNK        -0.5000 
     74 N          -2.0998  -24.4784  -46.1659 N.am      13 UNK        -0.5000 
     75 CA         -1.7867  -25.8733  -46.4830 C.3       13 UNK         0.1400 
     76 CB         -0.8494  -26.4470  -45.4101 C.3       13 UNK        -0.1800 
     77 C          -1.1758  -26.0343  -47.8880 C.2       13 UNK         0.5000 
     78 O          -1.5465  -26.9606  -48.6097 O.2       13 UNK        -0.5000 
     79 N          -0.2833  -25.1073  -48.2646 N.am      14 UNK        -0.5000 
     80 CA          0.2712  -24.9944  -49.6159 C.3       14 UNK         0.1400 
     81 CB          1.5662  -24.1697  -49.5504 C.3       14 UNK        -0.1800 
     82 C          -0.7108  -24.3500  -50.6151 C.2       14 UNK         0.5000 
     83 O          -0.5040  -24.4587  -51.8240 O.2       14 UNK        -0.5000 
     84 N          -1.7241  -23.6443  -50.0953 N.am      15 UNK        -0.5000 
     85 CA         -2.7254  -22.8398  -50.8000 C.3       15 UNK         0.1400 
     86 CB         -3.6813  -23.7496  -51.5936 C.3       15 UNK        -0.1800 
     87 C          -2.0992  -21.7121  -51.6484 C.2       15 UNK         0.5000 
     88 O          -2.5922  -21.4074  -52.7368 O.2       15 UNK        -0.5000 
     89 N          -0.9879  -21.1510  -51.1451 N.am      16 UNK        -0.5000 
     90 CA         -0.0758  -20.2194  -51.8229 C.3       16 UNK         0.1400 
     91 CB         -0.7651  -18.8650  -52.0852 C.3       16 UNK        -0.1800 
     92 C           0.5333  -20.8252  -53.1068 C.2       16 UNK         0.5000 
     93 O           0.5924  -20.1550  -54.1368 O.2       16 UNK        -0.5000 
     94 N           0.9273  -22.1058  -53.0334 N.am      17 UNK        -0.5000 
     95 CA          1.3475  -22.9618  -54.1519 C.3       17 UNK         0.1400 
     96 CB          2.6662  -22.4627  -54.7793 C.3       17 UNK        -0.1800 
     97 C           0.2076  -23.1482  -55.1769 C.2       17 UNK         0.5000 
     98 O           0.4220  -23.0344  -56.3845 O.2       17 UNK        -0.5000 
     99 N          -0.9983  -23.3915  -54.6434 N.am      18 UNK        -0.5000 
    100 CA        -2.2929  -23.5284  -55.3214 C.3       18 UNK         0.1400 
    101 CB        -2.2829  -24.7317  -56.2862 C.3       18 UNK        -0.1800 
    102 C         -2.8267  -22.2448  -55.9980 C.2       18 UNK         0.5000 
    103 O         -3.8633  -22.3127  -56.6603 O.2       18 UNK        -0.5000 
    104 N         -2.1523  -21.0993  -55.8226 N.am      19 UNK        -0.5000 
    105 CA        -2.5369  -19.8235  -56.4281 C.3       19 UNK         0.1400 
    106 CB        -1.3197  -18.8881  -56.4740 C.3       19 UNK        -0.1800 
    107 C         -3.7084  -19.1351  -55.7049 C.2       19 UNK         0.5000 
    108 O         -4.4980  -18.4553  -56.3621 O.2       19 UNK        -0.5000 
    109 N         -3.7992  -19.3033  -54.3783 N.am      20 UNK        -0.5000 
    110 CA        -4.8304  -18.6788  -53.5449 C.3       20 UNK         0.1400 
    111 CB        -4.2209  -18.2739  -52.1933 C.3       20 UNK        -0.1800 
    112 C         -6.0485  -19.5932  -53.3359 C.2       20 UNK         0.5000 
    113 O         -7.1240  -19.0888  -53.0093 O.2       20 UNK        -0.5000 
    114 N         -5.8619  -20.9105  -53.5128 N.am      21 UNK        -0.5000 
    115 CA        -6.8209  -22.0135  -53.3429 C.3       21 UNK         0.1400 
    116 CB        -8.0376  -21.8622  -54.2756 C.3       21 UNK        -0.1800 
    117 C         -7.2546  -22.2510  -51.8810 C.2       21 UNK         0.5000 
    118 O         -7.2117  -23.3913  -51.4197 O.2       21 UNK        -0.5000 
    119 N         -7.6267  -21.1751  -51.1782 N.am      22 UNK        -0.5000 
    120 CA        -7.8996  -21.1045  -49.7308 C.3       22 UNK         0.1400 
    121 C         -9.1541  -21.8962  -49.2489 C.2       22 UNK         0.5000 
    122 N        -10.0649  -22.2910  -50.1299 N.am      22 UNK        -0.7600 
    123 O         -9.3281  -22.1282  -48.0554 O.2       22 UNK        -0.5000 
    124 C124       -6.6377  -21.3950  -48.8680 C.3       23 UNK        -0.0398 
    125 S125       -5.2213  -20.3396  -49.3314 S.3       23 UNK        -0.2404 
    126 C126       -5.1454  -19.1732  -47.9372 C.3       23 UNK        -0.0205 
    127 H127       -0.7715  -15.7536  -51.9458 H         1 UNK         0.0600 
    128 H128       -1.3643  -14.1265  -52.2874 H         1 UNK         0.0600 
    129 H129        0.2791  -14.5790  -52.7463 H         1 UNK         0.0600 
    130 H130       -1.5676  -13.0433  -50.3506 H         1 UNK         0.3000 
    131 H131        0.0211  -13.6525  -48.0041 H         1 UNK         0.0600 
    132 H132       -2.2851  -11.7418  -48.6033 H         1 UNK         0.0800 
    133 H133       -1.3249  -11.4945  -47.1764 H         1 UNK         0.0800 
    134 H134       -3.2662  -14.0034  -49.2203 H         1 UNK         0.0800 
    135 H135       -4.5552  -14.2045  -48.0692 H         1 UNK         0.0800 
    136 H136       -5.2645  -16.4450  -47.9668 H         1 UNK         0.1150 
    137 H137       -2.5066  -19.6933  -48.2999 H         1 UNK         0.1150 
    138 H138       -1.0743  -15.6708  -48.4473 H         1 UNK         0.1150 
    139 H139       -0.2330  -19.2662  -48.9939 H         1 UNK         0.0800 
    140 H140        0.2132  -17.6520  -49.4595 H         1 UNK         0.0800 
    141 H141        0.7090  -19.0438  -45.0745 H         1 UNK         0.0800 
    142 H142       -0.8365  -19.0472  -45.8507 H         1 UNK         0.0800 
    143 H143        1.2383  -20.8585  -47.1158 H         1 UNK         0.0600 
    144 H144        0.9276  -21.0605  -44.3100 H         1 UNK         0.3000 
    145 H145        1.4205  -24.5330  -43.9040 H         1 UNK         0.0600 
    146 H146        3.3320  -23.7502  -42.5384 H         1 UNK         0.0600 
    147 H147        3.7325  -23.6318  -44.2448 H         1 UNK         0.0600 
    148 H148        3.3071  -22.1813  -43.3422 H         1 UNK         0.0600 
    149 H149        1.2241  -22.4862  -41.9705 H         1 UNK         0.3000 
    150 H150       -2.3217  -22.2155  -41.7894 H         1 UNK         0.0600 
    151 H151       -1.7770  -24.2425  -40.5026 H         1 UNK         0.0600 
    152 H152       -1.8364  -22.8477  -39.4358 H         1 UNK         0.0600 
    153 H153       -0.2830  -23.5280  -39.9191 H         1 UNK         0.0600 
    154 H154       -1.4411  -20.2818  -41.3597 H         1 UNK         0.3000 
    155 H155        1.0001  -19.0343  -39.3872 H         1 UNK         0.0600 
    156 H156        2.7138  -19.1468  -41.1372 H         1 UNK         0.0600 
    157 H157        1.9301  -17.5780  -41.2312 H         1 UNK         0.0600 
    158 H158        1.5326  -18.8389  -42.3993 H         1 UNK         0.0600 
    159 H159       -0.6423  -17.9040  -41.5243 H         1 UNK         0.3000 
    160 H160       -3.6578  -17.9495  -39.7338 H         1 UNK         0.0600 
    161 H161       -1.9215  -15.4270  -39.9116 H         1 UNK         0.0600 
    162 H162       -3.6765  -15.4678  -39.7335 H         1 UNK         0.0600 
    163 H163       -2.6483  -16.0585  -38.4388 H         1 UNK         0.0600 
    164 H164       -2.9259  -16.3653  -41.9618 H         1 UNK         0.3000 
    165 H165       -2.8569  -18.7999  -44.5026 H         1 UNK         0.0600 
    166 H166       -5.3076  -18.5523  -44.1296 H         1 UNK         0.0600 
    167 H167       -5.1048  -16.8319  -43.8177 H         1 UNK         0.0600 
    168 H168       -4.7672  -17.4884  -45.4146 H         1 UNK         0.0600 
    169 H169       -2.8708  -16.0755  -44.8745 H         1 UNK         0.3000 
    170 H170       -0.6687  -15.2657  -45.6511 H         1 UNK         0.0600 
    171 H171       -1.9999  -13.9910  -43.9010 H         1 UNK         0.0600 
    172 H172       -0.4705  -13.1976  -44.2244 H         1 UNK         0.0600 
    173 H173       -0.6681  -14.1653  -42.7641 H         1 UNK         0.0600 
    174 H174        1.2818  -16.2137  -43.7820 H         1 UNK         0.3000 
    175 H175        3.4933  -15.3529  -43.7370 H         1 UNK         0.0600 
    176 H176        3.7124  -16.3113  -46.6487 H         1 UNK         0.0600 
    177 H177        4.8868  -16.6584  -45.3792 H         1 UNK         0.0600 
    178 H178        3.2536  -17.2935  -45.2632 H         1 UNK         0.0600 
    179 H179        4.2953  -13.8759  -46.2038 H         1 UNK         0.3000 
    180 H180        5.2537  -11.0306  -44.3915 H         1 UNK         0.0600 
    181 H181        7.3873  -12.3240  -44.3500 H         1 UNK         0.0600 
    182 H182        7.0696  -12.9349  -45.9691 H         1 UNK         0.0600 
    183 H183        7.3516  -11.2128  -45.7097 H         1 UNK         0.0600 
    184 H184        5.2521  -11.7942  -47.1812 H         1 UNK         0.3000 
    185 H185        2.5688   -9.9507  -48.0209 H         1 UNK         0.0600 
    186 H186        4.7791  -10.6936  -48.9863 H         1 UNK         0.0600 
    187 H187        4.2226  -12.3710  -48.9664 H         1 UNK         0.0600 
    188 H188        3.4372  -11.1844  -49.9970 H         1 UNK         0.0600 
    189 H189        1.7342  -12.5945  -47.2096 H         1 UNK         0.3000 
    190 H190       -1.6342  -21.5182  -45.0920 H         1 UNK         0.3000 
    191 H191       -3.4912  -21.7117  -47.2827 H         1 UNK         0.0600 
    192 H192       -5.0711  -22.4119  -45.4982 H         1 UNK         0.0600 
    193 H193       -4.1772  -20.9847  -44.9987 H         1 UNK         0.0600 
    194 H194       -3.7473  -22.5651  -44.3492 H         1 UNK         0.0600 
    195 H195       -1.6003  -24.0647  -45.3836 H         1 UNK         0.3000 
    196 H196       -2.7205  -26.4389  -46.4570 H         1 UNK         0.0600 
    197 H197       -0.6502  -27.5038  -45.5919 H         1 UNK         0.0600 
    198 H198       -1.2888  -26.3641  -44.4158 H         1 UNK         0.0600 
    199 H199        0.1102  -25.9307  -45.3966 H         1 UNK         0.0600 
    200 H200        0.0218  -24.4141  -47.5889 H         1 UNK         0.3000 
    201 H201        0.5158  -25.9922  -49.9856 H         1 UNK         0.0600 
    202 H202        2.2922  -24.6313  -48.8808 H         1 UNK         0.0600 
    203 H203        1.3801  -23.1566  -49.1907 H         1 UNK         0.0600 
    204 H204        2.0343  -24.0920  -50.5325 H         1 UNK         0.0600 
    205 H205       -1.7615  -23.5785  -49.0874 H         1 UNK         0.3000 
    206 H206       -3.3087  -22.3428  -50.0267 H         1 UNK         0.0600 
    207 H207       -4.2255  -24.4155  -50.9237 H         1 UNK         0.0600 
    208 H208       -4.4219  -23.1653  -52.1353 H         1 UNK         0.0600 
    209 H209       -3.1525  -24.3677  -52.3174 H         1 UNK         0.0600 
    210 H210       -0.7142  -21.4441  -50.2125 H         1 UNK         0.3000 
    211 H211        0.7540  -20.0458  -51.1368 H         1 UNK         0.0600 
    212 H212       -1.4683  -18.9260  -52.9139 H         1 UNK         0.0600 
    213 H213       -0.0301  -18.1021  -52.3427 H         1 UNK         0.0600 
    214 H214       -1.3141  -18.5135  -51.2135 H         1 UNK         0.0600 
    215 H215        0.7761  -22.5942  -52.1620 H         1 UNK         0.3000 
    216 H216        1.5409  -23.9485  -53.7284 H         1 UNK         0.0600 
    217 H217        3.4413  -22.3422  -54.0227 H         1 UNK         0.0600 
    218 H218        2.5421  -21.5067  -55.2884 H         1 UNK         0.0600 
    219 H219        3.0391  -23.1757  -55.5154 H         1 UNK         0.0600 
    220 H220       -1.0343  -23.4864  -53.6344 H         1 UNK         0.3000 
    221 H221       -3.0128  -23.7540  -54.5357 H         1 UNK         0.0600 
    222 H222       -1.6401  -24.5555  -57.1489 H         1 UNK         0.0600 
    223 H223       -1.9350  -25.6353  -55.7858 H         1 UNK         0.0600 
    224 H224       -3.2843  -24.9391  -56.6652 H         1 UNK         0.0600 
    225 H225       -1.3198  -21.1026  -55.2483 H         1 UNK         0.3000 
    226 H226       -2.8468  -20.0131  -57.4581 H         1 UNK         0.0600 
    227 H227       -0.4657  -19.3691  -56.9515 H         1 UNK         0.0600 
    228 H228       -1.5461  -17.9852  -57.0423 H         1 UNK         0.0600 
    229 H229       -1.0148  -18.5739  -55.4756 H         1 UNK         0.0600 
    230 H230       -3.1464  -19.9243  -53.9084 H         1 UNK         0.3000 
    231 H231       -5.1929  -17.7668  -54.0236 H         1 UNK         0.0600 
    232 H232       -3.7803  -19.1260  -51.6767 H         1 UNK         0.0600 
    233 H233       -3.4450  -17.5195  -52.3219 H         1 UNK         0.0600 
    234 H234       -4.9754  -17.8476  -51.5307 H         1 UNK         0.0600 
    235 H235       -4.9203  -21.1972  -53.7417 H         1 UNK         0.3000 
    236 H236       -6.2883  -22.9112  -53.6606 H         1 UNK         0.0600 
    237 H237       -7.7248  -21.7492  -55.3137 H         1 UNK         0.0600 
    238 H238       -8.6770  -22.7441  -54.2230 H         1 UNK         0.0600 
    239 H239       -8.6526  -21.0008  -54.0150 H         1 UNK         0.0600 
    240 H240       -7.6187  -20.2856  -51.6707 H         1 UNK         0.3000 
    241 H241       -8.1645  -20.0622  -49.5507 H         1 UNK         0.0600 
    242 H242      -10.8799  -22.7927  -49.8135 H         1 UNK         0.3800 
    243 H243       -9.9389  -22.1033  -51.1117 H         1 UNK         0.3800 
    244 H244       -6.3346  -22.4378  -48.9750 H         1 UNK         0.0800 
    245 H245       -6.8516  -21.2524  -47.8077 H         1 UNK         0.0800 
    246 H246       -5.0121  -19.7227  -47.0054 H         1 UNK         0.0800 
    247 H247       -6.1015  -18.6533  -47.8604 H         1 UNK         0.0800 
@<TRIPOS>BOND
     1    1    2 1    
     2    1  127 1    
     3    1  128 1    
     4    1  129 1    
     5    2    3 2    
     6    2    4 am   BACKBONE|DICT|INTERRES
     7    4    5 1    
     8    4  130 1    
     9    5    6 1    
    10    5   65 1    
    11    5  131 1    
    12    6    7 1    
    13    6  132 1    
    14    6  133 1    
    15    7    8 1    
    16    8    9 1    
    17    8  134 1    
    18    8  135 1    
    19    9   10 ar   
    20    9   14 ar   
    21   10   11 ar   
    22   10  136 1    
    23   11   12 ar   
    24   11  126 1    
    25   12   13 ar   
    26   12  137 1    
    27   13   14 ar   
    28   13   15 1    
    29   14  138 1    
    30   15   16 1    
    31   15  139 1    
    32   15  140 1    
    33   16   17 1    
    34   17   18 1    
    35   17  141 1    
    36   17  142 1    
    37   18   19 1    
    38   18   67 1    
    39   18  143 1    
    40   19   20 am   BACKBONE|DICT|INTERRES
    41   19  144 1    
    42   20   21 2    
    43   20   22 1    
    44   22   23 1    
    45   22   24 1    
    46   22  145 1    
    47   23  146 1    
    48   23  147 1    
    49   23  148 1    
    50   24   25 am   BACKBONE|DICT|INTERRES
    51   24  149 1    
    52   25   26 2    
    53   25   27 1    
    54   27   28 1    
    55   27   29 1    
    56   27  150 1    
    57   28  151 1    
    58   28  152 1    
    59   28  153 1    
    60   29   30 am   BACKBONE|DICT|INTERRES
    61   29  154 1    
    62   30   31 2    
    63   30   32 1    
    64   32   33 1    
    65   32   34 1    
    66   32  155 1    
    67   33  156 1    
    68   33  157 1    
    69   33  158 1    
    70   34   35 am   BACKBONE|DICT|INTERRES
    71   34  159 1    
    72   35   36 2    
    73   35   37 1    
    74   37   38 1    
    75   37   39 1    
    76   37  160 1    
    77   38  161 1    
    78   38  162 1    
    79   38  163 1    
    80   39   40 am   BACKBONE|DICT|INTERRES
    81   39  164 1    
    82   40   41 2    
    83   40   42 1    
    84   42   43 1    
    85   42   44 1    
    86   42  165 1    
    87   43  166 1    
    88   43  167 1    
    89   43  168 1    
    90   44   45 am   BACKBONE|DICT|INTERRES
    91   44  169 1    
    92   45   46 2    
    93   45   47 1    
    94   47   48 1    
    95   47   49 1    
    96   47  170 1    
    97   48  171 1    
    98   48  172 1    
    99   48  173 1    
   100   49   50 am   BACKBONE|DICT|INTERRES
   101   49  174 1    
   102   50   51 2    
   103   50   52 1    
   104   52   53 1    
   105   52   54 1    
   106   52  175 1    
   107   53  176 1    
   108   53  177 1    
   109   53  178 1    
   110   54   55 am   BACKBONE|DICT|INTERRES
   111   54  179 1    
   112   55   56 2    
   113   55   57 1    
   114   57   58 1    
   115   57   59 1    
   116   57  180 1    
   117   58  181 1    
   118   58  182 1    
   119   58  183 1    
   120   59   60 am   BACKBONE|DICT|INTERRES
   121   59  184 1    
   122   60   61 2    
   123   60   62 1    
   124   62   63 1    
   125   62   64 1    
   126   62  185 1    
   127   63  186 1    
   128   63  187 1    
   129   63  188 1    
   130   64   65 am   BACKBONE|DICT|INTERRES
   131   64  189 1    
   132   65   66 2    
   133   67   68 2    
   134   67   69 am   BACKBONE|DICT|INTERRES
   135   69   70 1    
   136   69  190 1    
   137   70   71 1    
   138   70   72 1    
   139   70  191 1    
   140   71  192 1    
   141   71  193 1    
   142   71  194 1    
   143   72   73 2    
   144   72   74 am   BACKBONE|DICT|INTERRES
   145   74   75 1    
   146   74  195 1    
   147   75   76 1    
   148   75   77 1    
   149   75  196 1    
   150   76  197 1    
   151   76  198 1    
   152   76  199 1    
   153   77   78 2    
   154   77   79 am   BACKBONE|DICT|INTERRES
   155   79   80 1    
   156   79  200 1    
   157   80   81 1    
   158   80   82 1    
   159   80  201 1    
   160   81  202 1    
   161   81  203 1    
   162   81  204 1    
   163   82   83 2    
   164   82   84 am   BACKBONE|DICT|INTERRES
   165   84   85 1    
   166   84  205 1    
   167   85   86 1    
   168   85   87 1    
   169   85  206 1    
   170   86  207 1    
   171   86  208 1    
   172   86  209 1    
   173   87   88 2    
   174   87   89 am   BACKBONE|DICT|INTERRES
   175   89   90 1    
   176   89  210 1    
   177   90   91 1    
   178   90   92 1    
   179   90  211 1    
   180   91  212 1    
   181   91  213 1    
   182   91  214 1    
   183   92   93 2    
   184   92   94 am   BACKBONE|DICT|INTERRES
   185   94   95 1    
   186   94  215 1    
   187   95   96 1    
   188   95   97 1    
   189   95  216 1    
   190   96  217 1    
   191   96  218 1    
   192   96  219 1    
   193   97   98 2    
   194   97   99 am   BACKBONE|DICT|INTERRES
   195   99  100 1    
   196   99  220 1    
   197  100  101 1    
   198  100  102 1    
   199  100  221 1    
   200  101  222 1    
   201  101  223 1    
   202  101  224 1    
   203  102  103 2    
   204  102  104 am   BACKBONE|DICT|INTERRES
   205  104  105 1    
   206  104  225 1    
   207  105  106 1    
   208  105  107 1    
   209  105  226 1    
   210  106  227 1    
   211  106  228 1    
   212  106  229 1    
   213  107  108 2    
   214  107  109 am   BACKBONE|DICT|INTERRES
   215  109  110 1    
   216  109  230 1    
   217  110  111 1    
   218  110  112 1    
   219  110  231 1    
   220  111  232 1    
   221  111  233 1    
   222  111  234 1    
   223  112  113 2    
   224  112  114 am   BACKBONE|DICT|INTERRES
   225  114  115 1    
   226  114  235 1    
   227  115  116 1    
   228  115  117 1    
   229  115  236 1    
   230  116  237 1    
   231  116  238 1    
   232  116  239 1    
   233  117  118 2    
   234  117  119 am   BACKBONE|DICT|INTERRES
   235  119  120 1    
   236  119  240 1    
   237  120  121 1    
   238  120  124 1    
   239  120  241 1    
   240  121  122 am   BACKBONE|DICT|INTERRES
   241  121  123 2    
   242  122  242 1    
   243  122  243 1    
   244  124  125 1    
   245  124  244 1    
   246  124  245 1    
   247  125  126 1    
   248  126  246 1    
   249  126  247 1    
@<TRIPOS>SUBSTRUCTURE
     1 UNK         1 GROUP             0       ****    0 ROOT    
