@<TRIPOS>MOLECULE
3R540
247   249    1
SMALL
USER_CHARGES


@<TRIPOS>ATOM
      1 CA          2.5872  -12.3036  -50.2684 C.3       0 UNK        -0.1800 
      2 C           4.0180  -12.6158  -49.8259 C.2       0 UNK         0.5000 
      3 O           4.9261  -12.4680  -50.6404 O.2       0 UNK        -0.5000 
      4 N           4.2997  -13.0427  -48.5832 N.am      1 UNK        -0.5000 
      5 CA          3.4129  -13.2859  -47.4306 C.3       1 UNK         0.1400 
      6 C6          2.4313  -14.4793  -47.6098 C.3       23 UNK        -0.0398 
      7 S7          3.2647  -16.0533  -48.0195 S.3       23 UNK        -0.2404 
      8 C8          2.9861  -16.2081  -49.8141 C.3       23 UNK        -0.0205 
      9 C9          1.6243  -16.7974  -50.1518 C.ar      23 UNK        -0.0193 
     10 C10         0.5138  -15.9689  -50.3298 C.ar      23 UNK        -0.1150 
     11 C11        -0.7311  -16.5042  -50.6724 C.ar      23 UNK        -0.0193 
     12 C12        -0.8514  -17.8873  -50.8416 C.ar      23 UNK        -0.1150 
     13 C13         0.2517  -18.7321  -50.6927 C.ar      23 UNK        -0.0193 
     14 C14         1.4885  -18.1744  -50.3429 C.ar      23 UNK        -0.1150 
     15 C15         0.0686  -20.2250  -50.9745 C.3       23 UNK        -0.0205 
     16 S16         1.3291  -21.3284  -50.2476 S.3       23 UNK        -0.2404 
     17 C17         1.0240  -21.0490  -48.4720 C.3       23 UNK        -0.0398 
     18 CA          0.4491  -22.2664  -47.7146 C.3       11 UNK         0.1400 
     19 N           0.3470  -21.9784  -46.2844 N.am      11 UNK        -0.5000 
     20 C           0.0475  -22.8705  -45.3326 C.2       10 UNK         0.5000 
     21 O          -0.1174  -24.0702  -45.5470 O.2       10 UNK        -0.5000 
     22 CA         -0.1498  -22.3188  -43.9099 C.3       10 UNK         0.1400 
     23 CB          1.2029  -22.1306  -43.2080 C.3       10 UNK        -0.1800 
     24 N          -0.8968  -21.0589  -43.8962 N.am      10 UNK        -0.5000 
     25 C          -2.1678  -20.9290  -44.3049 C.2       9 UNK         0.5000 
     26 O          -2.8585  -21.8722  -44.6899 O.2       9 UNK        -0.5000 
     27 CA         -2.7529  -19.5051  -44.3346 C.3       9 UNK         0.1400 
     28 CB         -3.1597  -19.0493  -42.9259 C.3       9 UNK        -0.1800 
     29 N          -1.8360  -18.5291  -44.9244 N.am      9 UNK        -0.5000 
     30 C          -1.4072  -18.5561  -46.1947 C.2       8 UNK         0.5000 
     31 O          -1.7715  -19.3920  -47.0203 O.2       8 UNK        -0.5000 
     32 CA         -0.3513  -17.5086  -46.5915 C.3       8 UNK         0.1400 
     33 CB         -1.0080  -16.1547  -46.8965 C.3       8 UNK        -0.1800 
     34 N           0.6736  -17.3482  -45.5590 N.am      8 UNK        -0.5000 
     35 C           1.5420  -18.3075  -45.2062 C.2       7 UNK         0.5000 
     36 O           1.6039  -19.4098  -45.7492 O.2       7 UNK        -0.5000 
     37 CA          2.4481  -18.0107  -44.0002 C.3       7 UNK         0.1400 
     38 CB          3.6807  -17.1968  -44.4218 C.3       7 UNK        -0.1800 
     39 N           1.7220  -17.3124  -42.9384 N.am      7 UNK        -0.5000 
     40 C           0.7886  -17.8939  -42.1683 C.2       6 UNK         0.5000 
     41 O           0.4791  -19.0811  -42.2580 O.2       6 UNK        -0.5000 
     42 CA          0.0434  -17.0027  -41.1552 C.3       6 UNK         0.1400 
     43 CB          0.7877  -16.9787  -39.8123 C.3       6 UNK        -0.1800 
     44 N          -0.1455  -15.6311  -41.6240 N.am      6 UNK        -0.5000 
     45 C          -0.8378  -15.2786  -42.7163 C.2       5 UNK         0.5000 
     46 O          -1.4752  -16.0763  -43.4031 O.2       5 UNK        -0.5000 
     47 CA         -0.7559  -13.8000  -43.1450 C.3       5 UNK         0.1400 
     48 CB         -1.9888  -13.0270  -42.6558 C.3       5 UNK        -0.1800 
     49 N           0.4553  -13.1158  -42.6798 N.am      5 UNK        -0.5000 
     50 C           1.7116  -13.4559  -42.9963 C.2       4 UNK         0.5000 
     51 O           1.9866  -14.4146  -43.7199 O.2       4 UNK        -0.5000 
     52 CA          2.8338  -12.5947  -42.3794 C.3       4 UNK         0.1400 
     53 CB          4.2364  -13.1107  -42.7489 C.3       4 UNK        -0.1800 
     54 N           2.7333  -11.1954  -42.7862 N.am      4 UNK        -0.5000 
     55 C           1.8497  -10.2872  -42.3575 C.2       3 UNK         0.5000 
     56 O           1.0154  -10.5184  -41.4810 O.2       3 UNK        -0.5000 
     57 CA          1.8624   -8.9080  -43.0519 C.3       3 UNK         0.1400 
     58 CB          2.8998   -7.9667  -42.4105 C.3       3 UNK        -0.1800 
     59 N           2.0140   -8.9756  -44.5153 N.am      3 UNK        -0.5000 
     60 C           3.0704   -9.3889  -45.2286 C.2       2 UNK         0.5000 
     61 O           4.1546   -9.7132  -44.7376 O.2       2 UNK        -0.5000 
     62 CA          2.8671   -9.5214  -46.7462 C.3       2 UNK         0.1400 
     63 CB          3.6358   -8.4278  -47.5026 C.3       2 UNK        -0.1800 
     64 N           3.3216  -10.8343  -47.2022 N.am      2 UNK        -0.5000 
     65 C           2.7205  -11.9993  -46.9167 C.2       1 UNK         0.5000 
     66 O           1.6617  -12.0745  -46.2925 O.2       1 UNK        -0.5000 
     67 C          -0.8963  -22.7599  -48.2923 C.2       11 UNK         0.5000 
     68 O          -0.9181  -23.7778  -48.9829 O.2       11 UNK        -0.5000 
     69 N          -2.0000  -22.0743  -47.9618 N.am      12 UNK        -0.5000 
     70 CA         -3.3560  -22.4620  -48.3533 C.3       12 UNK         0.1400 
     71 CB         -4.3444  -21.3505  -47.9725 C.3       12 UNK        -0.1800 
     72 C          -3.7931  -23.8166  -47.7636 C.2       12 UNK         0.5000 
     73 O          -4.4366  -24.6003  -48.4636 O.2       12 UNK        -0.5000 
     74 N          -3.4067  -24.0860  -46.5088 N.am      13 UNK        -0.5000 
     75 CA         -3.6111  -25.3687  -45.8358 C.3       13 UNK         0.1400 
     76 CB         -3.2881  -25.2320  -44.3407 C.3       13 UNK        -0.1800 
     77 C          -2.7945  -26.5045  -46.4793 C.2       13 UNK         0.5000 
     78 O          -3.3418  -27.5823  -46.7117 O.2       13 UNK        -0.5000 
     79 N          -1.5221  -26.2348  -46.8080 N.am      14 UNK        -0.5000 
     80 CA         -0.6307  -27.1497  -47.5301 C.3       14 UNK         0.1400 
     81 CB          0.7944  -26.5770  -47.5474 C.3       14 UNK        -0.1800 
     82 C          -1.1152  -27.4577  -48.9609 C.2       14 UNK         0.5000 
     83 O          -0.9442  -28.5816  -49.4335 O.2       14 UNK        -0.5000 
     84 N          -1.7648  -26.4742  -49.5976 N.am      15 UNK        -0.5000 
     85 CA         -2.4666  -26.5962  -50.8766 C.3       15 UNK         0.1400 
     86 CB         -2.6295  -25.1940  -51.4925 C.3       15 UNK        -0.1800 
     87 C          -3.8304  -27.3168  -50.7697 C.2       15 UNK         0.5000 
     88 O          -4.5352  -27.4020  -51.7741 O.2       15 UNK        -0.5000 
     89 N          -4.1990  -27.8060  -49.5751 N.am      16 UNK        -0.5000 
     90 CA         -5.4282  -28.5395  -49.2543 C.3       16 UNK         0.1400 
     91 CB         -5.4602  -29.9022  -49.9781 C.3       16 UNK        -0.1800 
     92 C          -6.7006  -27.6987  -49.4799 C.2       16 UNK         0.5000 
     93 O          -7.7016  -28.2094  -49.9850 O.2       16 UNK        -0.5000 
     94 N          -6.6209  -26.4127  -49.1078 N.am      17 UNK        -0.5000 
     95 CA         -7.6546  -25.3789  -49.2204 C.3       17 UNK         0.1400 
     96 CB         -8.9424  -25.7698  -48.4651 C.3       17 UNK        -0.1800 
     97 C          -7.9262  -24.9121  -50.6660 C.2       17 UNK         0.5000 
     98 O          -8.8916  -24.1805  -50.8896 O.2       17 UNK        -0.5000 
     99 N          -7.0522  -25.2793  -51.6170 N.am      18 UNK        -0.5000 
    100 CA        -7.0728  -24.7750  -52.9949 C.3       18 UNK         0.1400 
    101 CB        -6.2812  -25.7286  -53.9020 C.3       18 UNK        -0.1800 
    102 C         -6.5195  -23.3396  -53.1139 C.2       18 UNK         0.5000 
    103 O         -6.6658  -22.7247  -54.1701 O.2       18 UNK        -0.5000 
    104 N         -5.8758  -22.8435  -52.0453 N.am      19 UNK        -0.5000 
    105 CA        -5.3321  -21.4958  -51.8269 C.3       19 UNK         0.1400 
    106 CB        -6.4334  -20.4290  -51.9626 C.3       19 UNK        -0.1800 
    107 C         -4.0929  -21.1349  -52.6697 C.2       19 UNK         0.5000 
    108 O         -3.2860  -20.3214  -52.2174 O.2       19 UNK        -0.5000 
    109 N         -3.9475  -21.7431  -53.8548 N.am      20 UNK        -0.5000 
    110 CA        -2.8577  -21.5699  -54.8177 C.3       20 UNK         0.1400 
    111 CB        -1.5612  -22.2152  -54.2802 C.3       20 UNK        -0.1800 
    112 C         -2.7142  -20.0908  -55.2304 C.2       20 UNK         0.5000 
    113 O         -3.6139  -19.5656  -55.8886 O.2       20 UNK        -0.5000 
    114 N         -1.6310  -19.4282  -54.8020 N.am      21 UNK        -0.5000 
    115 CA        -1.3681  -18.0040  -55.0315 C.3       21 UNK         0.1400 
    116 CB         0.0491  -17.6686  -54.5417 C.3       21 UNK        -0.1800 
    117 C         -2.4076  -17.0559  -54.3949 C.2       21 UNK         0.5000 
    118 O         -2.5637  -15.9324  -54.8744 O.2       21 UNK        -0.5000 
    119 N         -3.1116  -17.5214  -53.3535 N.am      22 UNK        -0.5000 
    120 CA        -4.2615  -16.8314  -52.7449 C.3       22 UNK         0.1400 
    121 C         -5.6031  -17.0957  -53.4978 C.2       22 UNK         0.5000 
    122 N         -5.6537  -17.9184  -54.5400 N.am      22 UNK        -0.7600 
    123 O         -6.6281  -16.5238  -53.1377 O.2       22 UNK        -0.5000 
    124 C124       -4.3814  -17.1416  -51.2218 C.3       23 UNK        -0.0398 
    125 S125       -3.4497  -16.0626  -50.0696 S.3       23 UNK        -0.2404 
    126 C126       -1.9087  -15.5634  -50.9136 C.3       23 UNK        -0.0205 
    127 H127        2.5534  -11.3100  -50.7151 H         1 UNK         0.0600 
    128 H128        1.8526  -12.3200  -49.4688 H         1 UNK         0.0600 
    129 H129        2.2707  -13.0185  -51.0275 H         1 UNK         0.0600 
    130 H130        5.2712  -13.2368  -48.3845 H         1 UNK         0.3000 
    131 H131        4.0857  -13.5662  -46.6184 H         1 UNK         0.0600 
    132 H132        1.8972  -14.6541  -46.6740 H         1 UNK         0.0800 
    133 H133        1.6647  -14.2584  -48.3477 H         1 UNK         0.0800 
    134 H134        3.7699  -16.8454  -50.2258 H         1 UNK         0.0800 
    135 H135        3.1078  -15.2438  -50.3030 H         1 UNK         0.0800 
    136 H136        0.6219  -14.8999  -50.2234 H         1 UNK         0.1150 
    137 H137       -1.8030  -18.3133  -51.1168 H         1 UNK         0.1150 
    138 H138        2.3605  -18.8023  -50.2349 H         1 UNK         0.1150 
    139 H139       -0.9163  -20.5493  -50.6329 H         1 UNK         0.0800 
    140 H140        0.0828  -20.3623  -52.0550 H         1 UNK         0.0800 
    141 H141        0.3758  -20.1833  -48.3392 H         1 UNK         0.0800 
    142 H142        1.9806  -20.7672  -48.0303 H         1 UNK         0.0800 
    143 H143        1.1624  -23.0862  -47.8216 H         1 UNK         0.0600 
    144 H144        0.5223  -21.0163  -46.0096 H         1 UNK         0.3000 
    145 H145       -0.7258  -23.0548  -43.3453 H         1 UNK         0.0600 
    146 H146        1.0684  -21.8273  -42.1697 H         1 UNK         0.0600 
    147 H147        1.7740  -23.0598  -43.2038 H         1 UNK         0.0600 
    148 H148        1.8110  -21.3721  -43.7018 H         1 UNK         0.0600 
    149 H149       -0.4059  -20.2447  -43.5381 H         1 UNK         0.3000 
    150 H150       -3.6514  -19.5287  -44.9546 H         1 UNK         0.0600 
    151 H151       -3.8879  -19.7345  -42.4903 H         1 UNK         0.0600 
    152 H152       -3.6154  -18.0591  -42.9474 H         1 UNK         0.0600 
    153 H153       -2.3041  -19.0093  -42.2524 H         1 UNK         0.0600 
    154 H154       -1.5311  -17.7674  -44.3248 H         1 UNK         0.3000 
    155 H155        0.1390  -17.8560  -47.5035 H         1 UNK         0.0600 
    156 H156       -1.4668  -15.7116  -46.0134 H         1 UNK         0.0600 
    157 H157       -1.7901  -16.2689  -47.6463 H         1 UNK         0.0600 
    158 H158       -0.2865  -15.4440  -47.2950 H         1 UNK         0.0600 
    159 H159        0.6730  -16.4830  -45.0388 H         1 UNK         0.3000 
    160 H160        2.7990  -18.9652  -43.6021 H         1 UNK         0.0600 
    161 H161        3.4053  -16.2471  -44.8797 H         1 UNK         0.0600 
    162 H162        4.2746  -17.7464  -45.1532 H         1 UNK         0.0600 
    163 H163        4.3263  -16.9843  -43.5698 H         1 UNK         0.0600 
    164 H164        1.8786  -16.3138  -42.8670 H         1 UNK         0.3000 
    165 H165       -0.9440  -17.4381  -40.9915 H         1 UNK         0.0600 
    166 H166        0.2309  -16.4168  -39.0621 H         1 UNK         0.0600 
    167 H167        0.9244  -17.9891  -39.4242 H         1 UNK         0.0600 
    168 H168        1.7759  -16.5268  -39.9071 H         1 UNK         0.0600 
    169 H169        0.3411  -14.9067  -41.1176 H         1 UNK         0.3000 
    170 H170       -0.7469  -13.7788  -44.2368 H         1 UNK         0.0600 
    171 H171       -2.9090  -13.4951  -43.0081 H         1 UNK         0.0600 
    172 H172       -2.0339  -12.9902  -41.5666 H         1 UNK         0.0600 
    173 H173       -1.9839  -12.0019  -43.0267 H         1 UNK         0.0600 
    174 H174        0.3261  -12.2933  -42.0991 H         1 UNK         0.3000 
    175 H175        2.7295  -12.6513  -41.2942 H         1 UNK         0.0600 
    176 H176        4.4092  -13.0681  -43.8252 H         1 UNK         0.0600 
    177 H177        5.0139  -12.5219  -42.2618 H         1 UNK         0.0600 
    178 H178        4.3697  -14.1467  -42.4344 H         1 UNK         0.0600 
    179 H179        3.3738  -10.8917  -43.5146 H         1 UNK         0.3000 
    180 H180        0.8785   -8.4680  -42.8812 H         1 UNK         0.0600 
    181 H181        3.9151   -8.3547  -42.4937 H         1 UNK         0.0600 
    182 H182        2.6927   -7.8305  -41.3483 H         1 UNK         0.0600 
    183 H183        2.8777   -6.9808  -42.8747 H         1 UNK         0.0600 
    184 H184        1.1675   -8.7665  -45.0267 H         1 UNK         0.3000 
    185 H185        1.8050   -9.4236  -46.9808 H         1 UNK         0.0600 
    186 H186        3.3029   -7.4352  -47.1965 H         1 UNK         0.0600 
    187 H187        4.7091   -8.4861  -47.3161 H         1 UNK         0.0600 
    188 H188        3.4772   -8.5064  -48.5783 H         1 UNK         0.0600 
    189 H189        4.2042  -10.8597  -47.6918 H         1 UNK         0.3000 
    190 H190       -1.9079  -21.2118  -47.4295 H         1 UNK         0.3000 
    191 H191       -3.3619  -22.5633  -49.4397 H         1 UNK         0.0600 
    192 H192       -4.3464  -21.1648  -46.8983 H         1 UNK         0.0600 
    193 H193       -5.3625  -21.6134  -48.2622 H         1 UNK         0.0600 
    194 H194       -4.0937  -20.4141  -48.4720 H         1 UNK         0.0600 
    195 H195       -2.9419  -23.3575  -45.9747 H         1 UNK         0.3000 
    196 H196       -4.6680  -25.6279  -45.9280 H         1 UNK         0.0600 
    197 H197       -3.4705  -26.1701  -43.8152 H         1 UNK         0.0600 
    198 H198       -3.9105  -24.4696  -43.8720 H         1 UNK         0.0600 
    199 H199       -2.2462  -24.9601  -44.1738 H         1 UNK         0.0600 
    200 H200       -1.1250  -25.3394  -46.5341 H         1 UNK         0.3000 
    201 H201       -0.6096  -28.0929  -46.9804 H         1 UNK         0.0600 
    202 H202        1.1699  -26.4241  -46.5355 H         1 UNK         0.0600 
    203 H203        0.8385  -25.6207  -48.0683 H         1 UNK         0.0600 
    204 H204        1.4826  -27.2571  -48.0507 H         1 UNK         0.0600 
    205 H205       -1.7752  -25.5544  -49.1671 H         1 UNK         0.3000 
    206 H206       -1.8459  -27.1887  -51.5514 H         1 UNK         0.0600 
    207 H207       -1.6689  -24.6859  -51.5799 H         1 UNK         0.0600 
    208 H208       -3.0548  -25.2492  -52.4949 H         1 UNK         0.0600 
    209 H209       -3.2862  -24.5642  -50.8937 H         1 UNK         0.0600 
    210 H210       -3.5803  -27.6548  -48.7870 H         1 UNK         0.3000 
    211 H211       -5.3899  -28.7420  -48.1832 H         1 UNK         0.0600 
    212 H212       -5.5616  -29.7876  -51.0576 H         1 UNK         0.0600 
    213 H213       -6.3000  -30.5070  -49.6342 H         1 UNK         0.0600 
    214 H214       -4.5511  -30.4716  -49.7849 H         1 UNK         0.0600 
    215 H215       -5.7288  -26.0702  -48.7604 H         1 UNK         0.3000 
    216 H216       -7.2419  -24.5072  -48.7106 H         1 UNK         0.0600 
    217 H217       -9.6227  -24.9208  -48.3894 H         1 UNK         0.0600 
    218 H218       -8.7207  -26.0964  -47.4490 H         1 UNK         0.0600 
    219 H219       -9.4834  -26.5720  -48.9671 H         1 UNK         0.0600 
    220 H220       -6.3036  -25.9173  -51.3780 H         1 UNK         0.3000 
    221 H221       -8.1073  -24.7592  -53.3440 H         1 UNK         0.0600 
    222 H222       -5.2148  -25.7061  -53.6775 H         1 UNK         0.0600 
    223 H223       -6.6269  -26.7571  -53.7961 H         1 UNK         0.0600 
    224 H224       -6.3970  -25.4531  -54.9509 H         1 UNK         0.0600 
    225 H225       -5.7799  -23.4701  -51.2599 H         1 UNK         0.3000 
    226 H226       -5.0032  -21.4820  -50.7888 H         1 UNK         0.0600 
    227 H227       -6.0784  -19.4577  -51.6225 H         1 UNK         0.0600 
    228 H228       -6.7626  -20.3111  -52.9953 H         1 UNK         0.0600 
    229 H229       -7.3050  -20.6816  -51.3586 H         1 UNK         0.0600 
    230 H230       -4.7291  -22.3089  -54.1676 H         1 UNK         0.3000 
    231 H231       -3.1467  -22.1113  -55.7196 H         1 UNK         0.0600 
    232 H232       -1.6990  -23.2861  -54.1300 H         1 UNK         0.0600 
    233 H233       -1.2530  -21.7935  -53.3244 H         1 UNK         0.0600 
    234 H234       -0.7366  -22.0952  -54.9841 H         1 UNK         0.0600 
    235 H235       -0.9564  -19.9267  -54.2416 H         1 UNK         0.3000 
    236 H236       -1.4008  -17.8345  -56.1097 H         1 UNK         0.0600 
    237 H237        0.2829  -16.6164  -54.7094 H         1 UNK         0.0600 
    238 H238        0.1651  -17.8620  -53.4761 H         1 UNK         0.0600 
    239 H239        0.7992  -18.2553  -55.0720 H         1 UNK         0.0600 
    240 H240       -2.9481  -18.4717  -53.0384 H         1 UNK         0.3000 
    241 H241       -4.1197  -15.7547  -52.8476 H         1 UNK         0.0600 
    242 H242       -6.5348  -18.0546  -55.0086 H         1 UNK         0.3800 
    243 H243       -4.8287  -18.3910  -54.8938 H         1 UNK         0.3800 
    244 H244       -5.4178  -17.0594  -50.8899 H         1 UNK         0.0800 
    245 H245       -4.1108  -18.1759  -51.0147 H         1 UNK         0.0800 
    246 H246       -2.0534  -15.4255  -51.9820 H         1 UNK         0.0800 
    247 H247       -1.6593  -14.5722  -50.5321 H         1 UNK         0.0800 
@<TRIPOS>BOND
     1    1    2 1    
     2    1  127 1    
     3    1  128 1    
     4    1  129 1    
     5    2    3 2    
     6    2    4 am   BACKBONE|DICT|INTERRES
     7    4    5 1    
     8    4  130 1    
     9    5    6 1    
    10    5   65 1    
    11    5  131 1    
    12    6    7 1    
    13    6  132 1    
    14    6  133 1    
    15    7    8 1    
    16    8    9 1    
    17    8  134 1    
    18    8  135 1    
    19    9   10 ar   
    20    9   14 ar   
    21   10   11 ar   
    22   10  136 1    
    23   11   12 ar   
    24   11  126 1    
    25   12   13 ar   
    26   12  137 1    
    27   13   14 ar   
    28   13   15 1    
    29   14  138 1    
    30   15   16 1    
    31   15  139 1    
    32   15  140 1    
    33   16   17 1    
    34   17   18 1    
    35   17  141 1    
    36   17  142 1    
    37   18   19 1    
    38   18   67 1    
    39   18  143 1    
    40   19   20 am   BACKBONE|DICT|INTERRES
    41   19  144 1    
    42   20   21 2    
    43   20   22 1    
    44   22   23 1    
    45   22   24 1    
    46   22  145 1    
    47   23  146 1    
    48   23  147 1    
    49   23  148 1    
    50   24   25 am   BACKBONE|DICT|INTERRES
    51   24  149 1    
    52   25   26 2    
    53   25   27 1    
    54   27   28 1    
    55   27   29 1    
    56   27  150 1    
    57   28  151 1    
    58   28  152 1    
    59   28  153 1    
    60   29   30 am   BACKBONE|DICT|INTERRES
    61   29  154 1    
    62   30   31 2    
    63   30   32 1    
    64   32   33 1    
    65   32   34 1    
    66   32  155 1    
    67   33  156 1    
    68   33  157 1    
    69   33  158 1    
    70   34   35 am   BACKBONE|DICT|INTERRES
    71   34  159 1    
    72   35   36 2    
    73   35   37 1    
    74   37   38 1    
    75   37   39 1    
    76   37  160 1    
    77   38  161 1    
    78   38  162 1    
    79   38  163 1    
    80   39   40 am   BACKBONE|DICT|INTERRES
    81   39  164 1    
    82   40   41 2    
    83   40   42 1    
    84   42   43 1    
    85   42   44 1    
    86   42  165 1    
    87   43  166 1    
    88   43  167 1    
    89   43  168 1    
    90   44   45 am   BACKBONE|DICT|INTERRES
    91   44  169 1    
    92   45   46 2    
    93   45   47 1    
    94   47   48 1    
    95   47   49 1    
    96   47  170 1    
    97   48  171 1    
    98   48  172 1    
    99   48  173 1    
   100   49   50 am   BACKBONE|DICT|INTERRES
   101   49  174 1    
   102   50   51 2    
   103   50   52 1    
   104   52   53 1    
   105   52   54 1    
   106   52  175 1    
   107   53  176 1    
   108   53  177 1    
   109   53  178 1    
   110   54   55 am   BACKBONE|DICT|INTERRES
   111   54  179 1    
   112   55   56 2    
   113   55   57 1    
   114   57   58 1    
   115   57   59 1    
   116   57  180 1    
   117   58  181 1    
   118   58  182 1    
   119   58  183 1    
   120   59   60 am   BACKBONE|DICT|INTERRES
   121   59  184 1    
   122   60   61 2    
   123   60   62 1    
   124   62   63 1    
   125   62   64 1    
   126   62  185 1    
   127   63  186 1    
   128   63  187 1    
   129   63  188 1    
   130   64   65 am   BACKBONE|DICT|INTERRES
   131   64  189 1    
   132   65   66 2    
   133   67   68 2    
   134   67   69 am   BACKBONE|DICT|INTERRES
   135   69   70 1    
   136   69  190 1    
   137   70   71 1    
   138   70   72 1    
   139   70  191 1    
   140   71  192 1    
   141   71  193 1    
   142   71  194 1    
   143   72   73 2    
   144   72   74 am   BACKBONE|DICT|INTERRES
   145   74   75 1    
   146   74  195 1    
   147   75   76 1    
   148   75   77 1    
   149   75  196 1    
   150   76  197 1    
   151   76  198 1    
   152   76  199 1    
   153   77   78 2    
   154   77   79 am   BACKBONE|DICT|INTERRES
   155   79   80 1    
   156   79  200 1    
   157   80   81 1    
   158   80   82 1    
   159   80  201 1    
   160   81  202 1    
   161   81  203 1    
   162   81  204 1    
   163   82   83 2    
   164   82   84 am   BACKBONE|DICT|INTERRES
   165   84   85 1    
   166   84  205 1    
   167   85   86 1    
   168   85   87 1    
   169   85  206 1    
   170   86  207 1    
   171   86  208 1    
   172   86  209 1    
   173   87   88 2    
   174   87   89 am   BACKBONE|DICT|INTERRES
   175   89   90 1    
   176   89  210 1    
   177   90   91 1    
   178   90   92 1    
   179   90  211 1    
   180   91  212 1    
   181   91  213 1    
   182   91  214 1    
   183   92   93 2    
   184   92   94 am   BACKBONE|DICT|INTERRES
   185   94   95 1    
   186   94  215 1    
   187   95   96 1    
   188   95   97 1    
   189   95  216 1    
   190   96  217 1    
   191   96  218 1    
   192   96  219 1    
   193   97   98 2    
   194   97   99 am   BACKBONE|DICT|INTERRES
   195   99  100 1    
   196   99  220 1    
   197  100  101 1    
   198  100  102 1    
   199  100  221 1    
   200  101  222 1    
   201  101  223 1    
   202  101  224 1    
   203  102  103 2    
   204  102  104 am   BACKBONE|DICT|INTERRES
   205  104  105 1    
   206  104  225 1    
   207  105  106 1    
   208  105  107 1    
   209  105  226 1    
   210  106  227 1    
   211  106  228 1    
   212  106  229 1    
   213  107  108 2    
   214  107  109 am   BACKBONE|DICT|INTERRES
   215  109  110 1    
   216  109  230 1    
   217  110  111 1    
   218  110  112 1    
   219  110  231 1    
   220  111  232 1    
   221  111  233 1    
   222  111  234 1    
   223  112  113 2    
   224  112  114 am   BACKBONE|DICT|INTERRES
   225  114  115 1    
   226  114  235 1    
   227  115  116 1    
   228  115  117 1    
   229  115  236 1    
   230  116  237 1    
   231  116  238 1    
   232  116  239 1    
   233  117  118 2    
   234  117  119 am   BACKBONE|DICT|INTERRES
   235  119  120 1    
   236  119  240 1    
   237  120  121 1    
   238  120  124 1    
   239  120  241 1    
   240  121  122 am   BACKBONE|DICT|INTERRES
   241  121  123 2    
   242  122  242 1    
   243  122  243 1    
   244  124  125 1    
   245  124  244 1    
   246  124  245 1    
   247  125  126 1    
   248  126  246 1    
   249  126  247 1    
@<TRIPOS>SUBSTRUCTURE
     1 UNK         1 GROUP             0       ****    0 ROOT    
