@<TRIPOS>MOLECULE
3R540
247   249    1
SMALL
USER_CHARGES


@<TRIPOS>ATOM
      1 CA          4.9712  -12.9815  -48.5358 C.3       0 UNK        -0.1800 
      2 C           3.4601  -12.9879  -48.7186 C.2       0 UNK         0.5000 
      3 O           2.8268  -11.9413  -48.5815 O.2       0 UNK        -0.5000 
      4 N           2.8894  -14.1575  -49.0395 N.am      1 UNK        -0.5000 
      5 CA          1.4621  -14.3898  -49.2896 C.3       1 UNK         0.1400 
      6 C6          0.9478  -13.6722  -50.5753 C.3       23 UNK        -0.0398 
      7 S7          1.4303  -14.5900  -52.0768 S.3       23 UNK        -0.2404 
      8 C8         -0.1313  -15.4316  -52.5073 C.3       23 UNK        -0.0205 
      9 C9         -0.6260  -16.3334  -51.3842 C.ar      23 UNK        -0.0193 
     10 C10        -1.6057  -15.8796  -50.4960 C.ar      23 UNK        -0.1150 
     11 C11        -2.0227  -16.6780  -49.4298 C.ar      23 UNK        -0.0193 
     12 C12        -1.4969  -17.9666  -49.2914 C.ar      23 UNK        -0.1150 
     13 C13        -0.5285  -18.4406  -50.1810 C.ar      23 UNK        -0.0193 
     14 C14        -0.0875  -17.6118  -51.2172 C.ar      23 UNK        -0.1150 
     15 C15         0.0129  -19.8576  -50.0539 C.3       23 UNK        -0.0205 
     16 S16         1.4034  -20.0095  -48.8823 S.3       23 UNK        -0.2404 
     17 C17         0.5955  -20.0593  -47.2449 C.3       23 UNK        -0.0398 
     18 CA          0.1574  -21.4836  -46.8103 C.3       11 UNK         0.1400 
     19 N           0.1239  -21.6306  -45.3541 N.am      11 UNK        -0.5000 
     20 C          -0.1531  -22.7631  -44.6905 C.2       10 UNK         0.5000 
     21 O          -0.3254  -23.8558  -45.2300 O.2       10 UNK        -0.5000 
     22 CA         -0.3317  -22.6348  -43.1693 C.3       10 UNK         0.1400 
     23 CB          1.0239  -22.6854  -42.4490 C.3       10 UNK        -0.1800 
     24 N          -1.0384  -21.4014  -42.8202 N.am      10 UNK        -0.5000 
     25 C          -2.3450  -21.1986  -43.0403 C.2       9 UNK         0.5000 
     26 O          -3.0975  -22.0548  -43.5065 O.2       9 UNK        -0.5000 
     27 CA         -2.8958  -19.7967  -42.7159 C.3       9 UNK         0.1400 
     28 CB         -3.2449  -19.6850  -41.2244 C.3       9 UNK        -0.1800 
     29 N          -1.9766  -18.7158  -43.0809 N.am      9 UNK        -0.5000 
     30 C          -1.6517  -18.3961  -44.3416 C.2       8 UNK         0.5000 
     31 O          -2.0895  -18.9844  -45.3279 O.2       8 UNK        -0.5000 
     32 CA         -0.6357  -17.2541  -44.5368 C.3       8 UNK         0.1400 
     33 CB         -1.3508  -15.9006  -44.4203 C.3       8 UNK        -0.1800 
     34 N           0.5118  -17.2691  -43.6208 N.am      8 UNK        -0.5000 
     35 C           1.2727  -18.3305  -43.3118 C.2       7 UNK         0.5000 
     36 O           1.0661  -19.4698  -43.7312 O.2       7 UNK        -0.5000 
     37 CA          2.4705  -18.0536  -42.3844 C.3       7 UNK         0.1400 
     38 CB          3.2775  -19.3199  -42.0309 C.3       7 UNK        -0.1800 
     39 N           3.3430  -17.0130  -42.9275 N.am      7 UNK        -0.5000 
     40 C           4.0033  -17.0195  -44.0967 C.2       6 UNK         0.5000 
     41 O           4.0180  -17.9723  -44.8764 O.2       6 UNK        -0.5000 
     42 CA          4.7759  -15.7391  -44.4705 C.3       6 UNK         0.1400 
     43 CB          4.1236  -15.0553  -45.6804 C.3       6 UNK        -0.1800 
     44 N           4.8370  -14.7763  -43.3697 N.am      6 UNK        -0.5000 
     45 C           5.7483  -14.7891  -42.3875 C.2       5 UNK         0.5000 
     46 O           6.6969  -15.5726  -42.3430 O.2       5 UNK        -0.5000 
     47 CA          5.5507  -13.7674  -41.2499 C.3       5 UNK         0.1400 
     48 CB          6.3784  -12.5010  -41.5167 C.3       5 UNK        -0.1800 
     49 N           4.1486  -13.3871  -41.0527 N.am      5 UNK        -0.5000 
     50 C           3.1876  -14.2023  -40.5933 C.2       4 UNK         0.5000 
     51 O           3.3816  -15.3715  -40.2632 O.2       4 UNK        -0.5000 
     52 CA          1.7585  -13.6308  -40.5623 C.3       4 UNK         0.1400 
     53 CB          1.5066  -12.8679  -39.2533 C.3       4 UNK        -0.1800 
     54 N           1.4852  -12.7507  -41.7016 N.am      4 UNK        -0.5000 
     55 C           1.4070  -13.1648  -42.9723 C.2       3 UNK         0.5000 
     56 O           1.5315  -14.3437  -43.3167 O.2       3 UNK        -0.5000 
     57 CA          1.2098  -12.0716  -44.0297 C.3       3 UNK         0.1400 
     58 CB          2.5655  -11.5353  -44.5184 C.3       3 UNK        -0.1800 
     59 N           0.4725  -12.6189  -45.1617 N.am      3 UNK        -0.5000 
     60 C          -0.4870  -11.9838  -45.8408 C.2       2 UNK         0.5000 
     61 O          -0.8154  -10.8158  -45.6229 O.2       2 UNK        -0.5000 
     62 CA         -1.1862  -12.7908  -46.9548 C.3       2 UNK         0.1400 
     63 CB         -2.3961  -12.0535  -47.5566 C.3       2 UNK        -0.1800 
     64 N          -0.2670  -13.1330  -48.0384 N.am      2 UNK        -0.5000 
     65 C           0.6263  -14.1307  -48.0150 C.2       1 UNK         0.5000 
     66 O           0.7932  -14.8593  -47.0350 O.2       1 UNK        -0.5000 
     67 C          -1.1954  -21.8838  -47.4326 C.2       11 UNK         0.5000 
     68 O          -1.2211  -22.7199  -48.3344 O.2       11 UNK        -0.5000 
     69 N          -2.2932  -21.3198  -46.9074 N.am      12 UNK        -0.5000 
     70 CA         -3.6662  -21.6035  -47.3235 C.3       12 UNK         0.1400 
     71 CB         -4.6419  -20.7233  -46.5302 C.3       12 UNK        -0.1800 
     72 C          -4.0516  -23.0830  -47.1727 C.2       12 UNK         0.5000 
     73 O          -4.6423  -23.6485  -48.0927 O.2       12 UNK        -0.5000 
     74 N          -3.6843  -23.6851  -46.0328 N.am      13 UNK        -0.5000 
     75 CA         -3.9018  -25.1007  -45.7376 C.3       13 UNK         0.1400 
     76 CB         -3.5392  -25.3800  -44.2712 C.3       13 UNK        -0.1800 
     77 C          -3.1243  -26.0357  -46.6823 C.2       13 UNK         0.5000 
     78 O          -3.6801  -27.0386  -47.1312 O.2       13 UNK        -0.5000 
     79 N          -1.8660  -25.6838  -46.9796 N.am      14 UNK        -0.5000 
     80 CA         -0.9957  -26.4213  -47.8942 C.3       14 UNK         0.1400 
     81 CB          0.4528  -25.9379  -47.7228 C.3       14 UNK        -0.1800 
     82 C          -1.4391  -26.3028  -49.3634 C.2       14 UNK         0.5000 
     83 O          -1.4644  -27.3094  -50.0728 O.2       14 UNK        -0.5000 
     84 N          -1.7736  -25.0794  -49.7946 N.am      15 UNK        -0.5000 
     85 CA         -2.1602  -24.7663  -51.1704 C.3       15 UNK         0.1400 
     86 CB         -1.9562  -23.2659  -51.4178 C.3       15 UNK        -0.1800 
     87 C          -3.6057  -25.1603  -51.5192 C.2       15 UNK         0.5000 
     88 O          -3.9293  -25.2642  -52.7054 O.2       15 UNK        -0.5000 
     89 N          -4.4571  -25.3102  -50.4932 N.am      16 UNK        -0.5000 
     90 CA         -5.8743  -25.6962  -50.5381 C.3       16 UNK         0.1400 
     91 CB         -6.0090  -27.1535  -51.0251 C.3       16 UNK        -0.1800 
     92 C          -6.7731  -24.7286  -51.3416 C.2       16 UNK         0.5000 
     93 O          -7.8664  -25.1157  -51.7568 O.2       16 UNK        -0.5000 
     94 N          -6.2788  -23.5020  -51.5737 N.am      17 UNK        -0.5000 
     95 CA         -6.8226  -22.4719  -52.4702 C.3       17 UNK         0.1400 
     96 CB         -8.1756  -21.9424  -51.9523 C.3       17 UNK        -0.1800 
     97 C          -6.8718  -22.9100  -53.9524 C.2       17 UNK         0.5000 
     98 O          -7.6501  -22.3547  -54.7301 O.2       17 UNK        -0.5000 
     99 N          -6.0405  -23.8963  -54.3156 N.am      18 UNK        -0.5000 
    100 CA        -5.9178  -24.4459  -55.6621 C.3       18 UNK         0.1400 
    101 CB        -6.1330  -25.9671  -55.6050 C.3       18 UNK        -0.1800 
    102 C         -4.5402  -24.1129  -56.2503 C.2       18 UNK         0.5000 
    103 O         -4.4617  -23.6683  -57.3961 O.2       18 UNK        -0.5000 
    104 N         -3.4792  -24.3193  -55.4572 N.am      19 UNK        -0.5000 
    105 CA        -2.0923  -24.0784  -55.8637 C.3       19 UNK         0.1400 
    106 CB        -1.1782  -25.0462  -55.0976 C.3       19 UNK        -0.1800 
    107 C         -1.6366  -22.6222  -55.6450 C.2       19 UNK         0.5000 
    108 O         -0.5719  -22.2483  -56.1393 O.2       19 UNK        -0.5000 
    109 N         -2.4240  -21.8309  -54.9074 N.am      20 UNK        -0.5000 
    110 CA        -2.1535  -20.4364  -54.5729 C.3       20 UNK         0.1400 
    111 CB        -1.1721  -20.3536  -53.3920 C.3       20 UNK        -0.1800 
    112 C         -3.4744  -19.7208  -54.2546 C.2       20 UNK         0.5000 
    113 O         -4.5237  -20.3669  -54.2072 O.2       20 UNK        -0.5000 
    114 N         -3.3828  -18.3984  -54.0623 N.am      21 UNK        -0.5000 
    115 CA        -4.4955  -17.4576  -53.9320 C.3       21 UNK         0.1400 
    116 CB        -3.9368  -16.0301  -53.7961 C.3       21 UNK        -0.1800 
    117 C         -5.4967  -17.7786  -52.8061 C.2       21 UNK         0.5000 
    118 O         -6.6474  -18.1018  -53.1052 O.2       21 UNK        -0.5000 
    119 N         -5.0650  -17.6429  -51.5434 N.am      22 UNK        -0.5000 
    120 CA        -5.9539  -17.7666  -50.3729 C.3       22 UNK         0.1400 
    121 C         -6.1421  -19.2175  -49.8412 C.2       22 UNK         0.5000 
    122 N         -5.3618  -20.1925  -50.2897 N.am      22 UNK        -0.7600 
    123 O         -7.0265  -19.4651  -49.0266 O.2       22 UNK        -0.5000 
    124 C124       -5.6217  -16.7192  -49.2722 C.3       23 UNK        -0.0398 
    125 S125       -4.3793  -17.2008  -48.0215 S.3       23 UNK        -0.2404 
    126 C126       -2.9720  -16.1108  -48.3846 C.3       23 UNK        -0.0205 
    127 H127        5.3790  -13.9918  -48.4941 H         1 UNK         0.0600 
    128 H128        5.2376  -12.4682  -47.6118 H         1 UNK         0.0600 
    129 H129        5.4450  -12.4558  -49.3647 H         1 UNK         0.0600 
    130 H130        3.4713  -14.9790  -49.1178 H         1 UNK         0.3000 
    131 H131        1.3649  -15.4650  -49.4489 H         1 UNK         0.0600 
    132 H132       -0.1351  -13.5624  -50.5882 H         1 UNK         0.0800 
    133 H133        1.3383  -12.6570  -50.6494 H         1 UNK         0.0800 
    134 H134       -0.8865  -14.6856  -52.7603 H         1 UNK         0.0800 
    135 H135        0.0235  -16.0239  -53.4102 H         1 UNK         0.0800 
    136 H136       -2.0166  -14.8867  -50.6110 H         1 UNK         0.1150 
    137 H137       -1.8424  -18.5945  -48.4831 H         1 UNK         0.1150 
    138 H138        0.6736  -17.9630  -51.8998 H         1 UNK         0.1150 
    139 H139       -0.7963  -20.5381  -49.7974 H         1 UNK         0.0800 
    140 H140        0.3746  -20.1952  -51.0253 H         1 UNK         0.0800 
    141 H141       -0.2213  -19.3425  -47.1959 H         1 UNK         0.0800 
    142 H142        1.3400  -19.6828  -46.5414 H         1 UNK         0.0800 
    143 H143        0.9046  -22.1959  -47.1669 H         1 UNK         0.0600 
    144 H144        0.2998  -20.7915  -44.8067 H         1 UNK         0.3000 
    145 H145       -0.9286  -23.4826  -42.8262 H         1 UNK         0.0600 
    146 H146        0.9035  -22.5854  -41.3703 H         1 UNK         0.0600 
    147 H147        1.5240  -23.6367  -42.6343 H         1 UNK         0.0600 
    148 H148        1.6936  -21.8956  -42.7885 H         1 UNK         0.0600 
    149 H149       -0.4676  -20.6221  -42.5231 H         1 UNK         0.3000 
    150 H150       -3.8155  -19.6642  -43.2899 H         1 UNK         0.0600 
    151 H151       -3.9445  -20.4677  -40.9280 H         1 UNK         0.0600 
    152 H152       -3.7163  -18.7279  -41.0005 H         1 UNK         0.0600 
    153 H153       -2.3598  -19.7798  -40.5942 H         1 UNK         0.0600 
    154 H154       -1.5632  -18.1885  -42.3263 H         1 UNK         0.3000 
    155 H155       -0.2368  -17.3414  -45.5494 H         1 UNK         0.0600 
    156 H156       -0.6885  -15.0876  -44.7072 H         1 UNK         0.0600 
    157 H157       -1.6908  -15.7099  -43.4018 H         1 UNK         0.0600 
    158 H158       -2.2237  -15.8557  -45.0723 H         1 UNK         0.0600 
    159 H159        0.8133  -16.3593  -43.2891 H         1 UNK         0.3000 
    160 H160        2.0590  -17.6573  -41.4551 H         1 UNK         0.0600 
    161 H161        3.6714  -19.8153  -42.9188 H         1 UNK         0.0600 
    162 H162        2.6535  -20.0412  -41.5027 H         1 UNK         0.0600 
    163 H163        4.1180  -19.0811  -41.3794 H         1 UNK         0.0600 
    164 H164        3.4103  -16.1784  -42.3607 H         1 UNK         0.3000 
    165 H165        5.7896  -16.0329  -44.7508 H         1 UNK         0.0600 
    166 H166        3.0835  -14.7935  -45.4856 H         1 UNK         0.0600 
    167 H167        4.6567  -14.1435  -45.9441 H         1 UNK         0.0600 
    168 H168        4.1360  -15.7075  -46.5544 H         1 UNK         0.0600 
    169 H169        4.0764  -14.1156  -43.3128 H         1 UNK         0.3000 
    170 H170        5.9117  -14.2264  -40.3270 H         1 UNK         0.0600 
    171 H171        7.4342  -12.7441  -41.6439 H         1 UNK         0.0600 
    172 H172        6.0487  -11.9870  -42.4205 H         1 UNK         0.0600 
    173 H173        6.3062  -11.7997  -40.6851 H         1 UNK         0.0600 
    174 H174        3.8979  -12.4407  -41.2979 H         1 UNK         0.3000 
    175 H175        1.0629  -14.4718  -40.6067 H         1 UNK         0.0600 
    176 H176        2.1589  -11.9989  -39.1592 H         1 UNK         0.0600 
    177 H177        0.4747  -12.5217  -39.1914 H         1 UNK         0.0600 
    178 H178        1.6855  -13.5080  -38.3883 H         1 UNK         0.0600 
    179 H179        1.3715  -11.7685  -41.4948 H         1 UNK         0.3000 
    180 H180        0.6444  -11.2568  -43.5725 H         1 UNK         0.0600 
    181 H181        3.1596  -12.3143  -44.9960 H         1 UNK         0.0600 
    182 H182        3.1521  -11.1303  -43.6929 H         1 UNK         0.0600 
    183 H183        2.4300  -10.7332  -45.2443 H         1 UNK         0.0600 
    184 H184        0.6948  -13.5795  -45.4075 H         1 UNK         0.3000 
    185 H185       -1.5599  -13.7121  -46.5051 H         1 UNK         0.0600 
    186 H186       -2.9040  -12.6680  -48.2997 H         1 UNK         0.0600 
    187 H187       -3.1277  -11.8090  -46.7854 H         1 UNK         0.0600 
    188 H188       -2.1020  -11.1206  -48.0392 H         1 UNK         0.0600 
    189 H189       -0.2926  -12.5239  -48.8422 H         1 UNK         0.3000 
    190 H190       -2.1842  -20.6023  -46.1935 H         1 UNK         0.3000 
    191 H191       -3.7414  -21.3412  -48.3793 H         1 UNK         0.0600 
    192 H192       -4.3981  -19.6691  -46.6372 H         1 UNK         0.0600 
    193 H193       -4.6273  -20.9573  -45.4659 H         1 UNK         0.0600 
    194 H194       -5.6648  -20.8578  -46.8836 H         1 UNK         0.0600 
    195 H195       -3.2364  -23.1316  -45.3107 H         1 UNK         0.3000 
    196 H196       -4.9660  -25.3073  -45.8689 H         1 UNK         0.0600 
    197 H197       -3.7170  -26.4256  -44.0170 H         1 UNK         0.0600 
    198 H198       -4.1410  -24.7733  -43.5942 H         1 UNK         0.0600 
    199 H199       -2.4898  -25.1658  -44.0675 H         1 UNK         0.0600 
    200 H200       -1.4666  -24.8625  -46.5353 H         1 UNK         0.3000 
    201 H201       -1.0322  -27.4776  -47.6194 H         1 UNK         0.0600 
    202 H202        0.8027  -26.0992  -46.7030 H         1 UNK         0.0600 
    203 H203        0.5523  -24.8745  -47.9441 H         1 UNK         0.0600 
    204 H204        1.1275  -26.4779  -48.3882 H         1 UNK         0.0600 
    205 H205       -1.6788  -24.2888  -49.1588 H         1 UNK         0.3000 
    206 H206       -1.5008  -25.3187  -51.8410 H         1 UNK         0.0600 
    207 H207       -0.9171  -22.9765  -51.2597 H         1 UNK         0.0600 
    208 H208       -2.2140  -23.0060  -52.4431 H         1 UNK         0.0600 
    209 H209       -2.5775  -22.6590  -50.7579 H         1 UNK         0.0600 
    210 H210       -4.1102  -25.0950  -49.5652 H         1 UNK         0.3000 
    211 H211       -6.2307  -25.6547  -49.5080 H         1 UNK         0.0600 
    212 H212       -5.7323  -27.2555  -52.0751 H         1 UNK         0.0600 
    213 H213       -7.0340  -27.5109  -50.9206 H         1 UNK         0.0600 
    214 H214       -5.3738  -27.8223  -50.4441 H         1 UNK         0.0600 
    215 H215       -5.3696  -23.3074  -51.1816 H         1 UNK         0.3000 
    216 H216       -6.1174  -21.6423  -52.4418 H         1 UNK         0.0600 
    217 H217       -8.1087  -21.6473  -50.9052 H         1 UNK         0.0600 
    218 H218       -8.9660  -22.6876  -52.0430 H         1 UNK         0.0600 
    219 H219       -8.4890  -21.0619  -52.5144 H         1 UNK         0.0600 
    220 H220       -5.4374  -24.3054  -53.6103 H         1 UNK         0.3000 
    221 H221       -6.6745  -24.0219  -56.3253 H         1 UNK         0.0600 
    222 H222       -5.4108  -26.4557  -54.9494 H         1 UNK         0.0600 
    223 H223       -7.1305  -26.2068  -55.2362 H         1 UNK         0.0600 
    224 H224       -6.0352  -26.4135  -56.5953 H         1 UNK         0.0600 
    225 H225       -3.6197  -24.7014  -54.5264 H         1 UNK         0.3000 
    226 H226       -1.9881  -24.2964  -56.9288 H         1 UNK         0.0600 
    227 H227       -1.4947  -26.0811  -55.2290 H         1 UNK         0.0600 
    228 H228       -0.1490  -24.9734  -55.4512 H         1 UNK         0.0600 
    229 H229       -1.1714  -24.8276  -54.0316 H         1 UNK         0.0600 
    230 H230       -3.3282  -22.1687  -54.6047 H         1 UNK         0.3000 
    231 H231       -1.7130  -19.9474  -55.4443 H         1 UNK         0.0600 
    232 H232       -0.8007  -19.3367  -53.2771 H         1 UNK         0.0600 
    233 H233       -0.3031  -20.9951  -53.5383 H         1 UNK         0.0600 
    234 H234       -1.6480  -20.6373  -52.4536 H         1 UNK         0.0600 
    235 H235       -2.4658  -17.9790  -54.0981 H         1 UNK         0.3000 
    236 H236       -5.0529  -17.5002  -54.8700 H         1 UNK         0.0600 
    237 H237       -3.3636  -15.7460  -54.6788 H         1 UNK         0.0600 
    238 H238       -4.7423  -15.3026  -53.6874 H         1 UNK         0.0600 
    239 H239       -3.2842  -15.9286  -52.9292 H         1 UNK         0.0600 
    240 H240       -4.1017  -17.4025  -51.3607 H         1 UNK         0.3000 
    241 H241       -6.9544  -17.4889  -50.7113 H         1 UNK         0.0600 
    242 H242       -4.6472  -19.9967  -50.9707 H         1 UNK         0.3800 
    243 H243       -5.5087  -21.1233  -49.9405 H         1 UNK         0.3800 
    244 H244       -5.3417  -15.7694  -49.7291 H         1 UNK         0.0800 
    245 H245       -6.5347  -16.5029  -48.7155 H         1 UNK         0.0800 
    246 H246       -2.4027  -15.9736  -47.4653 H         1 UNK         0.0800 
    247 H247       -3.3339  -15.1214  -48.6662 H         1 UNK         0.0800 
@<TRIPOS>BOND
     1    1    2 1    
     2    1  127 1    
     3    1  128 1    
     4    1  129 1    
     5    2    3 2    
     6    2    4 am   BACKBONE|DICT|INTERRES
     7    4    5 1    
     8    4  130 1    
     9    5    6 1    
    10    5   65 1    
    11    5  131 1    
    12    6    7 1    
    13    6  132 1    
    14    6  133 1    
    15    7    8 1    
    16    8    9 1    
    17    8  134 1    
    18    8  135 1    
    19    9   10 ar   
    20    9   14 ar   
    21   10   11 ar   
    22   10  136 1    
    23   11   12 ar   
    24   11  126 1    
    25   12   13 ar   
    26   12  137 1    
    27   13   14 ar   
    28   13   15 1    
    29   14  138 1    
    30   15   16 1    
    31   15  139 1    
    32   15  140 1    
    33   16   17 1    
    34   17   18 1    
    35   17  141 1    
    36   17  142 1    
    37   18   19 1    
    38   18   67 1    
    39   18  143 1    
    40   19   20 am   BACKBONE|DICT|INTERRES
    41   19  144 1    
    42   20   21 2    
    43   20   22 1    
    44   22   23 1    
    45   22   24 1    
    46   22  145 1    
    47   23  146 1    
    48   23  147 1    
    49   23  148 1    
    50   24   25 am   BACKBONE|DICT|INTERRES
    51   24  149 1    
    52   25   26 2    
    53   25   27 1    
    54   27   28 1    
    55   27   29 1    
    56   27  150 1    
    57   28  151 1    
    58   28  152 1    
    59   28  153 1    
    60   29   30 am   BACKBONE|DICT|INTERRES
    61   29  154 1    
    62   30   31 2    
    63   30   32 1    
    64   32   33 1    
    65   32   34 1    
    66   32  155 1    
    67   33  156 1    
    68   33  157 1    
    69   33  158 1    
    70   34   35 am   BACKBONE|DICT|INTERRES
    71   34  159 1    
    72   35   36 2    
    73   35   37 1    
    74   37   38 1    
    75   37   39 1    
    76   37  160 1    
    77   38  161 1    
    78   38  162 1    
    79   38  163 1    
    80   39   40 am   BACKBONE|DICT|INTERRES
    81   39  164 1    
    82   40   41 2    
    83   40   42 1    
    84   42   43 1    
    85   42   44 1    
    86   42  165 1    
    87   43  166 1    
    88   43  167 1    
    89   43  168 1    
    90   44   45 am   BACKBONE|DICT|INTERRES
    91   44  169 1    
    92   45   46 2    
    93   45   47 1    
    94   47   48 1    
    95   47   49 1    
    96   47  170 1    
    97   48  171 1    
    98   48  172 1    
    99   48  173 1    
   100   49   50 am   BACKBONE|DICT|INTERRES
   101   49  174 1    
   102   50   51 2    
   103   50   52 1    
   104   52   53 1    
   105   52   54 1    
   106   52  175 1    
   107   53  176 1    
   108   53  177 1    
   109   53  178 1    
   110   54   55 am   BACKBONE|DICT|INTERRES
   111   54  179 1    
   112   55   56 2    
   113   55   57 1    
   114   57   58 1    
   115   57   59 1    
   116   57  180 1    
   117   58  181 1    
   118   58  182 1    
   119   58  183 1    
   120   59   60 am   BACKBONE|DICT|INTERRES
   121   59  184 1    
   122   60   61 2    
   123   60   62 1    
   124   62   63 1    
   125   62   64 1    
   126   62  185 1    
   127   63  186 1    
   128   63  187 1    
   129   63  188 1    
   130   64   65 am   BACKBONE|DICT|INTERRES
   131   64  189 1    
   132   65   66 2    
   133   67   68 2    
   134   67   69 am   BACKBONE|DICT|INTERRES
   135   69   70 1    
   136   69  190 1    
   137   70   71 1    
   138   70   72 1    
   139   70  191 1    
   140   71  192 1    
   141   71  193 1    
   142   71  194 1    
   143   72   73 2    
   144   72   74 am   BACKBONE|DICT|INTERRES
   145   74   75 1    
   146   74  195 1    
   147   75   76 1    
   148   75   77 1    
   149   75  196 1    
   150   76  197 1    
   151   76  198 1    
   152   76  199 1    
   153   77   78 2    
   154   77   79 am   BACKBONE|DICT|INTERRES
   155   79   80 1    
   156   79  200 1    
   157   80   81 1    
   158   80   82 1    
   159   80  201 1    
   160   81  202 1    
   161   81  203 1    
   162   81  204 1    
   163   82   83 2    
   164   82   84 am   BACKBONE|DICT|INTERRES
   165   84   85 1    
   166   84  205 1    
   167   85   86 1    
   168   85   87 1    
   169   85  206 1    
   170   86  207 1    
   171   86  208 1    
   172   86  209 1    
   173   87   88 2    
   174   87   89 am   BACKBONE|DICT|INTERRES
   175   89   90 1    
   176   89  210 1    
   177   90   91 1    
   178   90   92 1    
   179   90  211 1    
   180   91  212 1    
   181   91  213 1    
   182   91  214 1    
   183   92   93 2    
   184   92   94 am   BACKBONE|DICT|INTERRES
   185   94   95 1    
   186   94  215 1    
   187   95   96 1    
   188   95   97 1    
   189   95  216 1    
   190   96  217 1    
   191   96  218 1    
   192   96  219 1    
   193   97   98 2    
   194   97   99 am   BACKBONE|DICT|INTERRES
   195   99  100 1    
   196   99  220 1    
   197  100  101 1    
   198  100  102 1    
   199  100  221 1    
   200  101  222 1    
   201  101  223 1    
   202  101  224 1    
   203  102  103 2    
   204  102  104 am   BACKBONE|DICT|INTERRES
   205  104  105 1    
   206  104  225 1    
   207  105  106 1    
   208  105  107 1    
   209  105  226 1    
   210  106  227 1    
   211  106  228 1    
   212  106  229 1    
   213  107  108 2    
   214  107  109 am   BACKBONE|DICT|INTERRES
   215  109  110 1    
   216  109  230 1    
   217  110  111 1    
   218  110  112 1    
   219  110  231 1    
   220  111  232 1    
   221  111  233 1    
   222  111  234 1    
   223  112  113 2    
   224  112  114 am   BACKBONE|DICT|INTERRES
   225  114  115 1    
   226  114  235 1    
   227  115  116 1    
   228  115  117 1    
   229  115  236 1    
   230  116  237 1    
   231  116  238 1    
   232  116  239 1    
   233  117  118 2    
   234  117  119 am   BACKBONE|DICT|INTERRES
   235  119  120 1    
   236  119  240 1    
   237  120  121 1    
   238  120  124 1    
   239  120  241 1    
   240  121  122 am   BACKBONE|DICT|INTERRES
   241  121  123 2    
   242  122  242 1    
   243  122  243 1    
   244  124  125 1    
   245  124  244 1    
   246  124  245 1    
   247  125  126 1    
   248  126  246 1    
   249  126  247 1    
@<TRIPOS>SUBSTRUCTURE
     1 UNK         1 GROUP             0       ****    0 ROOT    
