@<TRIPOS>MOLECULE
3R540
247   249    1
SMALL
USER_CHARGES


@<TRIPOS>ATOM
      1 CA          3.4421  -12.9741  -47.3291 C.3       0 UNK        -0.1800 
      2 C           2.6052  -14.1445  -47.8235 C.2       0 UNK         0.5000 
      3 O           2.1660  -14.9688  -47.0243 O.2       0 UNK        -0.5000 
      4 N           2.3819  -14.2140  -49.1425 N.am      1 UNK        -0.5000 
      5 CA          1.6364  -15.2862  -49.8199 C.3       1 UNK         0.1400 
      6 C6          1.8681  -15.2805  -51.3530 C.3       23 UNK        -0.0398 
      7 S7          3.6330  -15.2964  -51.8323 S.3       23 UNK        -0.2404 
      8 C8          3.7258  -16.7185  -52.9834 C.3       23 UNK        -0.0205 
      9 C9          3.5570  -18.1110  -52.3686 C.ar      23 UNK        -0.0193 
     10 C10         3.4878  -19.2166  -53.2234 C.ar      23 UNK        -0.1150 
     11 C11         3.3595  -20.5132  -52.7140 C.ar      23 UNK        -0.0193 
     12 C12         3.2582  -20.7018  -51.3329 C.ar      23 UNK        -0.1150 
     13 C13         3.3250  -19.6107  -50.4645 C.ar      23 UNK        -0.0193 
     14 C14         3.5023  -18.3281  -50.9873 C.ar      23 UNK        -0.1150 
     15 C15         3.2529  -19.8163  -48.9591 C.3       23 UNK        -0.0205 
     16 S16         1.9780  -18.7802  -48.1712 S.3       23 UNK        -0.2404 
     17 C17         0.4130  -19.5007  -48.7834 C.3       23 UNK        -0.0398 
     18 CA          0.1877  -20.9730  -48.3576 C.3       11 UNK         0.1400 
     19 N           0.5713  -21.2254  -46.9672 N.am      11 UNK        -0.5000 
     20 C           0.7667  -22.4357  -46.4326 C.2       10 UNK         0.5000 
     21 O           0.6538  -23.4849  -47.0645 O.2       10 UNK        -0.5000 
     22 CA          1.0987  -22.4737  -44.9318 C.3       10 UNK         0.1400 
     23 CB          2.6110  -22.3316  -44.7056 C.3       10 UNK        -0.1800 
     24 N           0.3849  -21.4250  -44.1998 N.am      10 UNK        -0.5000 
     25 C          -0.9303  -21.4699  -43.9396 C.2       9 UNK         0.5000 
     26 O          -1.6450  -22.4271  -44.2382 O.2       9 UNK        -0.5000 
     27 CA         -1.5657  -20.2285  -43.2810 C.3       9 UNK         0.1400 
     28 CB         -1.4817  -20.3307  -41.7515 C.3       9 UNK        -0.1800 
     29 N          -0.9704  -18.9644  -43.7228 N.am      9 UNK        -0.5000 
     30 C          -1.0011  -18.5190  -44.9877 C.2       8 UNK         0.5000 
     31 O          -1.5972  -19.0998  -45.8925 O.2       8 UNK        -0.5000 
     32 CA         -0.2019  -17.2491  -45.3280 C.3       8 UNK         0.1400 
     33 CB         -1.1122  -16.0138  -45.3443 C.3       8 UNK        -0.1800 
     34 N           0.9446  -16.9943  -44.4572 N.am      8 UNK        -0.5000 
     35 C           1.9970  -17.8059  -44.2816 C.2       7 UNK         0.5000 
     36 O           2.0580  -18.9554  -44.7184 O.2       7 UNK        -0.5000 
     37 CA          3.1600  -17.2472  -43.4481 C.3       7 UNK         0.1400 
     38 CB          3.9701  -16.2268  -44.2638 C.3       7 UNK        -0.1800 
     39 N           2.6542  -16.6029  -42.2387 N.am      7 UNK        -0.5000 
     40 C           2.6967  -17.1353  -41.0113 C.2       6 UNK         0.5000 
     41 O           3.2648  -18.1942  -40.7410 O.2       6 UNK        -0.5000 
     42 CA          1.9690  -16.3649  -39.8893 C.3       6 UNK         0.1400 
     43 CB          2.9453  -15.4273  -39.1627 C.3       6 UNK        -0.1800 
     44 N           0.8142  -15.5865  -40.3463 N.am      6 UNK        -0.5000 
     45 C          -0.2767  -16.0988  -40.9325 C.2       5 UNK         0.5000 
     46 O          -0.4364  -17.2987  -41.1553 O.2       5 UNK        -0.5000 
     47 CA         -1.3602  -15.1022  -41.3853 C.3       5 UNK         0.1400 
     48 CB         -2.3126  -14.7916  -40.2210 C.3       5 UNK        -0.1800 
     49 N          -0.8916  -13.8358  -41.9667 N.am      5 UNK        -0.5000 
     50 C           0.1028  -13.6411  -42.8448 C.2       4 UNK         0.5000 
     51 O           0.8989  -14.5130  -43.1938 O.2       4 UNK        -0.5000 
     52 CA          0.1809  -12.2409  -43.4804 C.3       4 UNK         0.1400 
     53 CB          1.5590  -11.9676  -44.1070 C.3       4 UNK        -0.1800 
     54 N          -0.8391  -12.0921  -44.5178 N.am      4 UNK        -0.5000 
     55 C          -2.1471  -11.9000  -44.3160 C.2       3 UNK         0.5000 
     56 O          -2.6457  -11.7880  -43.1949 O.2       3 UNK        -0.5000 
     57 CA         -3.0635  -11.8248  -45.5561 C.3       3 UNK         0.1400 
     58 CB         -3.1375  -10.3835  -46.0949 C.3       3 UNK        -0.1800 
     59 N          -2.7677  -12.7816  -46.6364 N.am      3 UNK        -0.5000 
     60 C          -1.6961  -12.8443  -47.4385 C.2       2 UNK         0.5000 
     61 O          -0.7103  -12.1077  -47.3367 O.2       2 UNK        -0.5000 
     62 CA         -1.7367  -13.9095  -48.5448 C.3       2 UNK         0.1400 
     63 CB         -2.6047  -13.4536  -49.7292 C.3       2 UNK        -0.1800 
     64 N          -0.3746  -14.1396  -48.9997 N.am      2 UNK        -0.5000 
     65 C           0.1223  -15.2740  -49.5034 C.2       1 UNK         0.5000 
     66 O          -0.5542  -16.2798  -49.7245 O.2       1 UNK        -0.5000 
     67 C          -1.2632  -21.4254  -48.6261 C.2       11 UNK         0.5000 
     68 O          -1.5466  -21.9564  -49.6994 O.2       11 UNK        -0.5000 
     69 N          -2.1400  -21.2516  -47.6268 N.am      12 UNK        -0.5000 
     70 CA         -3.5088  -21.7630  -47.5940 C.3       12 UNK         0.1400 
     71 CB         -4.2515  -21.1586  -46.3931 C.3       12 UNK        -0.1800 
     72 C          -3.5624  -23.2974  -47.5456 C.2       12 UNK         0.5000 
     73 O          -4.3675  -23.8980  -48.2568 O.2       12 UNK        -0.5000 
     74 N          -2.6763  -23.9096  -46.7466 N.am      13 UNK        -0.5000 
     75 CA         -2.5029  -25.3614  -46.6754 C.3       13 UNK         0.1400 
     76 CB         -1.5858  -25.7217  -45.4974 C.3       13 UNK        -0.1800 
     77 C          -1.9746  -25.9544  -47.9956 C.2       13 UNK         0.5000 
     78 O          -2.4438  -27.0141  -48.4097 O.2       13 UNK        -0.5000 
     79 N          -1.0506  -25.2397  -48.6548 N.am      14 UNK        -0.5000 
     80 CA         -0.5269  -25.5718  -49.9813 C.3       14 UNK         0.1400 
     81 CB          0.6991  -24.6968  -50.2831 C.3       14 UNK        -0.1800 
     82 C          -1.5862  -25.4406  -51.0941 C.2       14 UNK         0.5000 
     83 O          -1.6094  -26.2677  -52.0055 O.2       14 UNK        -0.5000 
     84 N          -2.4582  -24.4265  -50.9896 N.am      15 UNK        -0.5000 
     85 CA         -3.6253  -24.2382  -51.8581 C.3       15 UNK         0.1400 
     86 CB         -4.1891  -22.8211  -51.6540 C.3       15 UNK        -0.1800 
     87 C          -4.7357  -25.2780  -51.6058 C.2       15 UNK         0.5000 
     88 O          -5.5265  -25.5487  -52.5099 O.2       15 UNK        -0.5000 
     89 N          -4.7781  -25.8138  -50.3768 N.am      16 UNK        -0.5000 
     90 CA         -5.7978  -26.6967  -49.8049 C.3       16 UNK         0.1400 
     91 CB         -5.8290  -28.0565  -50.5329 C.3       16 UNK        -0.1800 
     92 C          -7.1764  -26.0078  -49.7243 C.2       16 UNK         0.5000 
     93 O          -8.2048  -26.6432  -49.9664 O.2       16 UNK        -0.5000 
     94 N          -7.1662  -24.7096  -49.3990 N.am      17 UNK        -0.5000 
     95 CA         -8.3294  -23.8286  -49.3588 C.3       17 UNK         0.1400 
     96 CB         -8.8035  -23.5075  -50.7965 C.3       17 UNK        -0.1800 
     97 C          -7.9680  -22.5833  -48.5286 C.2       17 UNK         0.5000 
     98 O          -7.3350  -22.7179  -47.4802 O.2       17 UNK        -0.5000 
     99 N          -8.3622  -21.3964  -49.0056 N.am      18 UNK        -0.5000 
    100 CA        -7.9155  -20.0975  -48.5022 C.3       18 UNK         0.1400 
    101 CB        -8.9040  -19.0240  -48.9869 C.3       18 UNK        -0.1800 
    102 C         -6.4874  -19.7800  -48.9885 C.2       18 UNK         0.5000 
    103 O         -5.9633  -20.4777  -49.8611 O.2       18 UNK        -0.5000 
    104 N         -5.8850  -18.7177  -48.4364 N.am      19 UNK        -0.5000 
    105 CA        -4.5498  -18.2187  -48.7840 C.3       19 UNK         0.1400 
    106 CB        -4.0629  -17.2639  -47.6826 C.3       19 UNK        -0.1800 
    107 C         -4.5100  -17.5677  -50.1833 C.2       19 UNK         0.5000 
    108 O         -4.3530  -16.3538  -50.3102 O.2       19 UNK        -0.5000 
    109 N         -4.6714  -18.4035  -51.2119 N.am      20 UNK        -0.5000 
    110 CA        -4.7315  -18.0424  -52.6268 C.3       20 UNK         0.1400 
    111 CB        -5.6628  -19.0474  -53.3283 C.3       20 UNK        -0.1800 
    112 C         -3.3449  -17.9947  -53.3039 C.2       20 UNK         0.5000 
    113 O         -3.2870  -17.9776  -54.5339 O.2       20 UNK        -0.5000 
    114 N         -2.2648  -17.9835  -52.5044 N.am      21 UNK        -0.5000 
    115 CA        -0.8574  -18.0628  -52.9119 C.3       21 UNK         0.1400 
    116 CB        -0.4509  -16.8326  -53.7530 C.3       21 UNK        -0.1800 
    117 C         -0.5539  -19.4070  -53.6044 C.2       21 UNK         0.5000 
    118 O         -0.1436  -19.4247  -54.7656 O.2       21 UNK        -0.5000 
    119 N         -0.8105  -20.4962  -52.8639 N.am      22 UNK        -0.5000 
    120 CA        -0.7354  -21.9057  -53.2834 C.3       22 UNK         0.1400 
    121 C         -1.6085  -22.2642  -54.5274 C.2       22 UNK         0.5000 
    122 N         -1.2387  -23.2572  -55.3262 N.am      22 UNK        -0.7600 
    123 O         -2.6764  -21.6939  -54.7345 O.2       22 UNK        -0.5000 
    124 C124        0.7021  -22.5030  -53.2487 C.3       23 UNK        -0.0398 
    125 S125        1.8398  -21.9484  -54.5651 S.3       23 UNK        -0.2404 
    126 C126        3.3936  -21.7135  -53.6504 C.3       23 UNK        -0.0205 
    127 H127        4.1261  -12.6204  -48.1008 H         1 UNK         0.0600 
    128 H128        4.0340  -13.2694  -46.4624 H         1 UNK         0.0600 
    129 H129        2.7951  -12.1467  -47.0384 H         1 UNK         0.0600 
    130 H130        2.7837  -13.5144  -49.7504 H         1 UNK         0.3000 
    131 H131        2.0151  -16.2277  -49.4273 H         1 UNK         0.0600 
    132 H132        1.4020  -14.4063  -51.8109 H         1 UNK         0.0800 
    133 H133        1.3852  -16.1521  -51.7924 H         1 UNK         0.0800 
    134 H134        2.9856  -16.5780  -53.7717 H         1 UNK         0.0800 
    135 H135        4.6998  -16.6846  -53.4733 H         1 UNK         0.0800 
    136 H136        3.5564  -19.0721  -54.2928 H         1 UNK         0.1150 
    137 H137        3.1580  -21.7009  -50.9326 H         1 UNK         0.1150 
    138 H138        3.6014  -17.5057  -50.2975 H         1 UNK         0.1150 
    139 H139        3.0822  -20.8635  -48.7071 H         1 UNK         0.0800 
    140 H140        4.2208  -19.5561  -48.5292 H         1 UNK         0.0800 
    141 H141        0.3896  -19.4114  -49.8704 H         1 UNK         0.0800 
    142 H142       -0.3924  -18.8642  -48.4117 H         1 UNK         0.0800 
    143 H143        0.8290  -21.5945  -48.9853 H         1 UNK         0.0600 
    144 H144        0.7085  -20.4103  -46.3849 H         1 UNK         0.3000 
    145 H145        0.7883  -23.4452  -44.5413 H         1 UNK         0.0600 
    146 H146        2.8558  -22.3547  -43.6436 H         1 UNK         0.0600 
    147 H147        3.1520  -23.1496  -45.1827 H         1 UNK         0.0600 
    148 H148        2.9984  -21.4004  -45.1198 H         1 UNK         0.0600 
    149 H149        0.9033  -20.5774  -43.9980 H         1 UNK         0.3000 
    150 H150       -2.6208  -20.2142  -43.5617 H         1 UNK         0.0600 
    151 H151       -1.9003  -21.2736  -41.3971 H         1 UNK         0.0600 
    152 H152       -2.0431  -19.5282  -41.2730 H         1 UNK         0.0600 
    153 H153       -0.4504  -20.2741  -41.4008 H         1 UNK         0.0600 
    154 H154       -0.4856  -18.4186  -43.0197 H         1 UNK         0.3000 
    155 H155        0.1895  -17.3778  -46.3376 H         1 UNK         0.0600 
    156 H156       -1.5239  -15.8035  -44.3598 H         1 UNK         0.0600 
    157 H157       -1.9519  -16.1527  -46.0221 H         1 UNK         0.0600 
    158 H158       -0.5660  -15.1311  -45.6779 H         1 UNK         0.0600 
    159 H159        0.9843  -16.0638  -44.0466 H         1 UNK         0.3000 
    160 H160        3.8212  -18.0790  -43.1966 H         1 UNK         0.0600 
    161 H161        3.3756  -15.3476  -44.5163 H         1 UNK         0.0600 
    162 H162        4.3211  -16.6640  -45.1995 H         1 UNK         0.0600 
    163 H163        4.8464  -15.8890  -43.7107 H         1 UNK         0.0600 
    164 H164        2.1207  -15.7496  -42.3779 H         1 UNK         0.3000 
    165 H165        1.6050  -17.1029  -39.1716 H         1 UNK         0.0600 
    166 H166        2.4691  -14.9455  -38.3086 H         1 UNK         0.0600 
    167 H167        3.8077  -15.9778  -38.7843 H         1 UNK         0.0600 
    168 H168        3.3195  -14.6458  -39.8254 H         1 UNK         0.0600 
    169 H169        0.8659  -14.5855  -40.2284 H         1 UNK         0.3000 
    170 H170       -1.9456  -15.6044  -42.1555 H         1 UNK         0.0600 
    171 H171       -2.7027  -15.7084  -39.7764 H         1 UNK         0.0600 
    172 H172       -1.8114  -14.2303  -39.4314 H         1 UNK         0.0600 
    173 H173       -3.1690  -14.2063  -40.5568 H         1 UNK         0.0600 
    174 H174       -1.5107  -13.0472  -41.8218 H         1 UNK         0.3000 
    175 H175        0.0100  -11.4981  -42.6985 H         1 UNK         0.0600 
    176 H176        2.3514  -12.0543  -43.3627 H         1 UNK         0.0600 
    177 H177        1.7809  -12.6754  -44.9062 H         1 UNK         0.0600 
    178 H178        1.6116  -10.9624  -44.5254 H         1 UNK         0.0600 
    179 H179       -0.5264  -12.1588  -45.4826 H         1 UNK         0.3000 
    180 H180       -4.0637  -12.0877  -45.2077 H         1 UNK         0.0600 
    181 H181       -2.1698  -10.0307  -46.4528 H         1 UNK         0.0600 
    182 H182       -3.4659   -9.6938  -45.3163 H         1 UNK         0.0600 
    183 H183       -3.8482  -10.3060  -46.9177 H         1 UNK         0.0600 
    184 H184       -3.5034  -13.4551  -46.7977 H         1 UNK         0.3000 
    185 H185       -2.1398  -14.8314  -48.1252 H         1 UNK         0.0600 
    186 H186       -2.6057  -14.1975  -50.5263 H         1 UNK         0.0600 
    187 H187       -3.6413  -13.3081  -49.4235 H         1 UNK         0.0600 
    188 H188       -2.2479  -12.5130  -50.1506 H         1 UNK         0.0600 
    189 H189        0.2606  -13.3800  -48.7882 H         1 UNK         0.3000 
    190 H190       -1.8441  -20.7091  -46.8194 H         1 UNK         0.3000 
    191 H191       -4.0032  -21.4467  -48.5113 H         1 UNK         0.0600 
    192 H192       -3.8230  -21.4836  -45.4459 H         1 UNK         0.0600 
    193 H193       -5.3001  -21.4539  -46.3932 H         1 UNK         0.0600 
    194 H194       -4.2214  -20.0710  -46.4121 H         1 UNK         0.0600 
    195 H195       -2.0839  -23.3467  -46.1480 H         1 UNK         0.3000 
    196 H196       -3.4834  -25.8026  -46.4841 H         1 UNK         0.0600 
    197 H197       -1.4982  -26.8035  -45.3906 H         1 UNK         0.0600 
    198 H198       -1.9791  -25.3325  -44.5581 H         1 UNK         0.0600 
    199 H199       -0.5798  -25.3247  -45.6284 H         1 UNK         0.0600 
    200 H200       -0.6548  -24.4235  -48.1986 H         1 UNK         0.3000 
    201 H201       -0.1994  -26.6132  -49.9580 H         1 UNK         0.0600 
    202 H202        1.4681  -24.8193  -49.5202 H         1 UNK         0.0600 
    203 H203        0.4393  -23.6400  -50.3269 H         1 UNK         0.0600 
    204 H204        1.1458  -24.9684  -51.2400 H         1 UNK         0.0600 
    205 H205       -2.3217  -23.7388  -50.2562 H         1 UNK         0.3000 
    206 H206       -3.3033  -24.3364  -52.8967 H         1 UNK         0.0600 
    207 H207       -3.4447  -22.0512  -51.8498 H         1 UNK         0.0600 
    208 H208       -5.0274  -22.6344  -52.3262 H         1 UNK         0.0600 
    209 H209       -4.5526  -22.6768  -50.6371 H         1 UNK         0.0600 
    210 H210       -4.1121  -25.4524  -49.7052 H         1 UNK         0.3000 
    211 H211       -5.4906  -26.8825  -48.7747 H         1 UNK         0.0600 
    212 H212       -6.1931  -27.9627  -51.5562 H         1 UNK         0.0600 
    213 H213       -6.4837  -28.7595  -50.0169 H         1 UNK         0.0600 
    214 H214       -4.8360  -28.5048  -50.5689 H         1 UNK         0.0600 
    215 H215       -6.2863  -24.2806  -49.1259 H         1 UNK         0.3000 
    216 H216       -9.1354  -24.3384  -48.8276 H         1 UNK         0.0600 
    217 H217       -8.0383  -22.9717  -51.3603 H         1 UNK         0.0600 
    218 H218       -9.7103  -22.9019  -50.7935 H         1 UNK         0.0600 
    219 H219       -9.0407  -24.4158  -51.3502 H         1 UNK         0.0600 
    220 H220       -8.8448  -21.3822  -49.8918 H         1 UNK         0.3000 
    221 H221       -7.9145  -20.1159  -47.4103 H         1 UNK         0.0600 
    222 H222       -9.9195  -19.2474  -48.6590 H         1 UNK         0.0600 
    223 H223       -8.9127  -18.9468  -50.0750 H         1 UNK         0.0600 
    224 H224       -8.6481  -18.0407  -48.5907 H         1 UNK         0.0600 
    225 H225       -6.3922  -18.1753  -47.7525 H         1 UNK         0.3000 
    226 H226       -3.8598  -19.0638  -48.8054 H         1 UNK         0.0600 
    227 H227       -4.0540  -17.7462  -46.7056 H         1 UNK         0.0600 
    228 H228       -3.0417  -16.9477  -47.8931 H         1 UNK         0.0600 
    229 H229       -4.6839  -16.3702  -47.6115 H         1 UNK         0.0600 
    230 H230       -4.8848  -19.3717  -50.9869 H         1 UNK         0.3000 
    231 H231       -5.1715  -17.0478  -52.7232 H         1 UNK         0.0600 
    232 H232       -5.2477  -20.0563  -53.3102 H         1 UNK         0.0600 
    233 H233       -5.8241  -18.7765  -54.3723 H         1 UNK         0.0600 
    234 H234       -6.6418  -19.0799  -52.8493 H         1 UNK         0.0600 
    235 H235       -2.4314  -17.9532  -51.5093 H         1 UNK         0.3000 
    236 H236       -0.2641  -18.0422  -51.9965 H         1 UNK         0.0600 
    237 H237        0.6141  -16.8559  -53.9819 H         1 UNK         0.0600 
    238 H238       -0.9787  -16.7898  -54.7056 H         1 UNK         0.0600 
    239 H239       -0.6536  -15.9051  -53.2176 H         1 UNK         0.0600 
    240 H240       -1.1973  -20.3578  -51.9426 H         1 UNK         0.3000 
    241 H241       -1.2549  -22.4205  -52.4778 H         1 UNK         0.0600 
    242 H242       -1.8253  -23.4946  -56.1107 H         1 UNK         0.3800 
    243 H243       -0.3591  -23.7329  -55.2041 H         1 UNK         0.3800 
    244 H244        0.6523  -23.5917  -53.2901 H         1 UNK         0.0800 
    245 H245        1.1435  -22.2804  -52.2784 H         1 UNK         0.0800 
    246 H246        3.6302  -22.6268  -53.1020 H         1 UNK         0.0800 
    247 H247        4.2023  -21.5781  -54.3699 H         1 UNK         0.0800 
@<TRIPOS>BOND
     1    1    2 1    
     2    1  127 1    
     3    1  128 1    
     4    1  129 1    
     5    2    3 2    
     6    2    4 am   BACKBONE|DICT|INTERRES
     7    4    5 1    
     8    4  130 1    
     9    5    6 1    
    10    5   65 1    
    11    5  131 1    
    12    6    7 1    
    13    6  132 1    
    14    6  133 1    
    15    7    8 1    
    16    8    9 1    
    17    8  134 1    
    18    8  135 1    
    19    9   10 ar   
    20    9   14 ar   
    21   10   11 ar   
    22   10  136 1    
    23   11   12 ar   
    24   11  126 1    
    25   12   13 ar   
    26   12  137 1    
    27   13   14 ar   
    28   13   15 1    
    29   14  138 1    
    30   15   16 1    
    31   15  139 1    
    32   15  140 1    
    33   16   17 1    
    34   17   18 1    
    35   17  141 1    
    36   17  142 1    
    37   18   19 1    
    38   18   67 1    
    39   18  143 1    
    40   19   20 am   BACKBONE|DICT|INTERRES
    41   19  144 1    
    42   20   21 2    
    43   20   22 1    
    44   22   23 1    
    45   22   24 1    
    46   22  145 1    
    47   23  146 1    
    48   23  147 1    
    49   23  148 1    
    50   24   25 am   BACKBONE|DICT|INTERRES
    51   24  149 1    
    52   25   26 2    
    53   25   27 1    
    54   27   28 1    
    55   27   29 1    
    56   27  150 1    
    57   28  151 1    
    58   28  152 1    
    59   28  153 1    
    60   29   30 am   BACKBONE|DICT|INTERRES
    61   29  154 1    
    62   30   31 2    
    63   30   32 1    
    64   32   33 1    
    65   32   34 1    
    66   32  155 1    
    67   33  156 1    
    68   33  157 1    
    69   33  158 1    
    70   34   35 am   BACKBONE|DICT|INTERRES
    71   34  159 1    
    72   35   36 2    
    73   35   37 1    
    74   37   38 1    
    75   37   39 1    
    76   37  160 1    
    77   38  161 1    
    78   38  162 1    
    79   38  163 1    
    80   39   40 am   BACKBONE|DICT|INTERRES
    81   39  164 1    
    82   40   41 2    
    83   40   42 1    
    84   42   43 1    
    85   42   44 1    
    86   42  165 1    
    87   43  166 1    
    88   43  167 1    
    89   43  168 1    
    90   44   45 am   BACKBONE|DICT|INTERRES
    91   44  169 1    
    92   45   46 2    
    93   45   47 1    
    94   47   48 1    
    95   47   49 1    
    96   47  170 1    
    97   48  171 1    
    98   48  172 1    
    99   48  173 1    
   100   49   50 am   BACKBONE|DICT|INTERRES
   101   49  174 1    
   102   50   51 2    
   103   50   52 1    
   104   52   53 1    
   105   52   54 1    
   106   52  175 1    
   107   53  176 1    
   108   53  177 1    
   109   53  178 1    
   110   54   55 am   BACKBONE|DICT|INTERRES
   111   54  179 1    
   112   55   56 2    
   113   55   57 1    
   114   57   58 1    
   115   57   59 1    
   116   57  180 1    
   117   58  181 1    
   118   58  182 1    
   119   58  183 1    
   120   59   60 am   BACKBONE|DICT|INTERRES
   121   59  184 1    
   122   60   61 2    
   123   60   62 1    
   124   62   63 1    
   125   62   64 1    
   126   62  185 1    
   127   63  186 1    
   128   63  187 1    
   129   63  188 1    
   130   64   65 am   BACKBONE|DICT|INTERRES
   131   64  189 1    
   132   65   66 2    
   133   67   68 2    
   134   67   69 am   BACKBONE|DICT|INTERRES
   135   69   70 1    
   136   69  190 1    
   137   70   71 1    
   138   70   72 1    
   139   70  191 1    
   140   71  192 1    
   141   71  193 1    
   142   71  194 1    
   143   72   73 2    
   144   72   74 am   BACKBONE|DICT|INTERRES
   145   74   75 1    
   146   74  195 1    
   147   75   76 1    
   148   75   77 1    
   149   75  196 1    
   150   76  197 1    
   151   76  198 1    
   152   76  199 1    
   153   77   78 2    
   154   77   79 am   BACKBONE|DICT|INTERRES
   155   79   80 1    
   156   79  200 1    
   157   80   81 1    
   158   80   82 1    
   159   80  201 1    
   160   81  202 1    
   161   81  203 1    
   162   81  204 1    
   163   82   83 2    
   164   82   84 am   BACKBONE|DICT|INTERRES
   165   84   85 1    
   166   84  205 1    
   167   85   86 1    
   168   85   87 1    
   169   85  206 1    
   170   86  207 1    
   171   86  208 1    
   172   86  209 1    
   173   87   88 2    
   174   87   89 am   BACKBONE|DICT|INTERRES
   175   89   90 1    
   176   89  210 1    
   177   90   91 1    
   178   90   92 1    
   179   90  211 1    
   180   91  212 1    
   181   91  213 1    
   182   91  214 1    
   183   92   93 2    
   184   92   94 am   BACKBONE|DICT|INTERRES
   185   94   95 1    
   186   94  215 1    
   187   95   96 1    
   188   95   97 1    
   189   95  216 1    
   190   96  217 1    
   191   96  218 1    
   192   96  219 1    
   193   97   98 2    
   194   97   99 am   BACKBONE|DICT|INTERRES
   195   99  100 1    
   196   99  220 1    
   197  100  101 1    
   198  100  102 1    
   199  100  221 1    
   200  101  222 1    
   201  101  223 1    
   202  101  224 1    
   203  102  103 2    
   204  102  104 am   BACKBONE|DICT|INTERRES
   205  104  105 1    
   206  104  225 1    
   207  105  106 1    
   208  105  107 1    
   209  105  226 1    
   210  106  227 1    
   211  106  228 1    
   212  106  229 1    
   213  107  108 2    
   214  107  109 am   BACKBONE|DICT|INTERRES
   215  109  110 1    
   216  109  230 1    
   217  110  111 1    
   218  110  112 1    
   219  110  231 1    
   220  111  232 1    
   221  111  233 1    
   222  111  234 1    
   223  112  113 2    
   224  112  114 am   BACKBONE|DICT|INTERRES
   225  114  115 1    
   226  114  235 1    
   227  115  116 1    
   228  115  117 1    
   229  115  236 1    
   230  116  237 1    
   231  116  238 1    
   232  116  239 1    
   233  117  118 2    
   234  117  119 am   BACKBONE|DICT|INTERRES
   235  119  120 1    
   236  119  240 1    
   237  120  121 1    
   238  120  124 1    
   239  120  241 1    
   240  121  122 am   BACKBONE|DICT|INTERRES
   241  121  123 2    
   242  122  242 1    
   243  122  243 1    
   244  124  125 1    
   245  124  244 1    
   246  124  245 1    
   247  125  126 1    
   248  126  246 1    
   249  126  247 1    
@<TRIPOS>SUBSTRUCTURE
     1 UNK         1 GROUP             0       ****    0 ROOT    
