@<TRIPOS>MOLECULE
3R540
247   249    1
SMALL
USER_CHARGES


@<TRIPOS>ATOM
      1 CA          2.1346  -15.7774  -52.9653 C.3       0 UNK        -0.1800 
      2 C           1.4815  -14.4481  -53.3398 C.2       0 UNK         0.5000 
      3 O           1.5990  -14.0254  -54.4887 O.2       0 UNK        -0.5000 
      4 N           0.7788  -13.7579  -52.4307 N.am      1 UNK        -0.5000 
      5 CA          0.5863  -14.0747  -51.0106 C.3       1 UNK         0.1400 
      6 C6         -0.4125  -13.0961  -50.3439 C.3       23 UNK        -0.0398 
      7 S7         -2.1099  -13.2506  -50.9908 S.3       23 UNK        -0.2404 
      8 C8         -2.9595  -14.0407  -49.5853 C.3       23 UNK        -0.0205 
      9 C9         -2.7597  -15.5483  -49.5825 C.ar      23 UNK        -0.0193 
     10 C10        -3.6618  -16.3635  -50.2693 C.ar      23 UNK        -0.1150 
     11 C11        -3.5100  -17.7522  -50.2677 C.ar      23 UNK        -0.0193 
     12 C12        -2.4298  -18.3241  -49.5906 C.ar      23 UNK        -0.1150 
     13 C13        -1.5207  -17.5212  -48.8970 C.ar      23 UNK        -0.0193 
     14 C14        -1.6929  -16.1326  -48.8918 C.ar      23 UNK        -0.1150 
     15 C15        -0.3439  -18.1541  -48.1711 C.3       23 UNK        -0.0205 
     16 S16        -0.6798  -18.4274  -46.4050 S.3       23 UNK        -0.2404 
     17 C17        -1.7991  -19.8734  -46.4333 C.3       23 UNK        -0.0398 
     18 CA         -1.0756  -21.2348  -46.6066 C.3       11 UNK         0.1400 
     19 N          -0.0145  -21.4504  -45.6145 N.am      11 UNK        -0.5000 
     20 C           0.8318  -22.4914  -45.6097 C.2       10 UNK         0.5000 
     21 O           0.8476  -23.3647  -46.4756 O.2       10 UNK        -0.5000 
     22 CA          1.7790  -22.6133  -44.4056 C.3       10 UNK         0.1400 
     23 CB          3.0363  -21.7516  -44.6004 C.3       10 UNK        -0.1800 
     24 N           1.1072  -22.2522  -43.1576 N.am      10 UNK        -0.5000 
     25 C           0.1974  -23.0203  -42.5420 C.2       9 UNK         0.5000 
     26 O          -0.1363  -24.1336  -42.9446 O.2       9 UNK        -0.5000 
     27 CA         -0.4848  -22.4368  -41.2904 C.3       9 UNK         0.1400 
     28 CB          0.3624  -22.7058  -40.0382 C.3       9 UNK        -0.1800 
     29 N          -0.7475  -21.0017  -41.3969 N.am      9 UNK        -0.5000 
     30 C          -1.5941  -20.4478  -42.2759 C.2       8 UNK         0.5000 
     31 O          -2.2738  -21.0954  -43.0721 O.2       8 UNK        -0.5000 
     32 CA         -1.6548  -18.9076  -42.3001 C.3       8 UNK         0.1400 
     33 CB         -2.6400  -18.4183  -41.2270 C.3       8 UNK        -0.1800 
     34 N          -0.3593  -18.2362  -42.1189 N.am      8 UNK        -0.5000 
     35 C           0.7718  -18.5092  -42.7881 C.2       7 UNK         0.5000 
     36 O           0.8565  -19.4083  -43.6227 O.2       7 UNK        -0.5000 
     37 CA          2.0291  -17.6687  -42.4917 C.3       7 UNK         0.1400 
     38 CB          2.6485  -17.1392  -43.7978 C.3       7 UNK        -0.1800 
     39 N           1.8113  -16.5462  -41.5768 N.am      7 UNK        -0.5000 
     40 C           1.7414  -16.6337  -40.2411 C.2       6 UNK         0.5000 
     41 O           1.7509  -17.7030  -39.6309 O.2       6 UNK        -0.5000 
     42 CA          1.6348  -15.3141  -39.4566 C.3       6 UNK         0.1400 
     43 CB          3.0341  -14.7291  -39.2083 C.3       6 UNK        -0.1800 
     44 N           0.8297  -14.3280  -40.1778 N.am      6 UNK        -0.5000 
     45 C          -0.3298  -13.8103  -39.7491 C.2       5 UNK         0.5000 
     46 O          -0.8297  -14.0598  -38.6514 O.2       5 UNK        -0.5000 
     47 CA         -1.0709  -12.8604  -40.7159 C.3       5 UNK         0.1400 
     48 CB         -0.6862  -11.3998  -40.4343 C.3       5 UNK        -0.1800 
     49 N          -0.8143  -13.1564  -42.1275 N.am      5 UNK        -0.5000 
     50 C          -1.1532  -14.2984  -42.7407 C.2       4 UNK         0.5000 
     51 O          -1.8379  -15.1712  -42.2109 O.2       4 UNK        -0.5000 
     52 CA         -0.6119  -14.5382  -44.1635 C.3       4 UNK         0.1400 
     53 CB         -1.7304  -14.3624  -45.2026 C.3       4 UNK        -0.1800 
     54 N           0.5362  -13.7183  -44.5682 N.am      4 UNK        -0.5000 
     55 C           1.7217  -13.6015  -43.9551 C.2       3 UNK         0.5000 
     56 O           1.9586  -14.0632  -42.8374 O.2       3 UNK        -0.5000 
     57 CA          2.8348  -12.8938  -44.7586 C.3       3 UNK         0.1400 
     58 CB          4.0953  -12.6406  -43.9121 C.3       3 UNK        -0.1800 
     59 N           3.2110  -13.6725  -45.9439 N.am      3 UNK        -0.5000 
     60 C           2.4634  -13.8087  -47.0469 C.2       2 UNK         0.5000 
     61 O           1.3978  -13.2056  -47.2123 O.2       2 UNK        -0.5000 
     62 CA          2.9594  -14.8168  -48.1070 C.3       2 UNK         0.1400 
     63 CB          3.1368  -16.2188  -47.4951 C.3       2 UNK        -0.1800 
     64 N           1.9937  -14.9095  -49.2028 N.am      2 UNK        -0.5000 
     65 C           1.9096  -14.0418  -50.2176 C.2       1 UNK         0.5000 
     66 O           2.7792  -13.2113  -50.4922 O.2       1 UNK        -0.5000 
     67 C          -2.0960  -22.3966  -46.6064 C.2       11 UNK         0.5000 
     68 O          -2.4846  -22.8748  -47.6757 O.2       11 UNK        -0.5000 
     69 N          -2.4724  -22.8509  -45.4013 N.am      12 UNK        -0.5000 
     70 CA         -3.3340  -24.0078  -45.1691 C.3       12 UNK         0.1400 
     71 CB         -3.7701  -24.0395  -43.6966 C.3       12 UNK        -0.1800 
     72 C          -2.6673  -25.3345  -45.5730 C.2       12 UNK         0.5000 
     73 O          -3.3015  -26.1370  -46.2572 O.2       12 UNK        -0.5000 
     74 N          -1.3990  -25.5353  -45.1820 N.am      13 UNK        -0.5000 
     75 CA         -0.6022  -26.7224  -45.5177 C.3       13 UNK         0.1400 
     76 CB          0.7318  -26.6879  -44.7581 C.3       13 UNK        -0.1800 
     77 C          -0.3558  -26.8853  -47.0295 C.2       13 UNK         0.5000 
     78 O          -0.3395  -28.0119  -47.5261 O.2       13 UNK        -0.5000 
     79 N          -0.2172  -25.7573  -47.7383 N.am      14 UNK        -0.5000 
     80 CA         -0.1383  -25.6811  -49.1970 C.3       14 UNK         0.1400 
     81 CB          0.4306  -24.3081  -49.5906 C.3       14 UNK        -0.1800 
     82 C          -1.4889  -25.9189  -49.9036 C.2       14 UNK         0.5000 
     83 O          -1.5109  -25.9690  -51.1324 O.2       14 UNK        -0.5000 
     84 N          -2.5913  -26.0224  -49.1437 N.am      15 UNK        -0.5000 
     85 CA         -3.9719  -26.1992  -49.6070 C.3       15 UNK         0.1400 
     86 CB         -4.1627  -27.6025  -50.2193 C.3       15 UNK        -0.1800 
     87 C          -4.4264  -25.0606  -50.5433 C.2       15 UNK         0.5000 
     88 O          -5.0853  -25.3128  -51.5528 O.2       15 UNK        -0.5000 
     89 N          -4.0182  -23.8296  -50.1982 N.am      16 UNK        -0.5000 
     90 CA         -4.2274  -22.5707  -50.9207 C.3       16 UNK         0.1400 
     91 CB         -5.7288  -22.2778  -51.1271 C.3       16 UNK        -0.1800 
     92 C          -3.4337  -22.4270  -52.2385 C.2       16 UNK         0.5000 
     93 O          -3.5069  -21.3648  -52.8579 O.2       16 UNK        -0.5000 
     94 N          -2.6495  -23.4421  -52.6351 N.am      17 UNK        -0.5000 
     95 CA         -1.8671  -23.4439  -53.8775 C.3       17 UNK         0.1400 
     96 CB         -1.3385  -24.8582  -54.1550 C.3       17 UNK        -0.1800 
     97 C          -0.7086  -22.4280  -53.8836 C.2       17 UNK         0.5000 
     98 O          -0.2380  -22.0581  -54.9598 O.2       17 UNK        -0.5000 
     99 N          -0.2987  -21.9696  -52.6913 N.am      18 UNK        -0.5000 
    100 CA         0.7464  -20.9712  -52.4500 C.3       18 UNK         0.1400 
    101 CB         0.8672  -20.7427  -50.9357 C.3       18 UNK        -0.1800 
    102 C          0.5301  -19.6276  -53.1757 C.2       18 UNK         0.5000 
    103 O          1.5124  -18.9836  -53.5436 O.2       18 UNK        -0.5000 
    104 N         -0.7365  -19.2504  -53.3937 N.am      19 UNK        -0.5000 
    105 CA        -1.1399  -18.0926  -54.1929 C.3       19 UNK         0.1400 
    106 CB        -1.6216  -16.9631  -53.2653 C.3       19 UNK        -0.1800 
    107 C         -2.2021  -18.5177  -55.2248 C.2       19 UNK         0.5000 
    108 O         -3.1366  -17.7629  -55.4948 O.2       19 UNK        -0.5000 
    109 N         -2.0440  -19.7334  -55.7698 N.am      20 UNK        -0.5000 
    110 CA        -2.9070  -20.4396  -56.7237 C.3       20 UNK         0.1400 
    111 CB        -3.0973  -19.6493  -58.0333 C.3       20 UNK        -0.1800 
    112 C         -4.2526  -20.8959  -56.1288 C.2       20 UNK         0.5000 
    113 O         -4.5496  -22.0903  -56.1775 O.2       20 UNK        -0.5000 
    114 N         -5.0311  -19.9610  -55.5748 N.am      21 UNK        -0.5000 
    115 CA        -6.3076  -20.1996  -54.9084 C.3       21 UNK         0.1400 
    116 CB        -7.3948  -20.5756  -55.9350 C.3       21 UNK        -0.1800 
    117 C         -6.7230  -18.9426  -54.1316 C.2       21 UNK         0.5000 
    118 O         -6.3489  -17.8314  -54.5134 O.2       21 UNK        -0.5000 
    119 N         -7.5190  -19.1394  -53.0773 N.am      22 UNK        -0.5000 
    120 CA        -8.0812  -18.0773  -52.2251 C.3       22 UNK         0.1400 
    121 C         -9.4021  -18.4914  -51.5103 C.2       22 UNK         0.5000 
    122 N        -10.0690  -19.5676  -51.9139 N.am      22 UNK        -0.7600 
    123 O         -9.8536  -17.8161  -50.5893 O.2       22 UNK        -0.5000 
    124 C124       -7.0297  -17.4315  -51.2774 C.3       23 UNK        -0.0398 
    125 S125       -6.1403  -18.6385  -50.2308 S.3       23 UNK        -0.2404 
    126 C126       -4.4956  -18.6367  -51.0122 C.3       23 UNK        -0.0205 
    127 H127        1.5023  -16.3770  -52.3107 H         1 UNK         0.0600 
    128 H128        3.0918  -15.6077  -52.4708 H         1 UNK         0.0600 
    129 H129        2.3242  -16.3669  -53.8630 H         1 UNK         0.0600 
    130 H130        0.3594  -12.8872  -52.7228 H         1 UNK         0.3000 
    131 H131        0.1698  -15.0813  -50.9464 H         1 UNK         0.0600 
    132 H132       -0.4382  -13.2396  -49.2621 H         1 UNK         0.0800 
    133 H133       -0.0879  -12.0641  -50.4906 H         1 UNK         0.0800 
    134 H134       -2.6288  -13.6065  -48.6405 H         1 UNK         0.0800 
    135 H135       -4.0249  -13.8150  -49.6561 H         1 UNK         0.0800 
    136 H136       -4.4858  -15.9136  -50.8031 H         1 UNK         0.1150 
    137 H137       -2.2979  -19.3968  -49.5997 H         1 UNK         0.1150 
    138 H138       -0.9971  -15.5081  -48.3513 H         1 UNK         0.1150 
    139 H139       -0.0631  -19.0985  -48.6347 H         1 UNK         0.0800 
    140 H140        0.5281  -17.5089  -48.2659 H         1 UNK         0.0800 
    141 H141       -2.3558  -19.8626  -45.4955 H         1 UNK         0.0800 
    142 H142       -2.5455  -19.7317  -47.2148 H         1 UNK         0.0800 
    143 H143       -0.5965  -21.2369  -47.5875 H         1 UNK         0.0600 
    144 H144        0.0828  -20.7455  -44.8896 H         1 UNK         0.3000 
    145 H145        2.0992  -23.6542  -44.3319 H         1 UNK         0.0600 
    146 H146        3.7062  -21.8310  -43.7443 H         1 UNK         0.0600 
    147 H147        3.5930  -22.0766  -45.4802 H         1 UNK         0.0600 
    148 H148        2.7955  -20.6982  -44.7421 H         1 UNK         0.0600 
    149 H149        1.2391  -21.3004  -42.8399 H         1 UNK         0.3000 
    150 H150       -1.4435  -22.9456  -41.1690 H         1 UNK         0.0600 
    151 H151        0.5592  -23.7725  -39.9223 H         1 UNK         0.0600 
    152 H152       -0.1498  -22.3712  -39.1359 H         1 UNK         0.0600 
    153 H153        1.3261  -22.1969  -40.0863 H         1 UNK         0.0600 
    154 H154       -0.2202  -20.3921  -40.7888 H         1 UNK         0.3000 
    155 H155       -2.0358  -18.6105  -43.2789 H         1 UNK         0.0600 
    156 H156       -3.6049  -18.9182  -41.3238 H         1 UNK         0.0600 
    157 H157       -2.8273  -17.3495  -41.3114 H         1 UNK         0.0600 
    158 H158       -2.2684  -18.6141  -40.2204 H         1 UNK         0.0600 
    159 H159       -0.3414  -17.4709  -41.4608 H         1 UNK         0.3000 
    160 H160        2.7553  -18.3435  -42.0335 H         1 UNK         0.0600 
    161 H161        1.9369  -16.5420  -44.3677 H         1 UNK         0.0600 
    162 H162        2.9679  -17.9598  -44.4419 H         1 UNK         0.0600 
    163 H163        3.5264  -16.5232  -43.6019 H         1 UNK         0.0600 
    164 H164        1.8265  -15.6236  -42.0056 H         1 UNK         0.3000 
    165 H165        1.1856  -15.5462  -38.4887 H         1 UNK         0.0600 
    166 H166        3.5347  -14.4720  -40.1430 H         1 UNK         0.0600 
    167 H167        2.9792  -13.8264  -38.5995 H         1 UNK         0.0600 
    168 H168        3.6685  -15.4413  -38.6787 H         1 UNK         0.0600 
    169 H169        1.1614  -14.0683  -41.1021 H         1 UNK         0.3000 
    170 H170       -2.1419  -12.9753  -40.5366 H         1 UNK         0.0600 
    171 H171       -1.2580  -10.7130  -41.0590 H         1 UNK         0.0600 
    172 H172       -0.8875  -11.1363  -39.3950 H         1 UNK         0.0600 
    173 H173        0.3738  -11.2205  -40.6191 H         1 UNK         0.0600 
    174 H174       -0.2471  -12.4949  -42.6367 H         1 UNK         0.3000 
    175 H175       -0.2858  -15.5800  -44.1988 H         1 UNK         0.0600 
    176 H176       -1.3875  -14.6384  -46.1996 H         1 UNK         0.0600 
    177 H177       -2.5867  -14.9972  -44.9706 H         1 UNK         0.0600 
    178 H178       -2.0838  -13.3306  -45.2418 H         1 UNK         0.0600 
    179 H179        0.4888  -13.3380  -45.5091 H         1 UNK         0.3000 
    180 H180        2.4457  -11.9248  -45.0786 H         1 UNK         0.0600 
    181 H181        4.5493  -13.5733  -43.5740 H         1 UNK         0.0600 
    182 H182        3.8590  -12.0503  -43.0255 H         1 UNK         0.0600 
    183 H183        4.8456  -12.0882  -44.4777 H         1 UNK         0.0600 
    184 H184        4.0614  -14.2109  -45.8649 H         1 UNK         0.3000 
    185 H185        3.9215  -14.4726  -48.4922 H         1 UNK         0.0600 
    186 H186        3.3606  -16.9609  -48.2620 H         1 UNK         0.0600 
    187 H187        3.9626  -16.2387  -46.7830 H         1 UNK         0.0600 
    188 H188        2.2425  -16.5449  -46.9626 H         1 UNK         0.0600 
    189 H189        1.2206  -15.5356  -49.0422 H         1 UNK         0.3000 
    190 H190       -2.1516  -22.3566  -44.5739 H         1 UNK         0.3000 
    191 H191       -4.2290  -23.8858  -45.7829 H         1 UNK         0.0600 
    192 H192       -4.4308  -24.8853  -43.5025 H         1 UNK         0.0600 
    193 H193       -4.3137  -23.1335  -43.4282 H         1 UNK         0.0600 
    194 H194       -2.9168  -24.1273  -43.0237 H         1 UNK         0.0600 
    195 H195       -0.9557  -24.8540  -44.5730 H         1 UNK         0.3000 
    196 H196       -1.1599  -27.5986  -45.1810 H         1 UNK         0.0600 
    197 H197        1.3307  -27.5724  -44.9790 H         1 UNK         0.0600 
    198 H198        0.5724  -26.6665  -43.6801 H         1 UNK         0.0600 
    199 H199        1.3245  -25.8145  -45.0296 H         1 UNK         0.0600 
    200 H200       -0.1579  -24.8748  -47.2382 H         1 UNK         0.3000 
    201 H201        0.5520  -26.4508  -49.5477 H         1 UNK         0.0600 
    202 H202        1.4123  -24.1460  -49.1451 H         1 UNK         0.0600 
    203 H203       -0.2216  -23.4965  -49.2657 H         1 UNK         0.0600 
    204 H204        0.5496  -24.2249  -50.6717 H         1 UNK         0.0600 
    205 H205       -2.4866  -25.9631  -48.1372 H         1 UNK         0.3000 
    206 H206       -4.6058  -26.1363  -48.7216 H         1 UNK         0.0600 
    207 H207       -3.8418  -28.3802  -49.5261 H         1 UNK         0.0600 
    208 H208       -5.2120  -27.7884  -50.4515 H         1 UNK         0.0600 
    209 H209       -3.5967  -27.7229  -51.1436 H         1 UNK         0.0600 
    210 H210       -3.4671  -23.7398  -49.3496 H         1 UNK         0.3000 
    211 H211       -3.8336  -21.8025  -50.2548 H         1 UNK         0.0600 
    212 H212       -6.2002  -22.9953  -51.7981 H         1 UNK         0.0600 
    213 H213       -5.8798  -21.2927  -51.5666 H         1 UNK         0.0600 
    214 H214       -6.2680  -22.2949  -50.1801 H         1 UNK         0.0600 
    215 H215       -2.6101  -24.2866  -52.0765 H         1 UNK         0.3000 
    216 H216       -2.5415  -23.1736  -54.6916 H         1 UNK         0.0600 
    217 H217       -0.5770  -25.1523  -53.4323 H         1 UNK         0.0600 
    218 H218       -2.1398  -25.5967  -54.1216 H         1 UNK         0.0600 
    219 H219       -0.8843  -24.9148  -55.1450 H         1 UNK         0.0600 
    220 H220       -0.7587  -22.3415  -51.8747 H         1 UNK         0.3000 
    221 H221        1.6885  -21.3869  -52.8131 H         1 UNK         0.0600 
    222 H222        1.2139  -21.6414  -50.4262 H         1 UNK         0.0600 
    223 H223        1.5817  -19.9495  -50.7100 H         1 UNK         0.0600 
    224 H224       -0.0921  -20.4585  -50.5028 H         1 UNK         0.0600 
    225 H225       -1.4859  -19.8548  -53.0798 H         1 UNK         0.3000 
    226 H226       -0.2905  -17.7170  -54.7672 H         1 UNK         0.0600 
    227 H227       -2.5866  -17.2002  -52.8221 H         1 UNK         0.0600 
    228 H228       -0.9178  -16.7784  -52.4542 H         1 UNK         0.0600 
    229 H229       -1.7383  -16.0288  -53.8158 H         1 UNK         0.0600 
    230 H230       -1.2494  -20.2795  -55.4547 H         1 UNK         0.3000 
    231 H231       -2.3594  -21.3483  -56.9795 H         1 UNK         0.0600 
    232 H232       -3.6398  -20.2456  -58.7678 H         1 UNK         0.0600 
    233 H233       -2.1374  -19.3832  -58.4757 H         1 UNK         0.0600 
    234 H234       -3.6640  -18.7303  -57.8830 H         1 UNK         0.0600 
    235 H235       -4.6950  -19.0007  -55.5369 H         1 UNK         0.3000 
    236 H236       -6.1760  -21.0178  -54.1970 H         1 UNK         0.0600 
    237 H237       -7.1640  -21.5116  -56.4431 H         1 UNK         0.0600 
    238 H238       -8.3637  -20.7067  -55.4518 H         1 UNK         0.0600 
    239 H239       -7.5094  -19.8019  -56.6953 H         1 UNK         0.0600 
    240 H240       -7.7608  -20.0802  -52.8038 H         1 UNK         0.3000 
    241 H241       -8.4113  -17.2851  -52.8997 H         1 UNK         0.0600 
    242 H242      -10.9253  -19.8126  -51.4408 H         1 UNK         0.3800 
    243 H243       -9.7840  -20.0991  -52.7198 H         1 UNK         0.3800 
    244 H244       -6.3143  -16.8679  -51.8757 H         1 UNK         0.0800 
    245 H245       -7.4936  -16.6885  -50.6271 H         1 UNK         0.0800 
    246 H246       -4.5579  -18.3353  -52.0582 H         1 UNK         0.0800 
    247 H247       -4.1290  -19.6588  -51.0233 H         1 UNK         0.0800 
@<TRIPOS>BOND
     1    1    2 1    
     2    1  127 1    
     3    1  128 1    
     4    1  129 1    
     5    2    3 2    
     6    2    4 am   BACKBONE|DICT|INTERRES
     7    4    5 1    
     8    4  130 1    
     9    5    6 1    
    10    5   65 1    
    11    5  131 1    
    12    6    7 1    
    13    6  132 1    
    14    6  133 1    
    15    7    8 1    
    16    8    9 1    
    17    8  134 1    
    18    8  135 1    
    19    9   10 ar   
    20    9   14 ar   
    21   10   11 ar   
    22   10  136 1    
    23   11   12 ar   
    24   11  126 1    
    25   12   13 ar   
    26   12  137 1    
    27   13   14 ar   
    28   13   15 1    
    29   14  138 1    
    30   15   16 1    
    31   15  139 1    
    32   15  140 1    
    33   16   17 1    
    34   17   18 1    
    35   17  141 1    
    36   17  142 1    
    37   18   19 1    
    38   18   67 1    
    39   18  143 1    
    40   19   20 am   BACKBONE|DICT|INTERRES
    41   19  144 1    
    42   20   21 2    
    43   20   22 1    
    44   22   23 1    
    45   22   24 1    
    46   22  145 1    
    47   23  146 1    
    48   23  147 1    
    49   23  148 1    
    50   24   25 am   BACKBONE|DICT|INTERRES
    51   24  149 1    
    52   25   26 2    
    53   25   27 1    
    54   27   28 1    
    55   27   29 1    
    56   27  150 1    
    57   28  151 1    
    58   28  152 1    
    59   28  153 1    
    60   29   30 am   BACKBONE|DICT|INTERRES
    61   29  154 1    
    62   30   31 2    
    63   30   32 1    
    64   32   33 1    
    65   32   34 1    
    66   32  155 1    
    67   33  156 1    
    68   33  157 1    
    69   33  158 1    
    70   34   35 am   BACKBONE|DICT|INTERRES
    71   34  159 1    
    72   35   36 2    
    73   35   37 1    
    74   37   38 1    
    75   37   39 1    
    76   37  160 1    
    77   38  161 1    
    78   38  162 1    
    79   38  163 1    
    80   39   40 am   BACKBONE|DICT|INTERRES
    81   39  164 1    
    82   40   41 2    
    83   40   42 1    
    84   42   43 1    
    85   42   44 1    
    86   42  165 1    
    87   43  166 1    
    88   43  167 1    
    89   43  168 1    
    90   44   45 am   BACKBONE|DICT|INTERRES
    91   44  169 1    
    92   45   46 2    
    93   45   47 1    
    94   47   48 1    
    95   47   49 1    
    96   47  170 1    
    97   48  171 1    
    98   48  172 1    
    99   48  173 1    
   100   49   50 am   BACKBONE|DICT|INTERRES
   101   49  174 1    
   102   50   51 2    
   103   50   52 1    
   104   52   53 1    
   105   52   54 1    
   106   52  175 1    
   107   53  176 1    
   108   53  177 1    
   109   53  178 1    
   110   54   55 am   BACKBONE|DICT|INTERRES
   111   54  179 1    
   112   55   56 2    
   113   55   57 1    
   114   57   58 1    
   115   57   59 1    
   116   57  180 1    
   117   58  181 1    
   118   58  182 1    
   119   58  183 1    
   120   59   60 am   BACKBONE|DICT|INTERRES
   121   59  184 1    
   122   60   61 2    
   123   60   62 1    
   124   62   63 1    
   125   62   64 1    
   126   62  185 1    
   127   63  186 1    
   128   63  187 1    
   129   63  188 1    
   130   64   65 am   BACKBONE|DICT|INTERRES
   131   64  189 1    
   132   65   66 2    
   133   67   68 2    
   134   67   69 am   BACKBONE|DICT|INTERRES
   135   69   70 1    
   136   69  190 1    
   137   70   71 1    
   138   70   72 1    
   139   70  191 1    
   140   71  192 1    
   141   71  193 1    
   142   71  194 1    
   143   72   73 2    
   144   72   74 am   BACKBONE|DICT|INTERRES
   145   74   75 1    
   146   74  195 1    
   147   75   76 1    
   148   75   77 1    
   149   75  196 1    
   150   76  197 1    
   151   76  198 1    
   152   76  199 1    
   153   77   78 2    
   154   77   79 am   BACKBONE|DICT|INTERRES
   155   79   80 1    
   156   79  200 1    
   157   80   81 1    
   158   80   82 1    
   159   80  201 1    
   160   81  202 1    
   161   81  203 1    
   162   81  204 1    
   163   82   83 2    
   164   82   84 am   BACKBONE|DICT|INTERRES
   165   84   85 1    
   166   84  205 1    
   167   85   86 1    
   168   85   87 1    
   169   85  206 1    
   170   86  207 1    
   171   86  208 1    
   172   86  209 1    
   173   87   88 2    
   174   87   89 am   BACKBONE|DICT|INTERRES
   175   89   90 1    
   176   89  210 1    
   177   90   91 1    
   178   90   92 1    
   179   90  211 1    
   180   91  212 1    
   181   91  213 1    
   182   91  214 1    
   183   92   93 2    
   184   92   94 am   BACKBONE|DICT|INTERRES
   185   94   95 1    
   186   94  215 1    
   187   95   96 1    
   188   95   97 1    
   189   95  216 1    
   190   96  217 1    
   191   96  218 1    
   192   96  219 1    
   193   97   98 2    
   194   97   99 am   BACKBONE|DICT|INTERRES
   195   99  100 1    
   196   99  220 1    
   197  100  101 1    
   198  100  102 1    
   199  100  221 1    
   200  101  222 1    
   201  101  223 1    
   202  101  224 1    
   203  102  103 2    
   204  102  104 am   BACKBONE|DICT|INTERRES
   205  104  105 1    
   206  104  225 1    
   207  105  106 1    
   208  105  107 1    
   209  105  226 1    
   210  106  227 1    
   211  106  228 1    
   212  106  229 1    
   213  107  108 2    
   214  107  109 am   BACKBONE|DICT|INTERRES
   215  109  110 1    
   216  109  230 1    
   217  110  111 1    
   218  110  112 1    
   219  110  231 1    
   220  111  232 1    
   221  111  233 1    
   222  111  234 1    
   223  112  113 2    
   224  112  114 am   BACKBONE|DICT|INTERRES
   225  114  115 1    
   226  114  235 1    
   227  115  116 1    
   228  115  117 1    
   229  115  236 1    
   230  116  237 1    
   231  116  238 1    
   232  116  239 1    
   233  117  118 2    
   234  117  119 am   BACKBONE|DICT|INTERRES
   235  119  120 1    
   236  119  240 1    
   237  120  121 1    
   238  120  124 1    
   239  120  241 1    
   240  121  122 am   BACKBONE|DICT|INTERRES
   241  121  123 2    
   242  122  242 1    
   243  122  243 1    
   244  124  125 1    
   245  124  244 1    
   246  124  245 1    
   247  125  126 1    
   248  126  246 1    
   249  126  247 1    
@<TRIPOS>SUBSTRUCTURE
     1 UNK         1 GROUP             0       ****    0 ROOT    
