@<TRIPOS>MOLECULE
3R540
247   249    1
SMALL
USER_CHARGES


@<TRIPOS>ATOM
      1 CA         -5.6342  -16.9925  -48.3484 C.3       0 UNK        -0.1800 
      2 C          -4.8205  -15.7115  -48.2381 C.2       0 UNK         0.5000 
      3 O          -5.3795  -14.6481  -47.9664 O.2       0 UNK        -0.5000 
      4 N          -3.5039  -15.8067  -48.4561 N.am      1 UNK        -0.5000 
      5 CA         -2.5476  -14.6965  -48.4194 C.3       1 UNK         0.1400 
      6 C6         -1.2719  -15.0190  -49.2375 C.3       23 UNK        -0.0398 
      7 S7         -1.6739  -15.1396  -51.0151 S.3       23 UNK        -0.2404 
      8 C8         -0.1213  -14.6192  -51.8068 C.3       23 UNK        -0.0205 
      9 C9          0.8714  -15.7670  -51.8756 C.ar      23 UNK        -0.0193 
     10 C10         0.7088  -16.7680  -52.8361 C.ar      23 UNK        -0.1150 
     11 C11         1.5967  -17.8440  -52.8969 C.ar      23 UNK        -0.0193 
     12 C12         2.6686  -17.9049  -52.0016 C.ar      23 UNK        -0.1150 
     13 C13         2.8402  -16.9100  -51.0333 C.ar      23 UNK        -0.0193 
     14 C14         1.9395  -15.8408  -50.9783 C.ar      23 UNK        -0.1150 
     15 C15         3.9761  -16.9992  -50.0211 C.3       23 UNK        -0.0205 
     16 S16         3.8913  -18.4877  -48.9656 S.3       23 UNK        -0.2404 
     17 C17         2.1881  -18.4297  -48.3104 C.3       23 UNK        -0.0398 
     18 CA          1.5734  -19.8506  -48.2071 C.3       11 UNK         0.1400 
     19 N           1.7839  -20.4394  -46.8805 N.am      11 UNK        -0.5000 
     20 C           1.5475  -21.7183  -46.5552 C.2       10 UNK         0.5000 
     21 O           1.2085  -22.5813  -47.3647 O.2       10 UNK        -0.5000 
     22 CA          1.6834  -22.0887  -45.0656 C.3       10 UNK         0.1400 
     23 CB          3.1458  -22.3949  -44.7091 C.3       10 UNK        -0.1800 
     24 N           1.1700  -21.0428  -44.1783 N.am      10 UNK        -0.5000 
     25 C          -0.1215  -20.6944  -44.0871 C.2       9 UNK         0.5000 
     26 O          -1.0294  -21.2750  -44.6800 O.2       9 UNK        -0.5000 
     27 CA         -0.4572  -19.4575  -43.2368 C.3       9 UNK         0.1400 
     28 CB         -0.6010  -19.8247  -41.7536 C.3       9 UNK        -0.1800 
     29 N           0.5288  -18.3888  -43.3852 N.am      9 UNK        -0.5000 
     30 C           0.7579  -17.7090  -44.5168 C.2       8 UNK         0.5000 
     31 O           0.1353  -17.8947  -45.5598 O.2       8 UNK        -0.5000 
     32 CA          1.8999  -16.6785  -44.4830 C.3       8 UNK         0.1400 
     33 CB          1.4311  -15.3473  -43.8759 C.3       8 UNK        -0.1800 
     34 N           3.0589  -17.1768  -43.7429 N.am      8 UNK        -0.5000 
     35 C           3.8320  -18.1955  -44.1450 C.2       7 UNK         0.5000 
     36 O           3.6674  -18.8023  -45.2029 O.2       7 UNK        -0.5000 
     37 CA          4.9428  -18.6378  -43.1757 C.3       7 UNK         0.1400 
     38 CB          6.1672  -17.7180  -43.2947 C.3       7 UNK        -0.1800 
     39 N           4.4881  -18.6682  -41.7840 N.am      7 UNK        -0.5000 
     40 C           3.5753  -19.5274  -41.3087 C.2       6 UNK         0.5000 
     41 O           3.0440  -20.4044  -41.9891 O.2       6 UNK        -0.5000 
     42 CA          3.1475  -19.3431  -39.8396 C.3       6 UNK         0.1400 
     43 CB          4.1250  -20.0631  -38.8988 C.3       6 UNK        -0.1800 
     44 N           3.0178  -17.9404  -39.4277 N.am      6 UNK        -0.5000 
     45 C           2.2000  -17.0497  -40.0030 C.2       5 UNK         0.5000 
     46 O           1.5028  -17.3014  -40.9893 O.2       5 UNK        -0.5000 
     47 CA          2.1763  -15.6372  -39.4048 C.3       5 UNK         0.1400 
     48 CB          3.4689  -14.8716  -39.7368 C.3       5 UNK        -0.1800 
     49 N           1.0364  -14.9297  -39.9743 N.am      5 UNK        -0.5000 
     50 C           0.3046  -13.9832  -39.3819 C.2       4 UNK         0.5000 
     51 O           0.5389  -13.5483  -38.2534 O.2       4 UNK        -0.5000 
     52 CA         -0.8836  -13.4122  -40.1842 C.3       4 UNK         0.1400 
     53 CB         -0.5959  -11.9644  -40.6130 C.3       4 UNK        -0.1800 
     54 N          -1.2240  -14.1858  -41.3828 N.am      4 UNK        -0.5000 
     55 C          -1.9148  -15.3349  -41.3967 C.2       3 UNK         0.5000 
     56 O          -2.2881  -15.9135  -40.3756 O.2       3 UNK        -0.5000 
     57 CA         -2.2334  -15.9248  -42.7910 C.3       3 UNK         0.1400 
     58 CB         -3.4247  -16.9036  -42.7821 C.3       3 UNK        -0.1800 
     59 N          -2.4005  -14.9091  -43.8396 N.am      3 UNK        -0.5000 
     60 C          -3.2958  -13.9120  -43.8646 C.2       2 UNK         0.5000 
     61 O          -4.1566  -13.7371  -43.0019 O.2       2 UNK        -0.5000 
     62 CA         -3.2052  -12.9227  -45.0397 C.3       2 UNK         0.1400 
     63 CB         -2.0235  -11.9501  -44.8551 C.3       2 UNK        -0.1800 
     64 N          -3.1911  -13.5451  -46.3686 N.am      2 UNK        -0.5000 
     65 C          -2.2450  -14.2844  -46.9630 C.2       1 UNK         0.5000 
     66 O          -1.2022  -14.6437  -46.4144 O.2       1 UNK        -0.5000 
     67 C           0.0851  -19.8466  -48.6147 C.2       11 UNK         0.5000 
     68 O          -0.2108  -20.0659  -49.7865 O.2       11 UNK        -0.5000 
     69 N          -0.8163  -19.6002  -47.6554 N.am      12 UNK        -0.5000 
     70 CA         -2.2628  -19.6592  -47.8392 C.3       12 UNK         0.1400 
     71 CB         -2.9589  -18.9466  -46.6662 C.3       12 UNK        -0.1800 
     72 C          -2.7667  -21.1033  -48.0058 C.2       12 UNK         0.5000 
     73 O          -3.3288  -21.4368  -49.0512 O.2       12 UNK        -0.5000 
     74 N          -2.5451  -21.9170  -46.9640 N.am      13 UNK        -0.5000 
     75 CA         -3.0681  -23.2669  -46.7355 C.3       13 UNK         0.1400 
     76 CB         -2.5564  -24.2519  -47.8047 C.3       13 UNK        -0.1800 
     77 C          -4.6050  -23.3105  -46.5853 C.2       13 UNK         0.5000 
     78 O          -5.2809  -22.2782  -46.6421 O.2       13 UNK        -0.5000 
     79 N          -5.1338  -24.5208  -46.3591 N.am      14 UNK        -0.5000 
     80 CA         -6.5631  -24.8014  -46.2187 C.3       14 UNK         0.1400 
     81 CB         -6.7563  -26.2894  -45.8905 C.3       14 UNK        -0.1800 
     82 C          -7.3415  -24.4210  -47.4901 C.2       14 UNK         0.5000 
     83 O          -6.9127  -24.7723  -48.5910 O.2       14 UNK        -0.5000 
     84 N          -8.4433  -23.6785  -47.3125 N.am      15 UNK        -0.5000 
     85 CA         -9.3317  -23.1531  -48.3598 C.3       15 UNK         0.1400 
     86 CB        -10.1034  -24.3081  -49.0326 C.3       15 UNK        -0.1800 
     87 C          -8.6280  -22.2388  -49.3914 C.2       15 UNK         0.5000 
     88 O          -9.1292  -22.0850  -50.5062 O.2       15 UNK        -0.5000 
     89 N          -7.4767  -21.6626  -49.0063 N.am      16 UNK        -0.5000 
     90 CA         -6.5641  -20.8605  -49.8290 C.3       16 UNK         0.1400 
     91 CB         -7.2385  -19.5481  -50.2811 C.3       16 UNK        -0.1800 
     92 C          -5.9479  -21.6473  -51.0097 C.2       16 UNK         0.5000 
     93 O          -5.5794  -21.0416  -52.0174 O.2       16 UNK        -0.5000 
     94 N          -5.8530  -22.9805  -50.8828 N.am      17 UNK        -0.5000 
     95 CA         -5.4293  -23.8878  -51.9505 C.3       17 UNK         0.1400 
     96 CB         -5.6029  -25.3422  -51.4901 C.3       17 UNK        -0.1800 
     97 C          -3.9942  -23.6498  -52.4493 C.2       17 UNK         0.5000 
     98 O          -3.7654  -23.6864  -53.6588 O.2       17 UNK        -0.5000 
     99 N          -3.0581  -23.3868  -51.5267 N.am      18 UNK        -0.5000 
    100 CA        -1.6617  -23.1100  -51.8668 C.3       18 UNK         0.1400 
    101 CB        -0.7553  -23.3061  -50.6449 C.3       18 UNK        -0.1800 
    102 C         -1.4876  -21.7126  -52.4793 C.2       18 UNK         0.5000 
    103 O         -0.6849  -21.5662  -53.4008 O.2       18 UNK        -0.5000 
    104 N         -2.2791  -20.7382  -52.0061 N.am      19 UNK        -0.5000 
    105 CA        -2.3375  -19.3829  -52.5545 C.3       19 UNK         0.1400 
    106 CB        -3.1638  -18.4680  -51.6378 C.3       19 UNK        -0.1800 
    107 C         -2.8794  -19.3590  -53.9943 C.2       19 UNK         0.5000 
    108 O         -2.3494  -18.6297  -54.8330 O.2       19 UNK        -0.5000 
    109 N         -3.9115  -20.1731  -54.2529 N.am      20 UNK        -0.5000 
    110 CA        -4.5142  -20.3599  -55.5696 C.3       20 UNK         0.1400 
    111 CB        -5.8440  -21.1148  -55.4170 C.3       20 UNK        -0.1800 
    112 C         -3.5810  -21.0867  -56.5558 C.2       20 UNK         0.5000 
    113 O         -3.4779  -20.6640  -57.7081 O.2       20 UNK        -0.5000 
    114 N         -2.9326  -22.1667  -56.0967 N.am      21 UNK        -0.5000 
    115 CA        -2.0382  -22.9944  -56.9058 C.3       21 UNK         0.1400 
    116 CB        -1.8242  -24.3508  -56.2133 C.3       21 UNK        -0.1800 
    117 C         -0.6955  -22.3029  -57.2017 C.2       21 UNK         0.5000 
    118 O         -0.3603  -22.0936  -58.3681 O.2       21 UNK        -0.5000 
    119 N          0.0467  -21.9741  -56.1368 N.am      22 UNK        -0.5000 
    120 CA         1.3779  -21.3448  -56.1515 C.3       22 UNK         0.1400 
    121 C          2.5046  -22.1371  -56.8865 C.2       22 UNK         0.5000 
    122 N          2.3753  -23.4464  -57.0641 N.am      22 UNK        -0.7600 
    123 O          3.5234  -21.5734  -57.2772 O.2       22 UNK        -0.5000 
    124 C124        1.3058  -19.8368  -56.5355 C.3       23 UNK        -0.0398 
    125 S125        2.2924  -18.7650  -55.4311 S.3       23 UNK        -0.2404 
    126 C126        1.3530  -18.9684  -53.8870 C.3       23 UNK        -0.0205 
    127 H127       -6.5045  -16.8260  -48.9829 H         1 UNK         0.0600 
    128 H128       -5.9833  -17.3029  -47.3637 H         1 UNK         0.0600 
    129 H129       -5.0520  -17.8066  -48.7808 H         1 UNK         0.0600 
    130 H130       -3.1045  -16.7053  -48.6773 H         1 UNK         0.3000 
    131 H131       -3.0159  -13.8295  -48.8918 H         1 UNK         0.0600 
    132 H132       -0.8115  -15.9513  -48.9051 H         1 UNK         0.0800 
    133 H133       -0.5240  -14.2364  -49.0994 H         1 UNK         0.0800 
    134 H134        0.3028  -13.7604  -51.2846 H         1 UNK         0.0800 
    135 H135       -0.3430  -14.2779  -52.8191 H         1 UNK         0.0800 
    136 H136       -0.1274  -16.7220  -53.5204 H         1 UNK         0.1150 
    137 H137        3.3521  -18.7417  -52.0377 H         1 UNK         0.1150 
    138 H138        2.0599  -15.0724  -50.2276 H         1 UNK         0.1150 
    139 H139        4.9269  -17.0000  -50.5555 H         1 UNK         0.0800 
    140 H140        3.9891  -16.1186  -49.3769 H         1 UNK         0.0800 
    141 H141        1.5820  -17.7820  -48.9434 H         1 UNK         0.0800 
    142 H142        2.2050  -17.9350  -47.3410 H         1 UNK         0.0800 
    143 H143        2.0695  -20.5036  -48.9288 H         1 UNK         0.0600 
    144 H144        2.1375  -19.8156  -46.1637 H         1 UNK         0.3000 
    145 H145        1.0964  -22.9934  -44.8942 H         1 UNK         0.0600 
    146 H146        3.2367  -22.7310  -43.6761 H         1 UNK         0.0600 
    147 H147        3.5457  -23.1853  -45.3454 H         1 UNK         0.0600 
    148 H148        3.7835  -21.5192  -44.8322 H         1 UNK         0.0600 
    149 H149        1.8506  -20.5595  -43.6009 H         1 UNK         0.3000 
    150 H150       -1.4182  -19.0724  -43.5827 H         1 UNK         0.0600 
    151 H151       -1.3663  -20.5890  -41.6134 H         1 UNK         0.0600 
    152 H152       -0.8926  -18.9580  -41.1597 H         1 UNK         0.0600 
    153 H153        0.3310  -20.2133  -41.3435 H         1 UNK         0.0600 
    154 H154        1.0536  -18.1361  -42.5506 H         1 UNK         0.3000 
    155 H155        2.2106  -16.4844  -45.5110 H         1 UNK         0.0600 
    156 H156        1.0950  -15.4647  -42.8475 H         1 UNK         0.0600 
    157 H157        0.6021  -14.9304  -44.4473 H         1 UNK         0.0600 
    158 H158        2.2315  -14.6074  -43.8837 H         1 UNK         0.0600 
    159 H159        3.2287  -16.7710  -42.8353 H         1 UNK         0.3000 
    160 H160        5.2468  -19.6484  -43.4571 H         1 UNK         0.0600 
    161 H161        5.9353  -16.6943  -42.9981 H         1 UNK         0.0600 
    162 H162        6.5331  -17.6877  -44.3219 H         1 UNK         0.0600 
    163 H163        6.9872  -18.0712  -42.6692 H         1 UNK         0.0600 
    164 H164        4.8733  -17.9769  -41.1577 H         1 UNK         0.3000 
    165 H165        2.1663  -19.8081  -39.7263 H         1 UNK         0.0600 
    166 H166        3.7763  -20.0296  -37.8665 H         1 UNK         0.0600 
    167 H167        4.2268  -21.1145  -39.1715 H         1 UNK         0.0600 
    168 H168        5.1199  -19.6173  -38.9325 H         1 UNK         0.0600 
    169 H169        3.5668  -17.6556  -38.6293 H         1 UNK         0.3000 
    170 H170        2.0590  -15.7242  -38.3227 H         1 UNK         0.0600 
    171 H171        4.3437  -15.3702  -39.3181 H         1 UNK         0.0600 
    172 H172        3.6204  -14.7868  -40.8137 H         1 UNK         0.0600 
    173 H173        3.4450  -13.8629  -39.3239 H         1 UNK         0.0600 
    174 H174        0.7256  -15.3008  -40.8614 H         1 UNK         0.3000 
    175 H175       -1.7499  -13.4047  -39.5193 H         1 UNK         0.0600 
    176 H176        0.2604  -11.9070  -41.2862 H         1 UNK         0.0600 
    177 H177       -1.4543  -11.5257  -41.1223 H         1 UNK         0.0600 
    178 H178       -0.3771  -11.3351  -39.7492 H         1 UNK         0.0600 
    179 H179       -0.9632  -13.7767  -42.2675 H         1 UNK         0.3000 
    180 H180       -1.3521  -16.4952  -43.0693 H         1 UNK         0.0600 
    181 H181       -3.5918  -17.3274  -43.7726 H         1 UNK         0.0600 
    182 H182       -4.3468  -16.4161  -42.4648 H         1 UNK         0.0600 
    183 H183       -3.2435  -17.7362  -42.1015 H         1 UNK         0.0600 
    184 H184       -1.7644  -14.9652  -44.6319 H         1 UNK         0.3000 
    185 H185       -4.1185  -12.3261  -45.0120 H         1 UNK         0.0600 
    186 H186       -2.0983  -11.4248  -43.9020 H         1 UNK         0.0600 
    187 H187       -1.0613  -12.4627  -44.8675 H         1 UNK         0.0600 
    188 H188       -2.0099  -11.1948  -45.6408 H         1 UNK         0.0600 
    189 H189       -4.0538  -13.4352  -46.8917 H         1 UNK         0.3000 
    190 H190       -0.4815  -19.3285  -46.7365 H         1 UNK         0.3000 
    191 H191       -2.5154  -19.1173  -48.7485 H         1 UNK         0.0600 
    192 H192       -4.0433  -18.9861  -46.7726 H         1 UNK         0.0600 
    193 H193       -2.6690  -17.8972  -46.6116 H         1 UNK         0.0600 
    194 H194       -2.7127  -19.4022  -45.7076 H         1 UNK         0.0600 
    195 H195       -2.0359  -21.5355  -46.1690 H         1 UNK         0.3000 
    196 H196       -2.6562  -23.5765  -45.7740 H         1 UNK         0.0600 
    197 H197       -3.0196  -24.0743  -48.7742 H         1 UNK         0.0600 
    198 H198       -1.4756  -24.1713  -47.9197 H         1 UNK         0.0600 
    199 H199       -2.7680  -25.2853  -47.5300 H         1 UNK         0.0600 
    200 H200       -4.5217  -25.3228  -46.3408 H         1 UNK         0.3000 
    201 H201       -6.9374  -24.2110  -45.3798 H         1 UNK         0.0600 
    202 H202       -6.3725  -26.9299  -46.6858 H         1 UNK         0.0600 
    203 H203       -7.8131  -26.5260  -45.7604 H         1 UNK         0.0600 
    204 H204       -6.2472  -26.5600  -44.9652 H         1 UNK         0.0600 
    205 H205       -8.6959  -23.4201  -46.3684 H         1 UNK         0.3000 
    206 H206      -10.0615  -22.5218  -47.8511 H         1 UNK         0.0600 
    207 H207      -10.5992  -24.9356  -48.2921 H         1 UNK         0.0600 
    208 H208      -10.8765  -23.9282  -49.7015 H         1 UNK         0.0600 
    209 H209       -9.4438  -24.9442  -49.6239 H         1 UNK         0.0600 
    210 H210       -7.1344  -21.8741  -48.0771 H         1 UNK         0.3000 
    211 H211       -5.7384  -20.5869  -49.1734 H         1 UNK         0.0600 
    212 H212       -6.5135  -18.8708  -50.7331 H         1 UNK         0.0600 
    213 H213       -7.6901  -19.0257  -49.4382 H         1 UNK         0.0600 
    214 H214       -8.0181  -19.7259  -51.0221 H         1 UNK         0.0600 
    215 H215       -6.1845  -23.4160  -50.0289 H         1 UNK         0.3000 
    216 H216       -6.0972  -23.7228  -52.7984 H         1 UNK         0.0600 
    217 H217       -5.0075  -25.5563  -50.6016 H         1 UNK         0.0600 
    218 H218       -5.2957  -26.0404  -52.2698 H         1 UNK         0.0600 
    219 H219       -6.6452  -25.5580  -51.2545 H         1 UNK         0.0600 
    220 H220       -3.3327  -23.2705  -50.5605 H         1 UNK         0.3000 
    221 H221       -1.3452  -23.8345  -52.6204 H         1 UNK         0.0600 
    222 H222       -0.7955  -24.3343  -50.2866 H         1 UNK         0.0600 
    223 H223       -1.0334  -22.6485  -49.8232 H         1 UNK         0.0600 
    224 H224        0.2845  -23.0891  -50.8924 H         1 UNK         0.0600 
    225 H225       -2.8903  -20.9505  -51.2280 H         1 UNK         0.3000 
    226 H226       -1.3222  -18.9876  -52.5727 H         1 UNK         0.0600 
    227 H227       -4.1004  -18.9302  -51.3288 H         1 UNK         0.0600 
    228 H228       -2.5970  -18.2097  -50.7462 H         1 UNK         0.0600 
    229 H229       -3.4087  -17.5280  -52.1341 H         1 UNK         0.0600 
    230 H230       -4.3318  -20.6833  -53.4809 H         1 UNK         0.3000 
    231 H231       -4.7323  -19.3729  -55.9826 H         1 UNK         0.0600 
    232 H232       -5.6997  -22.1012  -54.9749 H         1 UNK         0.0600 
    233 H233       -6.3280  -21.2545  -56.3843 H         1 UNK         0.0600 
    234 H234       -6.5379  -20.5643  -54.7813 H         1 UNK         0.0600 
    235 H235       -3.1087  -22.4798  -55.1474 H         1 UNK         0.3000 
    236 H236       -2.5274  -23.1885  -57.8629 H         1 UNK         0.0600 
    237 H237       -2.7670  -24.8873  -56.1050 H         1 UNK         0.0600 
    238 H238       -1.1544  -24.9863  -56.7937 H         1 UNK         0.0600 
    239 H239       -1.3929  -24.2368  -55.2181 H         1 UNK         0.0600 
    240 H240       -0.3396  -22.1144  -55.2073 H         1 UNK         0.3000 
    241 H241        1.6850  -21.4169  -55.1099 H         1 UNK         0.0600 
    242 H242        3.1075  -23.9581  -57.5313 H         1 UNK         0.3800 
    243 H243        1.5531  -23.9300  -56.7409 H         1 UNK         0.3800 
    244 H244        0.2762  -19.4769  -56.4922 H         1 UNK         0.0800 
    245 H245        1.6180  -19.6735  -57.5682 H         1 UNK         0.0800 
    246 H246        0.2927  -19.0240  -54.1293 H         1 UNK         0.0800 
    247 H247        1.6071  -19.9194  -53.4176 H         1 UNK         0.0800 
@<TRIPOS>BOND
     1    1    2 1    
     2    1  127 1    
     3    1  128 1    
     4    1  129 1    
     5    2    3 2    
     6    2    4 am   BACKBONE|DICT|INTERRES
     7    4    5 1    
     8    4  130 1    
     9    5    6 1    
    10    5   65 1    
    11    5  131 1    
    12    6    7 1    
    13    6  132 1    
    14    6  133 1    
    15    7    8 1    
    16    8    9 1    
    17    8  134 1    
    18    8  135 1    
    19    9   10 ar   
    20    9   14 ar   
    21   10   11 ar   
    22   10  136 1    
    23   11   12 ar   
    24   11  126 1    
    25   12   13 ar   
    26   12  137 1    
    27   13   14 ar   
    28   13   15 1    
    29   14  138 1    
    30   15   16 1    
    31   15  139 1    
    32   15  140 1    
    33   16   17 1    
    34   17   18 1    
    35   17  141 1    
    36   17  142 1    
    37   18   19 1    
    38   18   67 1    
    39   18  143 1    
    40   19   20 am   BACKBONE|DICT|INTERRES
    41   19  144 1    
    42   20   21 2    
    43   20   22 1    
    44   22   23 1    
    45   22   24 1    
    46   22  145 1    
    47   23  146 1    
    48   23  147 1    
    49   23  148 1    
    50   24   25 am   BACKBONE|DICT|INTERRES
    51   24  149 1    
    52   25   26 2    
    53   25   27 1    
    54   27   28 1    
    55   27   29 1    
    56   27  150 1    
    57   28  151 1    
    58   28  152 1    
    59   28  153 1    
    60   29   30 am   BACKBONE|DICT|INTERRES
    61   29  154 1    
    62   30   31 2    
    63   30   32 1    
    64   32   33 1    
    65   32   34 1    
    66   32  155 1    
    67   33  156 1    
    68   33  157 1    
    69   33  158 1    
    70   34   35 am   BACKBONE|DICT|INTERRES
    71   34  159 1    
    72   35   36 2    
    73   35   37 1    
    74   37   38 1    
    75   37   39 1    
    76   37  160 1    
    77   38  161 1    
    78   38  162 1    
    79   38  163 1    
    80   39   40 am   BACKBONE|DICT|INTERRES
    81   39  164 1    
    82   40   41 2    
    83   40   42 1    
    84   42   43 1    
    85   42   44 1    
    86   42  165 1    
    87   43  166 1    
    88   43  167 1    
    89   43  168 1    
    90   44   45 am   BACKBONE|DICT|INTERRES
    91   44  169 1    
    92   45   46 2    
    93   45   47 1    
    94   47   48 1    
    95   47   49 1    
    96   47  170 1    
    97   48  171 1    
    98   48  172 1    
    99   48  173 1    
   100   49   50 am   BACKBONE|DICT|INTERRES
   101   49  174 1    
   102   50   51 2    
   103   50   52 1    
   104   52   53 1    
   105   52   54 1    
   106   52  175 1    
   107   53  176 1    
   108   53  177 1    
   109   53  178 1    
   110   54   55 am   BACKBONE|DICT|INTERRES
   111   54  179 1    
   112   55   56 2    
   113   55   57 1    
   114   57   58 1    
   115   57   59 1    
   116   57  180 1    
   117   58  181 1    
   118   58  182 1    
   119   58  183 1    
   120   59   60 am   BACKBONE|DICT|INTERRES
   121   59  184 1    
   122   60   61 2    
   123   60   62 1    
   124   62   63 1    
   125   62   64 1    
   126   62  185 1    
   127   63  186 1    
   128   63  187 1    
   129   63  188 1    
   130   64   65 am   BACKBONE|DICT|INTERRES
   131   64  189 1    
   132   65   66 2    
   133   67   68 2    
   134   67   69 am   BACKBONE|DICT|INTERRES
   135   69   70 1    
   136   69  190 1    
   137   70   71 1    
   138   70   72 1    
   139   70  191 1    
   140   71  192 1    
   141   71  193 1    
   142   71  194 1    
   143   72   73 2    
   144   72   74 am   BACKBONE|DICT|INTERRES
   145   74   75 1    
   146   74  195 1    
   147   75   76 1    
   148   75   77 1    
   149   75  196 1    
   150   76  197 1    
   151   76  198 1    
   152   76  199 1    
   153   77   78 2    
   154   77   79 am   BACKBONE|DICT|INTERRES
   155   79   80 1    
   156   79  200 1    
   157   80   81 1    
   158   80   82 1    
   159   80  201 1    
   160   81  202 1    
   161   81  203 1    
   162   81  204 1    
   163   82   83 2    
   164   82   84 am   BACKBONE|DICT|INTERRES
   165   84   85 1    
   166   84  205 1    
   167   85   86 1    
   168   85   87 1    
   169   85  206 1    
   170   86  207 1    
   171   86  208 1    
   172   86  209 1    
   173   87   88 2    
   174   87   89 am   BACKBONE|DICT|INTERRES
   175   89   90 1    
   176   89  210 1    
   177   90   91 1    
   178   90   92 1    
   179   90  211 1    
   180   91  212 1    
   181   91  213 1    
   182   91  214 1    
   183   92   93 2    
   184   92   94 am   BACKBONE|DICT|INTERRES
   185   94   95 1    
   186   94  215 1    
   187   95   96 1    
   188   95   97 1    
   189   95  216 1    
   190   96  217 1    
   191   96  218 1    
   192   96  219 1    
   193   97   98 2    
   194   97   99 am   BACKBONE|DICT|INTERRES
   195   99  100 1    
   196   99  220 1    
   197  100  101 1    
   198  100  102 1    
   199  100  221 1    
   200  101  222 1    
   201  101  223 1    
   202  101  224 1    
   203  102  103 2    
   204  102  104 am   BACKBONE|DICT|INTERRES
   205  104  105 1    
   206  104  225 1    
   207  105  106 1    
   208  105  107 1    
   209  105  226 1    
   210  106  227 1    
   211  106  228 1    
   212  106  229 1    
   213  107  108 2    
   214  107  109 am   BACKBONE|DICT|INTERRES
   215  109  110 1    
   216  109  230 1    
   217  110  111 1    
   218  110  112 1    
   219  110  231 1    
   220  111  232 1    
   221  111  233 1    
   222  111  234 1    
   223  112  113 2    
   224  112  114 am   BACKBONE|DICT|INTERRES
   225  114  115 1    
   226  114  235 1    
   227  115  116 1    
   228  115  117 1    
   229  115  236 1    
   230  116  237 1    
   231  116  238 1    
   232  116  239 1    
   233  117  118 2    
   234  117  119 am   BACKBONE|DICT|INTERRES
   235  119  120 1    
   236  119  240 1    
   237  120  121 1    
   238  120  124 1    
   239  120  241 1    
   240  121  122 am   BACKBONE|DICT|INTERRES
   241  121  123 2    
   242  122  242 1    
   243  122  243 1    
   244  124  125 1    
   245  124  244 1    
   246  124  245 1    
   247  125  126 1    
   248  126  246 1    
   249  126  247 1    
@<TRIPOS>SUBSTRUCTURE
     1 UNK         1 GROUP             0       ****    0 ROOT    
