@<TRIPOS>MOLECULE
3R540
247   249    1
SMALL
USER_CHARGES


@<TRIPOS>ATOM
      1 CA          0.1642  -11.8815  -45.1422 C.3       0 UNK        -0.1800 
      2 C           1.3502  -11.7890  -46.0916 C.2       0 UNK         0.5000 
      3 O           2.4915  -11.9203  -45.6503 O.2       0 UNK        -0.5000 
      4 N           1.0707  -11.5712  -47.3866 N.am      1 UNK        -0.5000 
      5 CA          2.0108  -11.4704  -48.5144 C.3       1 UNK         0.1400 
      6 C6          2.3731  -12.8458  -49.1562 C.3       23 UNK        -0.0398 
      7 S7          3.1653  -14.0880  -48.0665 S.3       23 UNK        -0.2404 
      8 C8          1.7529  -15.1370  -47.5951 C.3       23 UNK        -0.0205 
      9 C9          1.4375  -16.1734  -48.6624 C.ar      23 UNK        -0.0193 
     10 C10         0.4864  -15.9078  -49.6529 C.ar      23 UNK        -0.1150 
     11 C11         0.2297  -16.8445  -50.6573 C.ar      23 UNK        -0.0193 
     12 C12         0.8982  -18.0711  -50.6422 C.ar      23 UNK        -0.1150 
     13 C13         1.8378  -18.3566  -49.6487 C.ar      23 UNK        -0.0193 
     14 C14         2.1081  -17.4002  -48.6647 C.ar      23 UNK        -0.1150 
     15 C15         2.5875  -19.6813  -49.6691 C.3       23 UNK        -0.0205 
     16 S16         2.3069  -20.6695  -48.1684 S.3       23 UNK        -0.2404 
     17 C17         0.5131  -20.9910  -48.2581 C.3       23 UNK        -0.0398 
     18 CA          0.1288  -22.2262  -47.4120 C.3       11 UNK         0.1400 
     19 N           0.3493  -22.0163  -45.9775 N.am      11 UNK        -0.5000 
     20 C           0.3218  -22.9895  -45.0574 C.2       10 UNK         0.5000 
     21 O           0.1654  -24.1790  -45.3308 O.2       10 UNK        -0.5000 
     22 CA          0.4321  -22.5610  -43.5826 C.3       10 UNK         0.1400 
     23 CB          1.8976  -22.3426  -43.1789 C.3       10 UNK        -0.1800 
     24 N          -0.3560  -21.3627  -43.2857 N.am      10 UNK        -0.5000 
     25 C          -1.6937  -21.3061  -43.3611 C.2       9 UNK         0.5000 
     26 O          -2.3987  -22.2762  -43.6353 O.2       9 UNK        -0.5000 
     27 CA         -2.3597  -19.9369  -43.1336 C.3       9 UNK         0.1400 
     28 CB         -2.5323  -19.6582  -41.6336 C.3       9 UNK        -0.1800 
     29 N          -1.6308  -18.8347  -43.7606 N.am      9 UNK        -0.5000 
     30 C          -1.4372  -18.6955  -45.0803 C.2       8 UNK         0.5000 
     31 O          -1.8944  -19.4666  -45.9233 O.2       8 UNK        -0.5000 
     32 CA         -0.5258  -17.5350  -45.5259 C.3       8 UNK         0.1400 
     33 CB         -1.2889  -16.2015  -45.5245 C.3       8 UNK        -0.1800 
     34 N           0.6735  -17.4219  -44.6924 N.am      8 UNK        -0.5000 
     35 C           1.5964  -18.3880  -44.5716 C.2       7 UNK         0.5000 
     36 O           1.5566  -19.4525  -45.1847 O.2       7 UNK        -0.5000 
     37 CA          2.7097  -18.1560  -43.5393 C.3       7 UNK         0.1400 
     38 CB          3.8169  -17.2601  -44.1147 C.3       7 UNK        -0.1800 
     39 N           2.1745  -17.5762  -42.3069 N.am      7 UNK        -0.5000 
     40 C           1.4290  -18.2592  -41.4245 C.2       6 UNK         0.5000 
     41 O           1.1657  -19.4557  -41.5400 O.2       6 UNK        -0.5000 
     42 CA          0.8470  -17.4717  -40.2344 C.3       6 UNK         0.1400 
     43 CB          1.8503  -17.4337  -39.0723 C.3       6 UNK        -0.1800 
     44 N           0.4669  -16.1037  -40.5864 N.am      6 UNK        -0.5000 
     45 C          -0.5012  -15.7770  -41.4547 C.2       5 UNK         0.5000 
     46 O          -1.2346  -16.6015  -41.9971 O.2       5 UNK        -0.5000 
     47 CA         -0.6310  -14.2855  -41.8248 C.3       5 UNK         0.1400 
     48 CB         -1.6785  -13.5976  -40.9379 C.3       5 UNK        -0.1800 
     49 N           0.6375  -13.5542  -41.7347 N.am      5 UNK        -0.5000 
     50 C           1.7271  -13.8364  -42.4601 C.2       4 UNK         0.5000 
     51 O           1.7639  -14.7251  -43.3170 O.2       4 UNK        -0.5000 
     52 CA          2.9950  -13.0454  -42.1174 C.3       4 UNK         0.1400 
     53 CB          3.5857  -13.5186  -40.7753 C.3       4 UNK        -0.1800 
     54 N           3.9678  -13.2452  -43.1817 N.am      4 UNK        -0.5000 
     55 C           5.0023  -12.4467  -43.4581 C.2       3 UNK         0.5000 
     56 O           5.2825  -11.4395  -42.8054 O.2       3 UNK        -0.5000 
     57 CA          5.8667  -12.8155  -44.6725 C.3       3 UNK         0.1400 
     58 CB          5.7595  -14.2931  -45.1009 C.3       3 UNK        -0.1800 
     59 N           5.4641  -11.9656  -45.7850 N.am      3 UNK        -0.5000 
     60 C           6.2925  -11.2588  -46.5645 C.2       2 UNK         0.5000 
     61 O           7.5161  -11.2424  -46.4176 O.2       2 UNK        -0.5000 
     62 CA          5.6489  -10.4563  -47.7136 C.3       2 UNK         0.1400 
     63 CB          6.5849  -10.3030  -48.9264 C.3       2 UNK        -0.1800 
     64 N           4.4151  -11.1078  -48.1457 N.am      2 UNK        -0.5000 
     65 C           3.2090  -10.5386  -48.2147 C.2       1 UNK         0.5000 
     66 O           3.0060   -9.3356  -48.0357 O.2       1 UNK        -0.5000 
     67 C          -1.3121  -22.6947  -47.7020 C.2       11 UNK         0.5000 
     68 O          -1.4961  -23.6174  -48.4960 O.2       11 UNK        -0.5000 
     69 N          -2.3043  -22.1127  -47.0135 N.am      12 UNK        -0.5000 
     70 CA         -3.7045  -22.5307  -47.0893 C.3       12 UNK         0.1400 
     71 CB         -4.5974  -21.5168  -46.3602 C.3       12 UNK        -0.1800 
     72 C          -3.9349  -23.9584  -46.5605 C.2       12 UNK         0.5000 
     73 O          -4.6670  -24.7218  -47.1897 O.2       12 UNK        -0.5000 
     74 N          -3.2640  -24.3200  -45.4572 N.am      13 UNK        -0.5000 
     75 CA         -3.2482  -25.6746  -44.8950 C.3       13 UNK         0.1400 
     76 CB         -2.5626  -25.6537  -43.5209 C.3       13 UNK        -0.1800 
     77 C          -2.5812  -26.7077  -45.8266 C.2       13 UNK         0.5000 
     78 O          -2.9933  -27.8676  -45.8412 O.2       13 UNK        -0.5000 
     79 N          -1.6040  -26.2571  -46.6253 N.am      14 UNK        -0.5000 
     80 CA         -0.9610  -27.0139  -47.7028 C.3       14 UNK         0.1400 
     81 CB          0.4493  -26.4463  -47.9373 C.3       14 UNK        -0.1800 
     82 C          -1.7849  -27.0402  -49.0125 C.2       14 UNK         0.5000 
     83 O          -1.2963  -27.5611  -50.0158 O.2       14 UNK        -0.5000 
     84 N          -3.0103  -26.4943  -48.9825 N.am      15 UNK        -0.5000 
     85 CA         -4.0128  -26.4416  -50.0504 C.3       15 UNK         0.1400 
     86 CB         -4.3680  -27.8504  -50.5717 C.3       15 UNK        -0.1800 
     87 C          -3.6949  -25.4446  -51.1821 C.2       15 UNK         0.5000 
     88 O          -4.3323  -25.5085  -52.2340 O.2       15 UNK        -0.5000 
     89 N          -2.7746  -24.4996  -50.9482 N.am      16 UNK        -0.5000 
     90 CA         -2.5096  -23.3669  -51.8345 C.3       16 UNK         0.1400 
     91 CB         -1.0087  -23.0272  -51.8009 C.3       16 UNK        -0.1800 
     92 C          -3.4099  -22.1868  -51.4235 C.2       16 UNK         0.5000 
     93 O          -2.9198  -21.1631  -50.9477 O.2       16 UNK        -0.5000 
     94 N          -4.7235  -22.3768  -51.5839 N.am      17 UNK        -0.5000 
     95 CA         -5.7910  -21.4296  -51.2805 C.3       17 UNK         0.1400 
     96 CB         -5.9595  -21.2741  -49.7566 C.3       17 UNK        -0.1800 
     97 C          -7.0915  -21.9233  -51.9349 C.2       17 UNK         0.5000 
     98 O          -7.1177  -23.0285  -52.4855 O.2       17 UNK        -0.5000 
     99 N          -8.1508  -21.1069  -51.8413 N.am      18 UNK        -0.5000 
    100 CA        -9.5290  -21.3900  -52.2589 C.3       18 UNK         0.1400 
    101 CB       -10.1646  -22.4447  -51.3251 C.3       18 UNK        -0.1800 
    102 C         -9.6187  -21.7485  -53.7551 C.2       18 UNK         0.5000 
    103 O         -9.4734  -20.8586  -54.5933 O.2       18 UNK        -0.5000 
    104 N         -9.8110  -23.0366  -54.0708 N.am      19 UNK        -0.5000 
    105 CA        -9.8428  -23.5808  -55.4313 C.3       19 UNK         0.1400 
    106 CB       -10.2453  -25.0618  -55.3668 C.3       19 UNK        -0.1800 
    107 C         -8.5144  -23.4151  -56.1985 C.2       19 UNK         0.5000 
    108 O         -8.5340  -23.3401  -57.4274 O.2       19 UNK        -0.5000 
    109 N         -7.3949  -23.3293  -55.4665 N.am      20 UNK        -0.5000 
    110 CA        -6.0625  -23.0484  -56.0041 C.3       20 UNK         0.1400 
    111 CB        -5.0253  -23.8330  -55.1843 C.3       20 UNK        -0.1800 
    112 C         -5.7310  -21.5411  -56.0093 C.2       20 UNK         0.5000 
    113 O         -4.5902  -21.1872  -56.3140 O.2       20 UNK        -0.5000 
    114 N         -6.7025  -20.6847  -55.6505 N.am      21 UNK        -0.5000 
    115 CA        -6.6287  -19.2296  -55.4763 C.3       21 UNK         0.1400 
    116 CB        -6.2862  -18.5102  -56.7976 C.3       21 UNK        -0.1800 
    117 C         -5.6927  -18.8390  -54.3197 C.2       21 UNK         0.5000 
    118 O         -6.1695  -18.5036  -53.2357 O.2       21 UNK        -0.5000 
    119 N         -4.3854  -18.9379  -54.5650 N.am      22 UNK        -0.5000 
    120 CA        -3.2986  -18.8201  -53.5880 C.3       22 UNK         0.1400 
    121 C         -2.0391  -19.6329  -54.0244 C.2       22 UNK         0.5000 
    122 N         -2.1463  -20.5885  -54.9437 N.am      22 UNK        -0.7600 
    123 O         -0.9377  -19.4069  -53.5354 O.2       22 UNK        -0.5000 
    124 C124       -3.0178  -17.3424  -53.1925 C.3       23 UNK        -0.0398 
    125 S125       -2.3930  -17.1793  -51.4826 S.3       23 UNK        -0.2404 
    126 C126       -0.7272  -16.5208  -51.7923 C.3       23 UNK        -0.0205 
    127 H127       -0.0017  -12.9201  -44.8575 H         1 UNK         0.0600 
    128 H128       -0.7505  -11.5018  -45.5979 H         1 UNK         0.0600 
    129 H129        0.3576  -11.3046  -44.2378 H         1 UNK         0.0600 
    130 H130        0.1024  -11.4425  -47.6432 H         1 UNK         0.3000 
    131 H131        1.4510  -10.9329  -49.2816 H         1 UNK         0.0600 
    132 H132        1.4676  -13.2778  -49.5774 H         1 UNK         0.0800 
    133 H133        3.0257  -12.6934  -50.0174 H         1 UNK         0.0800 
    134 H134        1.9877  -15.6366  -46.6541 H         1 UNK         0.0800 
    135 H135        0.8806  -14.5137  -47.3986 H         1 UNK         0.0800 
    136 H136       -0.0408  -14.9649  -49.6583 H         1 UNK         0.1150 
    137 H137        0.6949  -18.7960  -51.4186 H         1 UNK         0.1150 
    138 H138        2.8443  -17.6114  -47.9016 H         1 UNK         0.1150 
    139 H139        2.3121  -20.2748  -50.5424 H         1 UNK         0.0800 
    140 H140        3.6553  -19.4789  -49.7609 H         1 UNK         0.0800 
    141 H141        0.2418  -21.1383  -49.3046 H         1 UNK         0.0800 
    142 H142       -0.0246  -20.1032  -47.9207 H         1 UNK         0.0800 
    143 H143        0.7823  -23.0459  -47.7185 H         1 UNK         0.0600 
    144 H144        0.5533  -21.0652  -45.6826 H         1 UNK         0.3000 
    145 H145        0.0362  -23.3757  -42.9728 H         1 UNK         0.0600 
    146 H146        1.9829  -22.1026  -42.1190 H         1 UNK         0.0600 
    147 H147        2.3580  -21.5325  -43.7437 H         1 UNK         0.0600 
    148 H148        2.4880  -23.2421  -43.3573 H         1 UNK         0.0600 
    149 H149        0.1584  -20.5355  -43.0044 H         1 UNK         0.3000 
    150 H150       -3.3527  -19.9731  -43.5856 H         1 UNK         0.0600 
    151 H151       -3.1021  -20.4537  -41.1518 H         1 UNK         0.0600 
    152 H152       -3.0699  -18.7249  -41.4652 H         1 UNK         0.0600 
    153 H153       -1.5715  -19.5875  -41.1239 H         1 UNK         0.0600 
    154 H154       -1.2717  -18.1165  -43.1372 H         1 UNK         0.3000 
    155 H155       -0.1984  -17.7396  -46.5476 H         1 UNK         0.0600 
    156 H156       -2.1124  -16.2284  -46.2389 H         1 UNK         0.0600 
    157 H157       -0.6428  -15.3704  -45.8032 H         1 UNK         0.0600 
    158 H158       -1.7137  -15.9771  -44.5466 H         1 UNK         0.0600 
    159 H159        0.7868  -16.5740  -44.1511 H         1 UNK         0.3000 
    160 H160        3.1546  -19.1237  -43.2973 H         1 UNK         0.0600 
    161 H161        3.4274  -16.3056  -44.4652 H         1 UNK         0.0600 
    162 H162        4.2982  -17.7421  -44.9665 H         1 UNK         0.0600 
    163 H163        4.5905  -17.0589  -43.3737 H         1 UNK         0.0600 
    164 H164        2.2852  -16.5784  -42.1919 H         1 UNK         0.3000 
    165 H165       -0.0498  -17.9944  -39.8959 H         1 UNK         0.0600 
    166 H166        1.4210  -16.9472  -38.1962 H         1 UNK         0.0600 
    167 H167        2.1392  -18.4422  -38.7735 H         1 UNK         0.0600 
    168 H168        2.7610  -16.8975  -39.3425 H         1 UNK         0.0600 
    169 H169        1.0140  -15.3607  -40.1786 H         1 UNK         0.3000 
    170 H170       -0.9729  -14.2343  -42.8603 H         1 UNK         0.0600 
    171 H171       -1.3790  -13.5937  -39.8891 H         1 UNK         0.0600 
    172 H172       -2.6405  -14.1080  -41.0030 H         1 UNK         0.0600 
    173 H173       -1.8392  -12.5644  -41.2464 H         1 UNK         0.0600 
    174 H174        0.6821  -12.8162  -41.0466 H         1 UNK         0.3000 
    175 H175        2.7337  -11.9867  -42.0607 H         1 UNK         0.0600 
    176 H176        3.8519  -14.5761  -40.8051 H         1 UNK         0.0600 
    177 H177        4.4837  -12.9574  -40.5171 H         1 UNK         0.0600 
    178 H178        2.8773  -13.3794  -39.9580 H         1 UNK         0.0600 
    179 H179        3.7367  -14.0044  -43.8099 H         1 UNK         0.3000 
    180 H180        6.9022  -12.6184  -44.3878 H         1 UNK         0.0600 
    181 H181        6.4712  -14.5177  -45.8953 H         1 UNK         0.0600 
    182 H182        4.7658  -14.5388  -45.4760 H         1 UNK         0.0600 
    183 H183        5.9829  -14.9625  -44.2693 H         1 UNK         0.0600 
    184 H184        4.4589  -11.8818  -45.9213 H         1 UNK         0.3000 
    185 H185        5.4371   -9.4627  -47.3139 H         1 UNK         0.0600 
    186 H186        6.1047   -9.7355  -49.7237 H         1 UNK         0.0600 
    187 H187        7.4971   -9.7700  -48.6559 H         1 UNK         0.0600 
    188 H188        6.8757  -11.2723  -49.3330 H         1 UNK         0.0600 
    189 H189        4.4671  -12.1138  -48.2521 H         1 UNK         0.3000 
    190 H190       -2.0929  -21.3178  -46.4164 H         1 UNK         0.3000 
    191 H191       -3.9793  -22.5335  -48.1447 H         1 UNK         0.0600 
    192 H192       -4.4718  -20.5145  -46.7702 H         1 UNK         0.0600 
    193 H193       -4.3728  -21.4729  -45.2950 H         1 UNK         0.0600 
    194 H194       -5.6504  -21.7813  -46.4631 H         1 UNK         0.0600 
    195 H195       -2.7351  -23.6121  -44.9540 H         1 UNK         0.3000 
    196 H196       -4.2850  -25.9850  -44.7505 H         1 UNK         0.0600 
    197 H197       -3.0690  -24.9714  -42.8379 H         1 UNK         0.0600 
    198 H198       -1.5212  -25.3414  -43.5941 H         1 UNK         0.0600 
    199 H199       -2.5768  -26.6433  -43.0626 H         1 UNK         0.0600 
    200 H200       -1.2925  -25.3002  -46.5060 H         1 UNK         0.3000 
    201 H201       -0.8507  -28.0504  -47.3782 H         1 UNK         0.0600 
    202 H202        1.0279  -26.4317  -47.0134 H         1 UNK         0.0600 
    203 H203        0.4165  -25.4297  -48.3271 H         1 UNK         0.0600 
    204 H204        1.0022  -27.0529  -48.6553 H         1 UNK         0.0600 
    205 H205       -3.3016  -26.0500  -48.1200 H         1 UNK         0.3000 
    206 H206       -4.9123  -26.0493  -49.5746 H         1 UNK         0.0600 
    207 H207       -3.5577  -28.2845  -51.1576 H         1 UNK         0.0600 
    208 H208       -4.5934  -28.5308  -49.7505 H         1 UNK         0.0600 
    209 H209       -5.2487  -27.8180  -51.2141 H         1 UNK         0.0600 
    210 H210       -2.3275  -24.4573  -50.0358 H         1 UNK         0.3000 
    211 H211       -2.7565  -23.6263  -52.8661 H         1 UNK         0.0600 
    212 H212       -0.6761  -22.7401  -50.8053 H         1 UNK         0.0600 
    213 H213       -0.7836  -22.1971  -52.4715 H         1 UNK         0.0600 
    214 H214       -0.4067  -23.8775  -52.1210 H         1 UNK         0.0600 
    215 H215       -5.0554  -23.2499  -51.9818 H         1 UNK         0.3000 
    216 H216       -5.5346  -20.4643  -51.7135 H         1 UNK         0.0600 
    217 H217       -6.7950  -20.6193  -49.5083 H         1 UNK         0.0600 
    218 H218       -5.0729  -20.8272  -49.3083 H         1 UNK         0.0600 
    219 H219       -6.1411  -22.2351  -49.2738 H         1 UNK         0.0600 
    220 H220       -8.0106  -20.1965  -51.4256 H         1 UNK         0.3000 
    221 H221      -10.0897  -20.4623  -52.1349 H         1 UNK         0.0600 
    222 H222       -9.6217  -23.3904  -51.3329 H         1 UNK         0.0600 
    223 H223      -10.1819  -22.0879  -50.2953 H         1 UNK         0.0600 
    224 H224      -11.1975  -22.6503  -51.6092 H         1 UNK         0.0600 
    225 H225       -9.8816  -23.7051  -53.3173 H         1 UNK         0.3000 
    226 H226      -10.6111  -23.0403  -55.9880 H         1 UNK         0.0600 
    227 H227      -11.2229  -25.1856  -54.9005 H         1 UNK         0.0600 
    228 H228      -10.3064  -25.4944  -56.3663 H         1 UNK         0.0600 
    229 H229       -9.5237  -25.6497  -54.7980 H         1 UNK         0.0600 
    230 H230       -7.4651  -23.3851  -54.4545 H         1 UNK         0.3000 
    231 H231       -6.0011  -23.3943  -57.0378 H         1 UNK         0.0600 
    232 H232       -4.0236  -23.7212  -55.6008 H         1 UNK         0.0600 
    233 H233       -5.2529  -24.8990  -55.1733 H         1 UNK         0.0600 
    234 H234       -4.9899  -23.4905  -54.1515 H         1 UNK         0.0600 
    235 H235       -7.6041  -21.0776  -55.4039 H         1 UNK         0.3000 
    236 H236       -7.6304  -18.9081  -55.1872 H         1 UNK         0.0600 
    237 H237       -5.3148  -18.8006  -57.1973 H         1 UNK         0.0600 
    238 H238       -7.0339  -18.7248  -57.5611 H         1 UNK         0.0600 
    239 H239       -6.2697  -17.4289  -56.6562 H         1 UNK         0.0600 
    240 H240       -4.1067  -19.2728  -55.4788 H         1 UNK         0.3000 
    241 H241       -3.6498  -19.3343  -52.6938 H         1 UNK         0.0600 
    242 H242       -1.3135  -21.0857  -55.2153 H         1 UNK         0.3800 
    243 H243       -3.0299  -20.8305  -55.3839 H         1 UNK         0.3800 
    244 H244       -2.3446  -16.8684  -53.9081 H         1 UNK         0.0800 
    245 H245       -3.9383  -16.7593  -53.2323 H         1 UNK         0.0800 
    246 H246       -0.7906  -15.4425  -51.9454 H         1 UNK         0.0800 
    247 H247       -0.3252  -16.9356  -52.7176 H         1 UNK         0.0800 
@<TRIPOS>BOND
     1    1    2 1    
     2    1  127 1    
     3    1  128 1    
     4    1  129 1    
     5    2    3 2    
     6    2    4 am   BACKBONE|DICT|INTERRES
     7    4    5 1    
     8    4  130 1    
     9    5    6 1    
    10    5   65 1    
    11    5  131 1    
    12    6    7 1    
    13    6  132 1    
    14    6  133 1    
    15    7    8 1    
    16    8    9 1    
    17    8  134 1    
    18    8  135 1    
    19    9   10 ar   
    20    9   14 ar   
    21   10   11 ar   
    22   10  136 1    
    23   11   12 ar   
    24   11  126 1    
    25   12   13 ar   
    26   12  137 1    
    27   13   14 ar   
    28   13   15 1    
    29   14  138 1    
    30   15   16 1    
    31   15  139 1    
    32   15  140 1    
    33   16   17 1    
    34   17   18 1    
    35   17  141 1    
    36   17  142 1    
    37   18   19 1    
    38   18   67 1    
    39   18  143 1    
    40   19   20 am   BACKBONE|DICT|INTERRES
    41   19  144 1    
    42   20   21 2    
    43   20   22 1    
    44   22   23 1    
    45   22   24 1    
    46   22  145 1    
    47   23  146 1    
    48   23  147 1    
    49   23  148 1    
    50   24   25 am   BACKBONE|DICT|INTERRES
    51   24  149 1    
    52   25   26 2    
    53   25   27 1    
    54   27   28 1    
    55   27   29 1    
    56   27  150 1    
    57   28  151 1    
    58   28  152 1    
    59   28  153 1    
    60   29   30 am   BACKBONE|DICT|INTERRES
    61   29  154 1    
    62   30   31 2    
    63   30   32 1    
    64   32   33 1    
    65   32   34 1    
    66   32  155 1    
    67   33  156 1    
    68   33  157 1    
    69   33  158 1    
    70   34   35 am   BACKBONE|DICT|INTERRES
    71   34  159 1    
    72   35   36 2    
    73   35   37 1    
    74   37   38 1    
    75   37   39 1    
    76   37  160 1    
    77   38  161 1    
    78   38  162 1    
    79   38  163 1    
    80   39   40 am   BACKBONE|DICT|INTERRES
    81   39  164 1    
    82   40   41 2    
    83   40   42 1    
    84   42   43 1    
    85   42   44 1    
    86   42  165 1    
    87   43  166 1    
    88   43  167 1    
    89   43  168 1    
    90   44   45 am   BACKBONE|DICT|INTERRES
    91   44  169 1    
    92   45   46 2    
    93   45   47 1    
    94   47   48 1    
    95   47   49 1    
    96   47  170 1    
    97   48  171 1    
    98   48  172 1    
    99   48  173 1    
   100   49   50 am   BACKBONE|DICT|INTERRES
   101   49  174 1    
   102   50   51 2    
   103   50   52 1    
   104   52   53 1    
   105   52   54 1    
   106   52  175 1    
   107   53  176 1    
   108   53  177 1    
   109   53  178 1    
   110   54   55 am   BACKBONE|DICT|INTERRES
   111   54  179 1    
   112   55   56 2    
   113   55   57 1    
   114   57   58 1    
   115   57   59 1    
   116   57  180 1    
   117   58  181 1    
   118   58  182 1    
   119   58  183 1    
   120   59   60 am   BACKBONE|DICT|INTERRES
   121   59  184 1    
   122   60   61 2    
   123   60   62 1    
   124   62   63 1    
   125   62   64 1    
   126   62  185 1    
   127   63  186 1    
   128   63  187 1    
   129   63  188 1    
   130   64   65 am   BACKBONE|DICT|INTERRES
   131   64  189 1    
   132   65   66 2    
   133   67   68 2    
   134   67   69 am   BACKBONE|DICT|INTERRES
   135   69   70 1    
   136   69  190 1    
   137   70   71 1    
   138   70   72 1    
   139   70  191 1    
   140   71  192 1    
   141   71  193 1    
   142   71  194 1    
   143   72   73 2    
   144   72   74 am   BACKBONE|DICT|INTERRES
   145   74   75 1    
   146   74  195 1    
   147   75   76 1    
   148   75   77 1    
   149   75  196 1    
   150   76  197 1    
   151   76  198 1    
   152   76  199 1    
   153   77   78 2    
   154   77   79 am   BACKBONE|DICT|INTERRES
   155   79   80 1    
   156   79  200 1    
   157   80   81 1    
   158   80   82 1    
   159   80  201 1    
   160   81  202 1    
   161   81  203 1    
   162   81  204 1    
   163   82   83 2    
   164   82   84 am   BACKBONE|DICT|INTERRES
   165   84   85 1    
   166   84  205 1    
   167   85   86 1    
   168   85   87 1    
   169   85  206 1    
   170   86  207 1    
   171   86  208 1    
   172   86  209 1    
   173   87   88 2    
   174   87   89 am   BACKBONE|DICT|INTERRES
   175   89   90 1    
   176   89  210 1    
   177   90   91 1    
   178   90   92 1    
   179   90  211 1    
   180   91  212 1    
   181   91  213 1    
   182   91  214 1    
   183   92   93 2    
   184   92   94 am   BACKBONE|DICT|INTERRES
   185   94   95 1    
   186   94  215 1    
   187   95   96 1    
   188   95   97 1    
   189   95  216 1    
   190   96  217 1    
   191   96  218 1    
   192   96  219 1    
   193   97   98 2    
   194   97   99 am   BACKBONE|DICT|INTERRES
   195   99  100 1    
   196   99  220 1    
   197  100  101 1    
   198  100  102 1    
   199  100  221 1    
   200  101  222 1    
   201  101  223 1    
   202  101  224 1    
   203  102  103 2    
   204  102  104 am   BACKBONE|DICT|INTERRES
   205  104  105 1    
   206  104  225 1    
   207  105  106 1    
   208  105  107 1    
   209  105  226 1    
   210  106  227 1    
   211  106  228 1    
   212  106  229 1    
   213  107  108 2    
   214  107  109 am   BACKBONE|DICT|INTERRES
   215  109  110 1    
   216  109  230 1    
   217  110  111 1    
   218  110  112 1    
   219  110  231 1    
   220  111  232 1    
   221  111  233 1    
   222  111  234 1    
   223  112  113 2    
   224  112  114 am   BACKBONE|DICT|INTERRES
   225  114  115 1    
   226  114  235 1    
   227  115  116 1    
   228  115  117 1    
   229  115  236 1    
   230  116  237 1    
   231  116  238 1    
   232  116  239 1    
   233  117  118 2    
   234  117  119 am   BACKBONE|DICT|INTERRES
   235  119  120 1    
   236  119  240 1    
   237  120  121 1    
   238  120  124 1    
   239  120  241 1    
   240  121  122 am   BACKBONE|DICT|INTERRES
   241  121  123 2    
   242  122  242 1    
   243  122  243 1    
   244  124  125 1    
   245  124  244 1    
   246  124  245 1    
   247  125  126 1    
   248  126  246 1    
   249  126  247 1    
@<TRIPOS>SUBSTRUCTURE
     1 UNK         1 GROUP             0       ****    0 ROOT    
