@<TRIPOS>MOLECULE
3R540
247   249    1
SMALL
USER_CHARGES


@<TRIPOS>ATOM
      1 CA         -4.1371  -14.2751  -48.2928 C.3       0 UNK        -0.1800 
      2 C          -2.6166  -14.2632  -48.3348 C.2       0 UNK         0.5000 
      3 O          -2.0031  -13.2201  -48.1076 O.2       0 UNK        -0.5000 
      4 N          -2.0090  -15.4230  -48.6169 N.am      1 UNK        -0.5000 
      5 CA         -0.5619  -15.6165  -48.7953 C.3       1 UNK         0.1400 
      6 C6         -0.2115  -17.0335  -49.3119 C.3       23 UNK        -0.0398 
      7 S7         -1.1521  -17.5447  -50.7870 S.3       23 UNK        -0.2404 
      8 C8         -2.0573  -18.9895  -50.1513 C.3       23 UNK        -0.0205 
      9 C9         -3.2853  -18.5767  -49.3583 C.ar      23 UNK        -0.0193 
     10 C10        -4.4989  -18.3942  -50.0185 C.ar      23 UNK        -0.1150 
     11 C11        -5.6212  -17.9245  -49.3367 C.ar      23 UNK        -0.0193 
     12 C12        -5.5360  -17.6975  -47.9600 C.ar      23 UNK        -0.1150 
     13 C13        -4.3385  -17.9159  -47.2699 C.ar      23 UNK        -0.0193 
     14 C14        -3.2127  -18.3514  -47.9825 C.ar      23 UNK        -0.1150 
     15 C15        -4.2865  -17.6015  -45.7757 C.3       23 UNK        -0.0205 
     16 S16        -2.9741  -18.4615  -44.8462 S.3       23 UNK        -0.2404 
     17 C17        -3.6301  -20.1603  -44.7141 C.3       23 UNK        -0.0398 
     18 CA         -3.0225  -21.1675  -45.7281 C.3       11 UNK         0.1400 
     19 N          -1.5720  -21.0369  -45.8817 N.am      11 UNK        -0.5000 
     20 C          -0.8475  -21.5718  -46.8735 C.2       10 UNK         0.5000 
     21 O          -1.3298  -22.2047  -47.8142 O.2       10 UNK        -0.5000 
     22 CA          0.6792  -21.3921  -46.7743 C.3       10 UNK         0.1400 
     23 CB          1.1094  -20.0648  -47.4142 C.3       10 UNK        -0.1800 
     24 N           1.1601  -21.4364  -45.3911 N.am      10 UNK        -0.5000 
     25 C           1.1506  -22.5404  -44.6278 C.2       9 UNK         0.5000 
     26 O           0.7777  -23.6409  -45.0305 O.2       9 UNK        -0.5000 
     27 CA          1.5785  -22.3845  -43.1547 C.3       9 UNK         0.1400 
     28 CB          3.0937  -22.5882  -43.0114 C.3       9 UNK        -0.1800 
     29 N           1.2116  -21.0912  -42.5768 N.am      9 UNK        -0.5000 
     30 C          -0.0321  -20.5972  -42.5037 C.2       8 UNK         0.5000 
     31 O          -1.0321  -21.2308  -42.8422 O.2       8 UNK        -0.5000 
     32 CA         -0.1904  -19.1430  -42.0172 C.3       8 UNK         0.1400 
     33 CB         -0.7905  -19.1097  -40.6045 C.3       8 UNK        -0.1800 
     34 N           1.0409  -18.3460  -42.0267 N.am      8 UNK        -0.5000 
     35 C           1.7910  -18.0407  -43.0935 C.2       7 UNK         0.5000 
     36 O           1.5615  -18.4652  -44.2280 O.2       7 UNK        -0.5000 
     37 CA          2.9864  -17.0978  -42.8298 C.3       7 UNK         0.1400 
     38 CB          3.8591  -16.8711  -44.0775 C.3       7 UNK        -0.1800 
     39 N           2.5611  -15.7965  -42.3068 N.am      7 UNK        -0.5000 
     40 C           2.1541  -15.5461  -41.0539 C.2       6 UNK         0.5000 
     41 O           2.0847  -16.4126  -40.1794 O.2       6 UNK        -0.5000 
     42 CA          1.7525  -14.0881  -40.7437 C.3       6 UNK         0.1400 
     43 CB          1.6098  -13.8017  -39.2346 C.3       6 UNK        -0.1800 
     44 N           2.6414  -13.1157  -41.3850 N.am      6 UNK        -0.5000 
     45 C           3.9579  -12.9529  -41.1806 C.2       5 UNK         0.5000 
     46 O           4.6110  -13.5815  -40.3470 O.2       5 UNK        -0.5000 
     47 CA          4.6786  -11.9226  -42.0728 C.3       5 UNK         0.1400 
     48 CB          5.4336  -12.6390  -43.2039 C.3       5 UNK        -0.1800 
     49 N           3.7762  -10.9352  -42.6671 N.am      5 UNK        -0.5000 
     50 C           3.1677   -9.9414  -42.0034 C.2       4 UNK         0.5000 
     51 O           3.3464   -9.7108  -40.8071 O.2       4 UNK        -0.5000 
     52 CA          2.1900   -9.0599  -42.8089 C.3       4 UNK         0.1400 
     53 CB          2.8423   -7.7131  -43.1576 C.3       4 UNK        -0.1800 
     54 N           1.7273   -9.6963  -44.0462 N.am      4 UNK        -0.5000 
     55 C           0.8756  -10.7291  -44.1032 C.2       3 UNK         0.5000 
     56 O           0.3194  -11.1983  -43.1069 O.2       3 UNK        -0.5000 
     57 CA          0.6138  -11.3393  -45.5011 C.3       3 UNK         0.1400 
     58 CB          1.8062  -11.1759  -46.4705 C.3       3 UNK        -0.1800 
     59 N           0.2142  -12.7494  -45.4562 N.am      3 UNK        -0.5000 
     60 C           0.8751  -13.7646  -44.8781 C.2       2 UNK         0.5000 
     61 O           1.9320  -13.6504  -44.2539 O.2       2 UNK        -0.5000 
     62 CA          0.2563  -15.1633  -45.0440 C.3       2 UNK         0.1400 
     63 CB         -0.7627  -15.4409  -43.9297 C.3       2 UNK        -0.1800 
     64 N          -0.3702  -15.3829  -46.3470 N.am      2 UNK        -0.5000 
     65 C           0.2700  -15.3350  -47.5255 C.2       1 UNK         0.5000 
     66 O           1.4745  -15.1053  -47.6405 O.2       1 UNK        -0.5000 
     67 C          -3.3791  -22.6112  -45.3244 C.2       11 UNK         0.5000 
     68 O          -4.2531  -23.2235  -45.9390 O.2       11 UNK        -0.5000 
     69 N          -2.6540  -23.1370  -44.3236 N.am      12 UNK        -0.5000 
     70 CA         -2.7869  -24.4937  -43.7840 C.3       12 UNK         0.1400 
     71 CB         -1.8789  -24.6376  -42.5543 C.3       12 UNK        -0.1800 
     72 C          -2.4838  -25.6016  -44.8112 C.2       12 UNK         0.5000 
     73 O          -3.0702  -26.6807  -44.7305 O.2       12 UNK        -0.5000 
     74 N          -1.6215  -25.2970  -45.7900 N.am      13 UNK        -0.5000 
     75 CA         -1.3157  -26.1269  -46.9572 C.3       13 UNK         0.1400 
     76 CB          0.0403  -25.6839  -47.5345 C.3       13 UNK        -0.1800 
     77 C          -2.4166  -26.1080  -48.0430 C.2       13 UNK         0.5000 
     78 O          -2.1631  -26.5709  -49.1555 O.2       13 UNK        -0.5000 
     79 N          -3.6003  -25.5586  -47.7293 N.am      14 UNK        -0.5000 
     80 CA         -4.7753  -25.4109  -48.5922 C.3       14 UNK         0.1400 
     81 CB         -5.3511  -26.7875  -48.9869 C.3       14 UNK        -0.1800 
     82 C          -4.4724  -24.5090  -49.8005 C.2       14 UNK         0.5000 
     83 O          -4.7211  -24.8943  -50.9429 O.2       14 UNK        -0.5000 
     84 N          -3.8851  -23.3388  -49.5136 N.am      15 UNK        -0.5000 
     85 CA         -3.3925  -22.3485  -50.4751 C.3       15 UNK         0.1400 
     86 CB         -4.5565  -21.7006  -51.2503 C.3       15 UNK        -0.1800 
     87 C          -2.2933  -22.9201  -51.3942 C.2       15 UNK         0.5000 
     88 O          -2.3212  -22.7077  -52.6091 O.2       15 UNK        -0.5000 
     89 N          -1.3664  -23.6700  -50.7783 N.am      16 UNK        -0.5000 
     90 CA         -0.2925  -24.4466  -51.4063 C.3       16 UNK         0.1400 
     91 CB          0.7640  -23.5041  -52.0201 C.3       16 UNK        -0.1800 
     92 C          -0.8461  -25.4745  -52.4159 C.2       16 UNK         0.5000 
     93 O          -0.4519  -25.4714  -53.5819 O.2       16 UNK        -0.5000 
     94 N          -1.8000  -26.2988  -51.9568 N.am      17 UNK        -0.5000 
     95 CA         -2.5916  -27.2560  -52.7414 C.3       17 UNK         0.1400 
     96 CB         -1.7165  -28.4452  -53.1876 C.3       17 UNK        -0.1800 
     97 C          -3.3386  -26.5780  -53.9124 C.2       17 UNK         0.5000 
     98 O          -3.3301  -27.0798  -55.0375 O.2       17 UNK        -0.5000 
     99 N          -3.9298  -25.4136  -53.6131 N.am      18 UNK        -0.5000 
    100 CA        -4.6282  -24.4727  -54.4927 C.3       18 UNK         0.1400 
    101 CB        -5.8706  -25.1319  -55.1245 C.3       18 UNK        -0.1800 
    102 C         -3.7486  -23.7735  -55.5527 C.2       18 UNK         0.5000 
    103 O         -4.2798  -22.9652  -56.3160 O.2       18 UNK        -0.5000 
    104 N         -2.4365  -24.0504  -55.5933 N.am      19 UNK        -0.5000 
    105 CA        -1.5160  -23.5229  -56.6039 C.3       19 UNK         0.1400 
    106 CB        -0.2012  -24.3154  -56.5731 C.3       19 UNK        -0.1800 
    107 C         -1.2360  -22.0168  -56.4583 C.2       19 UNK         0.5000 
    108 O         -0.9491  -21.3624  -57.4616 O.2       19 UNK        -0.5000 
    109 N         -1.3328  -21.4888  -55.2303 N.am      20 UNK        -0.5000 
    110 CA        -1.1496  -20.0655  -54.9366 C.3       20 UNK         0.1400 
    111 CB        -0.5091  -19.9250  -53.5493 C.3       20 UNK        -0.1800 
    112 C         -2.4607  -19.2578  -55.0422 C.2       20 UNK         0.5000 
    113 O         -2.4172  -18.0307  -54.9221 O.2       20 UNK        -0.5000 
    114 N         -3.5896  -19.9494  -55.2772 N.am      21 UNK        -0.5000 
    115 CA        -4.9554  -19.4349  -55.4168 C.3       21 UNK         0.1400 
    116 CB        -5.1051  -18.6419  -56.7336 C.3       21 UNK        -0.1800 
    117 C         -5.3946  -18.6506  -54.1656 C.2       21 UNK         0.5000 
    118 O         -5.8193  -19.2653  -53.1891 O.2       21 UNK        -0.5000 
    119 N         -5.2527  -17.3238  -54.2073 N.am      22 UNK        -0.5000 
    120 CA        -5.3433  -16.4096  -53.0640 C.3       22 UNK         0.1400 
    121 C         -4.5155  -15.1184  -53.3155 C.2       22 UNK         0.5000 
    122 N         -3.3857  -15.2128  -54.0110 N.am      22 UNK        -0.7600 
    123 O         -4.8876  -14.0260  -52.8969 O.2       22 UNK        -0.5000 
    124 C124       -6.8008  -16.2000  -52.5619 C.3       23 UNK        -0.0398 
    125 S125       -6.9156  -15.9330  -50.7557 S.3       23 UNK        -0.2404 
    126 C126       -6.9107  -17.6346  -50.0915 C.3       23 UNK        -0.0205 
    127 H127       -4.5360  -13.3779  -48.7660 H         1 UNK         0.0600 
    128 H128       -4.4872  -14.3054  -47.2613 H         1 UNK         0.0600 
    129 H129       -4.5424  -15.1375  -48.8211 H         1 UNK         0.0600 
    130 H130       -2.5753  -16.2399  -48.8043 H         1 UNK         0.3000 
    131 H131       -0.2393  -14.8964  -49.5501 H         1 UNK         0.0600 
    132 H132       -0.3541  -17.7689  -48.5214 H         1 UNK         0.0800 
    133 H133        0.8472  -17.0851  -49.5733 H         1 UNK         0.0800 
    134 H134       -1.4015  -19.6252  -49.5552 H         1 UNK         0.0800 
    135 H135       -2.3676  -19.5868  -51.0069 H         1 UNK         0.0800 
    136 H136       -4.5584  -18.6031  -51.0741 H         1 UNK         0.1150 
    137 H137       -6.4016  -17.3278  -47.4280 H         1 UNK         0.1150 
    138 H138       -2.2714  -18.5000  -47.4754 H         1 UNK         0.1150 
    139 H139       -4.1300  -16.5280  -45.6647 H         1 UNK         0.0800 
    140 H140       -5.2490  -17.8193  -45.3104 H         1 UNK         0.0800 
    141 H141       -4.7161  -20.1384  -44.8179 H         1 UNK         0.0800 
    142 H142       -3.4410  -20.4791  -43.6877 H         1 UNK         0.0800 
    143 H143       -3.4758  -20.9734  -46.7025 H         1 UNK         0.0600 
    144 H144       -1.0921  -20.5601  -45.1322 H         1 UNK         0.3000 
    145 H145        1.1474  -22.2085  -47.3282 H         1 UNK         0.0600 
    146 H146        0.6815  -19.2096  -46.8892 H         1 UNK         0.0600 
    147 H147        2.1938  -19.9544  -47.3995 H         1 UNK         0.0600 
    148 H148        0.7931  -20.0125  -48.4565 H         1 UNK         0.0600 
    149 H149        1.4536  -20.5571  -44.9811 H         1 UNK         0.3000 
    150 H150        1.0730  -23.1597  -42.5768 H         1 UNK         0.0600 
    151 H151        3.3972  -23.5553  -43.4148 H         1 UNK         0.0600 
    152 H152        3.3983  -22.5643  -41.9650 H         1 UNK         0.0600 
    153 H153        3.6555  -21.8192  -43.5434 H         1 UNK         0.0600 
    154 H154        1.9701  -20.4988  -42.2746 H         1 UNK         0.3000 
    155 H155       -0.8942  -18.6591  -42.6953 H         1 UNK         0.0600 
    156 H156       -1.7311  -19.6609  -40.5645 H         1 UNK         0.0600 
    157 H157       -1.0013  -18.0874  -40.2899 H         1 UNK         0.0600 
    158 H158       -0.1161  -19.5548  -39.8718 H         1 UNK         0.0600 
    159 H159        1.3063  -17.9169  -41.1447 H         1 UNK         0.3000 
    160 H160        3.6134  -17.5826  -42.0787 H         1 UNK         0.0600 
    161 H161        4.7356  -16.2686  -43.8378 H         1 UNK         0.0600 
    162 H162        3.3154  -16.3617  -44.8729 H         1 UNK         0.0600 
    163 H163        4.2188  -17.8185  -44.4810 H         1 UNK         0.0600 
    164 H164        2.5564  -15.0251  -42.9675 H         1 UNK         0.3000 
    165 H165        0.7714  -13.9400  -41.1963 H         1 UNK         0.0600 
    166 H166        2.5373  -13.9916  -38.6939 H         1 UNK         0.0600 
    167 H167        1.3235  -12.7652  -39.0562 H         1 UNK         0.0600 
    168 H168        0.8390  -14.4319  -38.7896 H         1 UNK         0.0600 
    169 H169        2.2196  -12.5778  -42.1317 H         1 UNK         0.3000 
    170 H170        5.4056  -11.3963  -41.4509 H         1 UNK         0.0600 
    171 H171        4.7518  -13.1749  -43.8660 H         1 UNK         0.0600 
    172 H172        6.0038  -11.9330  -43.8079 H         1 UNK         0.0600 
    173 H173        6.1402  -13.3670  -42.8032 H         1 UNK         0.0600 
    174 H174        3.5645  -11.0536  -43.6465 H         1 UNK         0.3000 
    175 H175        1.3227   -8.8663  -42.1740 H         1 UNK         0.0600 
    176 H176        3.7143   -7.8421  -43.8001 H         1 UNK         0.0600 
    177 H177        2.1403   -7.0554  -43.6705 H         1 UNK         0.0600 
    178 H178        3.1724   -7.1938  -42.2568 H         1 UNK         0.0600 
    179 H179        2.1334   -9.3550  -44.9055 H         1 UNK         0.3000 
    180 H180       -0.2352  -10.7961  -45.9179 H         1 UNK         0.0600 
    181 H181        2.7202  -11.6125  -46.0656 H         1 UNK         0.0600 
    182 H182        2.0047  -10.1273  -46.6938 H         1 UNK         0.0600 
    183 H183        1.6030  -11.6663  -47.4229 H         1 UNK         0.0600 
    184 H184       -0.6417  -12.9705  -45.9470 H         1 UNK         0.3000 
    185 H185        1.0649  -15.8867  -44.9545 H         1 UNK         0.0600 
    186 H186       -1.0698  -16.4849  -43.9360 H         1 UNK         0.0600 
    187 H187       -0.3382  -15.2421  -42.9461 H         1 UNK         0.0600 
    188 H188       -1.6555  -14.8233  -44.0334 H         1 UNK         0.0600 
    189 H189       -1.3592  -15.5833  -46.3507 H         1 UNK         0.3000 
    190 H190       -1.9724  -22.5382  -43.8638 H         1 UNK         0.3000 
    191 H191       -3.8227  -24.6179  -43.4618 H         1 UNK         0.0600 
    192 H192       -0.8264  -24.5532  -42.8239 H         1 UNK         0.0600 
    193 H193       -2.0973  -23.8737  -41.8076 H         1 UNK         0.0600 
    194 H194       -2.0180  -25.6089  -42.0782 H         1 UNK         0.0600 
    195 H195       -1.1303  -24.4131  -45.7316 H         1 UNK         0.3000 
    196 H196       -1.2174  -27.1626  -46.6266 H         1 UNK         0.0600 
    197 H197        0.8278  -25.7537  -46.7841 H         1 UNK         0.0600 
    198 H198        0.0088  -24.6541  -47.8909 H         1 UNK         0.0600 
    199 H199        0.3422  -26.3153  -48.3709 H         1 UNK         0.0600 
    200 H200       -3.6947  -25.1412  -46.8118 H         1 UNK         0.3000 
    201 H201       -5.5321  -24.8933  -48.0010 H         1 UNK         0.0600 
    202 H202       -6.2878  -26.6737  -49.5337 H         1 UNK         0.0600 
    203 H203       -5.5611  -27.3934  -48.1056 H         1 UNK         0.0600 
    204 H204       -4.6692  -27.3497  -49.6255 H         1 UNK         0.0600 
    205 H205       -3.6832  -23.1391  -48.5427 H         1 UNK         0.3000 
    206 H206       -2.9188  -21.5725  -49.8780 H         1 UNK         0.0600 
    207 H207       -4.1893  -20.9340  -51.9322 H         1 UNK         0.0600 
    208 H208       -5.2627  -21.2215  -50.5726 H         1 UNK         0.0600 
    209 H209       -5.1083  -22.4248  -51.8476 H         1 UNK         0.0600 
    210 H210       -1.4421  -23.7578  -49.7741 H         1 UNK         0.3000 
    211 H211        0.1902  -25.0173  -50.6122 H         1 UNK         0.0600 
    212 H212        1.1388  -22.7968  -51.2803 H         1 UNK         0.0600 
    213 H213        1.6187  -24.0691  -52.3935 H         1 UNK         0.0600 
    214 H214        0.3621  -22.9320  -52.8568 H         1 UNK         0.0600 
    215 H215       -2.0371  -26.2525  -50.9673 H         1 UNK         0.3000 
    216 H216       -3.3597  -27.6415  -52.0692 H         1 UNK         0.0600 
    217 H217       -2.3198  -29.2135  -53.6723 H         1 UNK         0.0600 
    218 H218       -0.9460  -28.1388  -53.8957 H         1 UNK         0.0600 
    219 H219       -1.2224  -28.9111  -52.3350 H         1 UNK         0.0600 
    220 H220       -3.9171  -25.1306  -52.6358 H         1 UNK         0.3000 
    221 H221       -4.9818  -23.6761  -53.8383 H         1 UNK         0.0600 
    222 H222       -6.5044  -25.5875  -54.3637 H         1 UNK         0.0600 
    223 H223       -6.4786  -24.3963  -55.6524 H         1 UNK         0.0600 
    224 H224       -5.5990  -25.9046  -55.8440 H         1 UNK         0.0600 
    225 H225       -2.0431  -24.6821  -54.9056 H         1 UNK         0.3000 
    226 H226       -1.9759  -23.6785  -57.5821 H         1 UNK         0.0600 
    227 H227       -0.3810  -25.3888  -56.6383 H         1 UNK         0.0600 
    228 H228        0.4375  -24.0395  -57.4130 H         1 UNK         0.0600 
    229 H229        0.3632  -24.1220  -55.6605 H         1 UNK         0.0600 
    230 H230       -1.5963  -22.0846  -54.4504 H         1 UNK         0.3000 
    231 H231       -0.4546  -19.6311  -55.6581 H         1 UNK         0.0600 
    232 H232       -0.3185  -18.8782  -53.3127 H         1 UNK         0.0600 
    233 H233        0.4475  -20.4452  -53.5020 H         1 UNK         0.0600 
    234 H234       -1.1487  -20.3323  -52.7693 H         1 UNK         0.0600 
    235 H235       -3.5033  -20.9530  -55.3659 H         1 UNK         0.3000 
    236 H236       -5.6094  -20.3060  -55.4818 H         1 UNK         0.0600 
    237 H237       -4.9149  -19.2844  -57.5934 H         1 UNK         0.0600 
    238 H238       -6.1177  -18.2512  -56.8423 H         1 UNK         0.0600 
    239 H239       -4.4154  -17.7999  -56.7969 H         1 UNK         0.0600 
    240 H240       -4.8815  -16.9094  -55.0509 H         1 UNK         0.3000 
    241 H241       -4.7854  -16.8822  -52.2617 H         1 UNK         0.0600 
    242 H242       -3.0255  -16.1138  -54.3086 H         1 UNK         0.3800 
    243 H243       -2.8433  -14.3810  -54.1829 H         1 UNK         0.3800 
    244 H244       -7.2654  -15.3563  -53.0740 H         1 UNK         0.0800 
    245 H245       -7.4255  -17.0589  -52.8078 H         1 UNK         0.0800 
    246 H246       -7.7658  -17.7543  -49.4249 H         1 UNK         0.0800 
    247 H247       -7.0468  -18.3641  -50.8910 H         1 UNK         0.0800 
@<TRIPOS>BOND
     1    1    2 1    
     2    1  127 1    
     3    1  128 1    
     4    1  129 1    
     5    2    3 2    
     6    2    4 am   BACKBONE|DICT|INTERRES
     7    4    5 1    
     8    4  130 1    
     9    5    6 1    
    10    5   65 1    
    11    5  131 1    
    12    6    7 1    
    13    6  132 1    
    14    6  133 1    
    15    7    8 1    
    16    8    9 1    
    17    8  134 1    
    18    8  135 1    
    19    9   10 ar   
    20    9   14 ar   
    21   10   11 ar   
    22   10  136 1    
    23   11   12 ar   
    24   11  126 1    
    25   12   13 ar   
    26   12  137 1    
    27   13   14 ar   
    28   13   15 1    
    29   14  138 1    
    30   15   16 1    
    31   15  139 1    
    32   15  140 1    
    33   16   17 1    
    34   17   18 1    
    35   17  141 1    
    36   17  142 1    
    37   18   19 1    
    38   18   67 1    
    39   18  143 1    
    40   19   20 am   BACKBONE|DICT|INTERRES
    41   19  144 1    
    42   20   21 2    
    43   20   22 1    
    44   22   23 1    
    45   22   24 1    
    46   22  145 1    
    47   23  146 1    
    48   23  147 1    
    49   23  148 1    
    50   24   25 am   BACKBONE|DICT|INTERRES
    51   24  149 1    
    52   25   26 2    
    53   25   27 1    
    54   27   28 1    
    55   27   29 1    
    56   27  150 1    
    57   28  151 1    
    58   28  152 1    
    59   28  153 1    
    60   29   30 am   BACKBONE|DICT|INTERRES
    61   29  154 1    
    62   30   31 2    
    63   30   32 1    
    64   32   33 1    
    65   32   34 1    
    66   32  155 1    
    67   33  156 1    
    68   33  157 1    
    69   33  158 1    
    70   34   35 am   BACKBONE|DICT|INTERRES
    71   34  159 1    
    72   35   36 2    
    73   35   37 1    
    74   37   38 1    
    75   37   39 1    
    76   37  160 1    
    77   38  161 1    
    78   38  162 1    
    79   38  163 1    
    80   39   40 am   BACKBONE|DICT|INTERRES
    81   39  164 1    
    82   40   41 2    
    83   40   42 1    
    84   42   43 1    
    85   42   44 1    
    86   42  165 1    
    87   43  166 1    
    88   43  167 1    
    89   43  168 1    
    90   44   45 am   BACKBONE|DICT|INTERRES
    91   44  169 1    
    92   45   46 2    
    93   45   47 1    
    94   47   48 1    
    95   47   49 1    
    96   47  170 1    
    97   48  171 1    
    98   48  172 1    
    99   48  173 1    
   100   49   50 am   BACKBONE|DICT|INTERRES
   101   49  174 1    
   102   50   51 2    
   103   50   52 1    
   104   52   53 1    
   105   52   54 1    
   106   52  175 1    
   107   53  176 1    
   108   53  177 1    
   109   53  178 1    
   110   54   55 am   BACKBONE|DICT|INTERRES
   111   54  179 1    
   112   55   56 2    
   113   55   57 1    
   114   57   58 1    
   115   57   59 1    
   116   57  180 1    
   117   58  181 1    
   118   58  182 1    
   119   58  183 1    
   120   59   60 am   BACKBONE|DICT|INTERRES
   121   59  184 1    
   122   60   61 2    
   123   60   62 1    
   124   62   63 1    
   125   62   64 1    
   126   62  185 1    
   127   63  186 1    
   128   63  187 1    
   129   63  188 1    
   130   64   65 am   BACKBONE|DICT|INTERRES
   131   64  189 1    
   132   65   66 2    
   133   67   68 2    
   134   67   69 am   BACKBONE|DICT|INTERRES
   135   69   70 1    
   136   69  190 1    
   137   70   71 1    
   138   70   72 1    
   139   70  191 1    
   140   71  192 1    
   141   71  193 1    
   142   71  194 1    
   143   72   73 2    
   144   72   74 am   BACKBONE|DICT|INTERRES
   145   74   75 1    
   146   74  195 1    
   147   75   76 1    
   148   75   77 1    
   149   75  196 1    
   150   76  197 1    
   151   76  198 1    
   152   76  199 1    
   153   77   78 2    
   154   77   79 am   BACKBONE|DICT|INTERRES
   155   79   80 1    
   156   79  200 1    
   157   80   81 1    
   158   80   82 1    
   159   80  201 1    
   160   81  202 1    
   161   81  203 1    
   162   81  204 1    
   163   82   83 2    
   164   82   84 am   BACKBONE|DICT|INTERRES
   165   84   85 1    
   166   84  205 1    
   167   85   86 1    
   168   85   87 1    
   169   85  206 1    
   170   86  207 1    
   171   86  208 1    
   172   86  209 1    
   173   87   88 2    
   174   87   89 am   BACKBONE|DICT|INTERRES
   175   89   90 1    
   176   89  210 1    
   177   90   91 1    
   178   90   92 1    
   179   90  211 1    
   180   91  212 1    
   181   91  213 1    
   182   91  214 1    
   183   92   93 2    
   184   92   94 am   BACKBONE|DICT|INTERRES
   185   94   95 1    
   186   94  215 1    
   187   95   96 1    
   188   95   97 1    
   189   95  216 1    
   190   96  217 1    
   191   96  218 1    
   192   96  219 1    
   193   97   98 2    
   194   97   99 am   BACKBONE|DICT|INTERRES
   195   99  100 1    
   196   99  220 1    
   197  100  101 1    
   198  100  102 1    
   199  100  221 1    
   200  101  222 1    
   201  101  223 1    
   202  101  224 1    
   203  102  103 2    
   204  102  104 am   BACKBONE|DICT|INTERRES
   205  104  105 1    
   206  104  225 1    
   207  105  106 1    
   208  105  107 1    
   209  105  226 1    
   210  106  227 1    
   211  106  228 1    
   212  106  229 1    
   213  107  108 2    
   214  107  109 am   BACKBONE|DICT|INTERRES
   215  109  110 1    
   216  109  230 1    
   217  110  111 1    
   218  110  112 1    
   219  110  231 1    
   220  111  232 1    
   221  111  233 1    
   222  111  234 1    
   223  112  113 2    
   224  112  114 am   BACKBONE|DICT|INTERRES
   225  114  115 1    
   226  114  235 1    
   227  115  116 1    
   228  115  117 1    
   229  115  236 1    
   230  116  237 1    
   231  116  238 1    
   232  116  239 1    
   233  117  118 2    
   234  117  119 am   BACKBONE|DICT|INTERRES
   235  119  120 1    
   236  119  240 1    
   237  120  121 1    
   238  120  124 1    
   239  120  241 1    
   240  121  122 am   BACKBONE|DICT|INTERRES
   241  121  123 2    
   242  122  242 1    
   243  122  243 1    
   244  124  125 1    
   245  124  244 1    
   246  124  245 1    
   247  125  126 1    
   248  126  246 1    
   249  126  247 1    
@<TRIPOS>SUBSTRUCTURE
     1 UNK         1 GROUP             0       ****    0 ROOT    
