@<TRIPOS>MOLECULE
3R540
247   249    1
SMALL
USER_CHARGES


@<TRIPOS>ATOM
      1 CA         -3.7580  -12.2873  -51.1992 C.3       0 UNK        -0.1800 
      2 C          -2.3449  -12.6393  -50.7572 C.2       0 UNK         0.5000 
      3 O          -1.6336  -13.3439  -51.4748 O.2       0 UNK        -0.5000 
      4 N          -1.9329  -12.1423  -49.5890 N.am      1 UNK        -0.5000 
      5 CA         -0.6289  -12.3826  -48.9772 C.3       1 UNK         0.1400 
      6 C6         -0.5033  -13.8095  -48.3754 C.3       23 UNK        -0.0398 
      7 S7         -1.7564  -14.1948  -47.1003 S.3       23 UNK        -0.2404 
      8 C8         -1.7059  -16.0097  -47.0631 C.3       23 UNK        -0.0205 
      9 C9         -2.7958  -16.6325  -47.9199 C.ar      23 UNK        -0.0193 
     10 C10        -2.6099  -16.8148  -49.2927 C.ar      23 UNK        -0.1150 
     11 C11        -3.6218  -17.3769  -50.0767 C.ar      23 UNK        -0.0193 
     12 C12        -4.8114  -17.7974  -49.4721 C.ar      23 UNK        -0.1150 
     13 C13        -5.0046  -17.6266  -48.0975 C.ar      23 UNK        -0.0193 
     14 C14        -3.9984  -17.0319  -47.3326 C.ar      23 UNK        -0.1150 
     15 C15        -6.3112  -18.0361  -47.4334 C.3       23 UNK        -0.0205 
     16 S16        -6.1540  -19.5927  -46.4992 S.3       23 UNK        -0.2404 
     17 C17        -6.3529  -20.8431  -47.8180 C.3       23 UNK        -0.0398 
     18 CA         -5.3013  -21.9781  -47.7830 C.3       11 UNK         0.1400 
     19 N          -3.9327  -21.4607  -47.8404 N.am      11 UNK        -0.5000 
     20 C          -2.8353  -22.1962  -48.0519 C.2       10 UNK         0.5000 
     21 O          -2.8537  -23.4107  -48.2585 O.2       10 UNK        -0.5000 
     22 CA         -1.4887  -21.4561  -47.9778 C.3       10 UNK         0.1400 
     23 CB         -1.1059  -20.9273  -49.3677 C.3       10 UNK        -0.1800 
     24 N          -1.4430  -20.3465  -47.0183 N.am      10 UNK        -0.5000 
     25 C          -1.7358  -20.4186  -45.7120 C.2       9 UNK         0.5000 
     26 O          -2.2224  -21.4087  -45.1648 O.2       9 UNK        -0.5000 
     27 CA         -1.4427  -19.1696  -44.8674 C.3       9 UNK         0.1400 
     28 CB         -2.7290  -18.6519  -44.2055 C.3       9 UNK        -0.1800 
     29 N          -0.4472  -19.4161  -43.8265 N.am      9 UNK        -0.5000 
     30 C           0.8094  -19.8393  -44.0197 C.2       8 UNK         0.5000 
     31 O           1.2832  -20.1137  -45.1233 O.2       8 UNK        -0.5000 
     32 CA          1.6804  -19.9177  -42.7564 C.3       8 UNK         0.1400 
     33 CB          3.1388  -20.3267  -43.0411 C.3       8 UNK        -0.1800 
     34 N           1.6405  -18.6269  -42.0732 N.am      8 UNK        -0.5000 
     35 C           1.8192  -18.4363  -40.7622 C.2       7 UNK         0.5000 
     36 O           2.0254  -19.3524  -39.9632 O.2       7 UNK        -0.5000 
     37 CA          1.7563  -16.9718  -40.2751 C.3       7 UNK         0.1400 
     38 CB          2.0705  -16.8160  -38.7728 C.3       7 UNK        -0.1800 
     39 N           2.5937  -16.0667  -41.0705 N.am      7 UNK        -0.5000 
     40 C           3.9165  -16.1490  -41.2813 C.2       6 UNK         0.5000 
     41 O           4.6468  -17.0096  -40.7861 O.2       6 UNK        -0.5000 
     42 CA          4.5031  -15.0744  -42.2212 C.3       6 UNK         0.1400 
     43 CB          6.0029  -15.2716  -42.5269 C.3       6 UNK        -0.1800 
     44 N           3.7213  -14.9489  -43.4556 N.am      6 UNK        -0.5000 
     45 C           3.5152  -15.8893  -44.3903 C.2       5 UNK         0.5000 
     46 O           4.0634  -16.9916  -44.3955 O.2       5 UNK        -0.5000 
     47 CA          2.4958  -15.5191  -45.4883 C.3       5 UNK         0.1400 
     48 CB          2.1006  -16.7042  -46.3928 C.3       5 UNK        -0.1800 
     49 N           1.3111  -14.8445  -44.9429 N.am      5 UNK        -0.5000 
     50 C           0.4500  -15.3252  -44.0307 C.2       4 UNK         0.5000 
     51 O           0.5008  -16.4697  -43.5816 O.2       4 UNK        -0.5000 
     52 CA         -0.6074  -14.3337  -43.4909 C.3       4 UNK         0.1400 
     53 CB         -1.2722  -14.8118  -42.1831 C.3       4 UNK        -0.1800 
     54 N          -0.0799  -12.9718  -43.3365 N.am      4 UNK        -0.5000 
     55 C           0.9787  -12.6042  -42.5975 C.2       3 UNK         0.5000 
     56 O           1.5999  -13.3817  -41.8700 O.2       3 UNK        -0.5000 
     57 CA          1.4551  -11.1409  -42.7474 C.3       3 UNK         0.1400 
     58 CB          2.9386  -10.9714  -42.3563 C.3       3 UNK        -0.1800 
     59 N           1.2208  -10.5602  -44.0804 N.am      3 UNK        -0.5000 
     60 C           1.6349  -11.0485  -45.2591 C.2       2 UNK         0.5000 
     61 O           2.2266  -12.1230  -45.3925 O.2       2 UNK        -0.5000 
     62 CA          1.3396  -10.1972  -46.5024 C.3       2 UNK         0.1400 
     63 CB          2.6024   -9.4412  -46.9432 C.3       2 UNK        -0.1800 
     64 N           0.9070  -11.0773  -47.5860 N.am      2 UNK        -0.5000 
     65 C          -0.3684  -11.2793  -47.9343 C.2       1 UNK         0.5000 
     66 O          -1.3176  -10.6484  -47.4582 O.2       1 UNK        -0.5000 
     67 C          -5.5488  -22.9745  -46.6243 C.2       11 UNK         0.5000 
     68 O          -6.4826  -23.7719  -46.7180 O.2       11 UNK        -0.5000 
     69 N          -4.7108  -22.9341  -45.5789 N.am      12 UNK        -0.5000 
     70 CA         -4.7646  -23.8312  -44.4280 C.3       12 UNK         0.1400 
     71 CB         -4.9623  -22.9991  -43.1501 C.3       12 UNK        -0.1800 
     72 C          -3.4878  -24.6808  -44.3377 C.2       12 UNK         0.5000 
     73 O          -3.5747  -25.9083  -44.3047 O.2       12 UNK        -0.5000 
     74 N          -2.3233  -24.0188  -44.3118 N.am      13 UNK        -0.5000 
     75 CA         -1.0100  -24.6145  -44.0538 C.3       13 UNK         0.1400 
     76 CB          0.0103  -23.4903  -43.8151 C.3       13 UNK        -0.1800 
     77 C          -0.5172  -25.5545  -45.1668 C.2       13 UNK         0.5000 
     78 O           0.2204  -26.4965  -44.8754 O.2       13 UNK        -0.5000 
     79 N          -0.9422  -25.2924  -46.4083 N.am      14 UNK        -0.5000 
     80 CA         -0.6522  -26.1147  -47.5834 C.3       14 UNK         0.1400 
     81 CB          0.0489  -25.2463  -48.6415 C.3       14 UNK        -0.1800 
     82 C          -1.9343  -26.7636  -48.1362 C.2       14 UNK         0.5000 
     83 O          -1.9420  -27.1928  -49.2901 O.2       14 UNK        -0.5000 
     84 N          -3.0075  -26.7948  -47.3275 N.am      15 UNK        -0.5000 
     85 CA         -4.3276  -27.3709  -47.6193 C.3       15 UNK         0.1400 
     86 CB         -4.2381  -28.9107  -47.6228 C.3       15 UNK        -0.1800 
     87 C          -4.9911  -26.8163  -48.9010 C.2       15 UNK         0.5000 
     88 O          -5.7646  -27.5237  -49.5483 O.2       15 UNK        -0.5000 
     89 N          -4.6506  -25.5681  -49.2533 N.am      16 UNK        -0.5000 
     90 CA         -5.0422  -24.8414  -50.4615 C.3       16 UNK         0.1400 
     91 CB         -6.5713  -24.6509  -50.5418 C.3       16 UNK        -0.1800 
     92 C          -4.4373  -25.3901  -51.7707 C.2       16 UNK         0.5000 
     93 O          -4.8707  -24.9724  -52.8449 O.2       16 UNK        -0.5000 
     94 N          -3.4200  -26.2616  -51.6867 N.am      17 UNK        -0.5000 
     95 CA         -2.6856  -26.7619  -52.8517 C.3       17 UNK         0.1400 
     96 CB         -1.9081  -28.0325  -52.4763 C.3       17 UNK        -0.1800 
     97 C          -1.7425  -25.6888  -53.4235 C.2       17 UNK         0.5000 
     98 O          -1.7079  -25.4861  -54.6374 O.2       17 UNK        -0.5000 
     99 N          -1.0244  -24.9914  -52.5307 N.am      18 UNK        -0.5000 
    100 CA        -0.1261  -23.8868  -52.8802 C.3       18 UNK         0.1400 
    101 CB         0.9084  -23.6959  -51.7615 C.3       18 UNK        -0.1800 
    102 C         -0.8761  -22.5686  -53.1508 C.2       18 UNK         0.5000 
    103 O         -0.3233  -21.6865  -53.8064 O.2       18 UNK        -0.5000 
    104 N         -2.1272  -22.4655  -52.6741 N.am      19 UNK        -0.5000 
    105 CA        -3.0009  -21.2905  -52.7900 C.3       19 UNK         0.1400 
    106 CB        -4.2049  -21.4557  -51.8492 C.3       19 UNK        -0.1800 
    107 C         -3.4629  -20.9663  -54.2266 C.2       19 UNK         0.5000 
    108 O         -4.1310  -19.9526  -54.4279 O.2       19 UNK        -0.5000 
    109 N         -3.0801  -21.7992  -55.2054 N.am      20 UNK        -0.5000 
    110 CA        -3.1451  -21.4941  -56.6351 C.3       20 UNK         0.1400 
    111 CB        -2.7453  -22.7447  -57.4322 C.3       20 UNK        -0.1800 
    112 C         -2.2543  -20.2925  -57.0199 C.2       20 UNK         0.5000 
    113 O         -2.6045  -19.5513  -57.9390 O.2       20 UNK        -0.5000 
    114 N         -1.1490  -20.0978  -56.2857 N.am      21 UNK        -0.5000 
    115 CA        -0.3649  -18.8690  -56.2808 C.3       21 UNK         0.1400 
    116 CB         1.1192  -19.2144  -56.0799 C.3       21 UNK        -0.1800 
    117 C         -0.8952  -17.9908  -55.1368 C.2       21 UNK         0.5000 
    118 O         -0.8644  -18.4154  -53.9801 O.2       21 UNK        -0.5000 
    119 N         -1.4019  -16.8033  -55.4738 N.am      22 UNK        -0.5000 
    120 CA        -2.0336  -15.8679  -54.5371 C.3       22 UNK         0.1400 
    121 C         -2.0352  -14.4370  -55.1335 C.2       22 UNK         0.5000 
    122 N         -1.9103  -13.4060  -54.3114 N.am      22 UNK        -0.7600 
    123 O         -2.1656  -14.2514  -56.3423 O.2       22 UNK        -0.5000 
    124 C124       -3.4618  -16.3393  -54.1378 C.3       23 UNK        -0.0398 
    125 S125       -3.8793  -15.9403  -52.4110 S.3       23 UNK        -0.2404 
    126 C126       -3.4354  -17.4975  -51.5801 C.3       23 UNK        -0.0205 
    127 H127       -4.2058  -11.5293  -50.5561 H         1 UNK         0.0600 
    128 H128       -4.3903  -13.1744  -51.1705 H         1 UNK         0.0600 
    129 H129       -3.7504  -11.9054  -52.2201 H         1 UNK         0.0600 
    130 H130       -2.5321  -11.5420  -49.0356 H         1 UNK         0.3000 
    131 H131        0.1296  -12.2676  -49.7547 H         1 UNK         0.0600 
    132 H132        0.4868  -13.9560  -47.9408 H         1 UNK         0.0800 
    133 H133       -0.5810  -14.5427  -49.1777 H         1 UNK         0.0800 
    134 H134       -1.8295  -16.3184  -46.0255 H         1 UNK         0.0800 
    135 H135       -0.7291  -16.3737  -47.3774 H         1 UNK         0.0800 
    136 H136       -1.6900  -16.4952  -49.7605 H         1 UNK         0.1150 
    137 H137       -5.5955  -18.2310  -50.0767 H         1 UNK         0.1150 
    138 H138       -4.1587  -16.8711  -46.2765 H         1 UNK         0.1150 
    139 H139       -6.6203  -17.2489  -46.7441 H         1 UNK         0.0800 
    140 H140       -7.1134  -18.1212  -48.1680 H         1 UNK         0.0800 
    141 H141       -6.2985  -20.3487  -48.7884 H         1 UNK         0.0800 
    142 H142       -7.3636  -21.2511  -47.7595 H         1 UNK         0.0800 
    143 H143       -5.4489  -22.5538  -48.6954 H         1 UNK         0.0600 
    144 H144       -3.8247  -20.4744  -47.6508 H         1 UNK         0.3000 
    145 H145       -0.7371  -22.1844  -47.6668 H         1 UNK         0.0600 
    146 H146       -0.0951  -20.5192  -49.3721 H         1 UNK         0.0600 
    147 H147       -1.1350  -21.7244  -50.1096 H         1 UNK         0.0600 
    148 H148       -1.7868  -20.1434  -49.7032 H         1 UNK         0.0600 
    149 H149       -1.0464  -19.4878  -47.3697 H         1 UNK         0.3000 
    150 H150       -1.0440  -18.3938  -45.5208 H         1 UNK         0.0600 
    151 H151       -3.5423  -18.5767  -44.9260 H         1 UNK         0.0600 
    152 H152       -2.5793  -17.6632  -43.7720 H         1 UNK         0.0600 
    153 H153       -3.0689  -19.3201  -43.4131 H         1 UNK         0.0600 
    154 H154       -0.7340  -19.2027  -42.8831 H         1 UNK         0.3000 
    155 H155        1.2301  -20.6785  -42.1155 H         1 UNK         0.0600 
    156 H156        3.6389  -19.5999  -43.6818 H         1 UNK         0.0600 
    157 H157        3.1830  -21.2948  -43.5412 H         1 UNK         0.0600 
    158 H158        3.7147  -20.4108  -42.1196 H         1 UNK         0.0600 
    159 H159        1.4144  -17.8254  -42.6614 H         1 UNK         0.3000 
    160 H160        0.7261  -16.6498  -40.4274 H         1 UNK         0.0600 
    161 H161        3.0805  -17.1492  -38.5324 H         1 UNK         0.0600 
    162 H162        1.3794  -17.4024  -38.1663 H         1 UNK         0.0600 
    163 H163        1.9762  -15.7769  -38.4571 H         1 UNK         0.0600 
    164 H164        2.1056  -15.2901  -41.5065 H         1 UNK         0.3000 
    165 H165        4.4002  -14.1229  -41.6972 H         1 UNK         0.0600 
    166 H166        6.2004  -16.2316  -43.0043 H         1 UNK         0.0600 
    167 H167        6.3774  -14.4865  -43.1836 H         1 UNK         0.0600 
    168 H168        6.5931  -15.2371  -41.6105 H         1 UNK         0.0600 
    169 H169        3.1854  -14.0954  -43.5356 H         1 UNK         0.3000 
    170 H170        3.0005  -14.7869  -46.1203 H         1 UNK         0.0600 
    171 H171        2.9816  -17.2139  -46.7842 H         1 UNK         0.0600 
    172 H172        1.5052  -17.4453  -45.8610 H         1 UNK         0.0600 
    173 H173        1.5300  -16.3610  -47.2537 H         1 UNK         0.0600 
    174 H174        1.2476  -13.8605  -45.1817 H         1 UNK         0.3000 
    175 H175       -1.3902  -14.2807  -44.2461 H         1 UNK         0.0600 
    176 H176       -0.5553  -14.8915  -41.3668 H         1 UNK         0.0600 
    177 H177       -2.0569  -14.1237  -41.8695 H         1 UNK         0.0600 
    178 H178       -1.7347  -15.7910  -42.3104 H         1 UNK         0.0600 
    179 H179       -0.5174  -12.2643  -43.9098 H         1 UNK         0.3000 
    180 H180        0.8580  -10.5574  -42.0453 H         1 UNK         0.0600 
    181 H181        3.5946  -11.5695  -42.9898 H         1 UNK         0.0600 
    182 H182        3.1122  -11.2768  -41.3237 H         1 UNK         0.0600 
    183 H183        3.2514   -9.9306  -42.4399 H         1 UNK         0.0600 
    184 H184        0.7229   -9.6803  -44.0804 H         1 UNK         0.3000 
    185 H185        0.5650   -9.4645  -46.2655 H         1 UNK         0.0600 
    186 H186        2.9494   -8.7693  -46.1571 H         1 UNK         0.0600 
    187 H187        3.4214  -10.1227  -47.1779 H         1 UNK         0.0600 
    188 H188        2.4084   -8.8340  -47.8276 H         1 UNK         0.0600 
    189 H189        1.6288  -11.6618  -47.9835 H         1 UNK         0.3000 
    190 H190       -3.9480  -22.2645  -45.5895 H         1 UNK         0.3000 
    191 H191       -5.6073  -24.5207  -44.5109 H         1 UNK         0.0600 
    192 H192       -4.9729  -23.6363  -42.2649 H         1 UNK         0.0600 
    193 H193       -5.9114  -22.4635  -43.1768 H         1 UNK         0.0600 
    194 H194       -4.1696  -22.2614  -43.0174 H         1 UNK         0.0600 
    195 H195       -2.3312  -23.0070  -44.4311 H         1 UNK         0.3000 
    196 H196       -1.0882  -25.2035  -43.1377 H         1 UNK         0.0600 
    197 H197        0.1438  -22.8749  -44.7058 H         1 UNK         0.0600 
    198 H198       -0.3038  -22.8374  -43.0006 H         1 UNK         0.0600 
    199 H199        0.9867  -23.8968  -43.5488 H         1 UNK         0.0600 
    200 H200       -1.5638  -24.5085  -46.5563 H         1 UNK         0.3000 
    201 H201        0.0207  -26.9345  -47.3256 H         1 UNK         0.0600 
    202 H202       -0.6093  -24.4664  -49.0210 H         1 UNK         0.0600 
    203 H203        0.3707  -25.8487  -49.4917 H         1 UNK         0.0600 
    204 H204        0.9376  -24.7657  -48.2325 H         1 UNK         0.0600 
    205 H205       -2.9014  -26.4219  -46.3923 H         1 UNK         0.3000 
    206 H206       -4.9771  -27.0768  -46.7935 H         1 UNK         0.0600 
    207 H207       -3.7871  -29.2809  -46.7021 H         1 UNK         0.0600 
    208 H208       -5.2273  -29.3633  -47.7010 H         1 UNK         0.0600 
    209 H209       -3.6422  -29.2771  -48.4595 H         1 UNK         0.0600 
    210 H210       -3.9825  -25.0773  -48.6675 H         1 UNK         0.3000 
    211 H211       -4.5980  -23.8557  -50.3453 H         1 UNK         0.0600 
    212 H212       -6.8350  -23.9282  -51.3148 H         1 UNK         0.0600 
    213 H213       -6.9767  -24.2799  -49.6006 H         1 UNK         0.0600 
    214 H214       -7.0837  -25.5826  -50.7820 H         1 UNK         0.0600 
    215 H215       -3.0952  -26.5718  -50.7752 H         1 UNK         0.3000 
    216 H216       -3.4058  -27.0286  -53.6283 H         1 UNK         0.0600 
    217 H217       -1.1271  -27.8309  -51.7426 H         1 UNK         0.0600 
    218 H218       -1.4265  -28.4656  -53.3538 H         1 UNK         0.0600 
    219 H219       -2.5704  -28.7916  -52.0596 H         1 UNK         0.0600 
    220 H220       -1.1020  -25.2319  -51.5534 H         1 UNK         0.3000 
    221 H221        0.4131  -24.1502  -53.7929 H         1 UNK         0.0600 
    222 H222        1.4577  -24.6173  -51.5675 H         1 UNK         0.0600 
    223 H223        0.4441  -23.3756  -50.8301 H         1 UNK         0.0600 
    224 H224        1.6403  -22.9351  -52.0362 H         1 UNK         0.0600 
    225 H225       -2.5111  -23.2650  -52.1957 H         1 UNK         0.3000 
    226 H226       -2.4267  -20.4262  -52.4492 H         1 UNK         0.0600 
    227 H227       -4.8385  -22.2874  -52.1555 H         1 UNK         0.0600 
    228 H228       -3.8848  -21.6219  -50.8220 H         1 UNK         0.0600 
    229 H229       -4.8300  -20.5625  -51.8467 H         1 UNK         0.0600 
    230 H230       -2.5610  -22.6250  -54.9453 H         1 UNK         0.3000 
    231 H231       -4.1777  -21.2395  -56.8822 H         1 UNK         0.0600 
    232 H232       -1.7247  -23.0566  -57.2064 H         1 UNK         0.0600 
    233 H233       -2.8033  -22.5587  -58.5054 H         1 UNK         0.0600 
    234 H234       -3.4078  -23.5819  -57.2110 H         1 UNK         0.0600 
    235 H235       -0.9657  -20.7224  -55.5064 H         1 UNK         0.3000 
    236 H236       -0.4685  -18.3417  -57.2315 H         1 UNK         0.0600 
    237 H237        1.4889  -19.8437  -56.8894 H         1 UNK         0.0600 
    238 H238        1.7298  -18.3110  -56.0627 H         1 UNK         0.0600 
    239 H239        1.2886  -19.7442  -55.1414 H         1 UNK         0.0600 
    240 H240       -1.3895  -16.4917  -56.4364 H         1 UNK         0.3000 
    241 H241       -1.4005  -15.8415  -53.6470 H         1 UNK         0.0600 
    242 H242       -1.8075  -13.5290  -53.3051 H         1 UNK         0.3800 
    243 H243       -1.9141  -12.4744  -54.6945 H         1 UNK         0.3800 
    244 H244       -4.2224  -15.9115  -54.7933 H         1 UNK         0.0800 
    245 H245       -3.5643  -17.4171  -54.2589 H         1 UNK         0.0800 
    246 H246       -2.3989  -17.7517  -51.8068 H         1 UNK         0.0800 
    247 H247       -4.0498  -18.3056  -51.9774 H         1 UNK         0.0800 
@<TRIPOS>BOND
     1    1    2 1    
     2    1  127 1    
     3    1  128 1    
     4    1  129 1    
     5    2    3 2    
     6    2    4 am   BACKBONE|DICT|INTERRES
     7    4    5 1    
     8    4  130 1    
     9    5    6 1    
    10    5   65 1    
    11    5  131 1    
    12    6    7 1    
    13    6  132 1    
    14    6  133 1    
    15    7    8 1    
    16    8    9 1    
    17    8  134 1    
    18    8  135 1    
    19    9   10 ar   
    20    9   14 ar   
    21   10   11 ar   
    22   10  136 1    
    23   11   12 ar   
    24   11  126 1    
    25   12   13 ar   
    26   12  137 1    
    27   13   14 ar   
    28   13   15 1    
    29   14  138 1    
    30   15   16 1    
    31   15  139 1    
    32   15  140 1    
    33   16   17 1    
    34   17   18 1    
    35   17  141 1    
    36   17  142 1    
    37   18   19 1    
    38   18   67 1    
    39   18  143 1    
    40   19   20 am   BACKBONE|DICT|INTERRES
    41   19  144 1    
    42   20   21 2    
    43   20   22 1    
    44   22   23 1    
    45   22   24 1    
    46   22  145 1    
    47   23  146 1    
    48   23  147 1    
    49   23  148 1    
    50   24   25 am   BACKBONE|DICT|INTERRES
    51   24  149 1    
    52   25   26 2    
    53   25   27 1    
    54   27   28 1    
    55   27   29 1    
    56   27  150 1    
    57   28  151 1    
    58   28  152 1    
    59   28  153 1    
    60   29   30 am   BACKBONE|DICT|INTERRES
    61   29  154 1    
    62   30   31 2    
    63   30   32 1    
    64   32   33 1    
    65   32   34 1    
    66   32  155 1    
    67   33  156 1    
    68   33  157 1    
    69   33  158 1    
    70   34   35 am   BACKBONE|DICT|INTERRES
    71   34  159 1    
    72   35   36 2    
    73   35   37 1    
    74   37   38 1    
    75   37   39 1    
    76   37  160 1    
    77   38  161 1    
    78   38  162 1    
    79   38  163 1    
    80   39   40 am   BACKBONE|DICT|INTERRES
    81   39  164 1    
    82   40   41 2    
    83   40   42 1    
    84   42   43 1    
    85   42   44 1    
    86   42  165 1    
    87   43  166 1    
    88   43  167 1    
    89   43  168 1    
    90   44   45 am   BACKBONE|DICT|INTERRES
    91   44  169 1    
    92   45   46 2    
    93   45   47 1    
    94   47   48 1    
    95   47   49 1    
    96   47  170 1    
    97   48  171 1    
    98   48  172 1    
    99   48  173 1    
   100   49   50 am   BACKBONE|DICT|INTERRES
   101   49  174 1    
   102   50   51 2    
   103   50   52 1    
   104   52   53 1    
   105   52   54 1    
   106   52  175 1    
   107   53  176 1    
   108   53  177 1    
   109   53  178 1    
   110   54   55 am   BACKBONE|DICT|INTERRES
   111   54  179 1    
   112   55   56 2    
   113   55   57 1    
   114   57   58 1    
   115   57   59 1    
   116   57  180 1    
   117   58  181 1    
   118   58  182 1    
   119   58  183 1    
   120   59   60 am   BACKBONE|DICT|INTERRES
   121   59  184 1    
   122   60   61 2    
   123   60   62 1    
   124   62   63 1    
   125   62   64 1    
   126   62  185 1    
   127   63  186 1    
   128   63  187 1    
   129   63  188 1    
   130   64   65 am   BACKBONE|DICT|INTERRES
   131   64  189 1    
   132   65   66 2    
   133   67   68 2    
   134   67   69 am   BACKBONE|DICT|INTERRES
   135   69   70 1    
   136   69  190 1    
   137   70   71 1    
   138   70   72 1    
   139   70  191 1    
   140   71  192 1    
   141   71  193 1    
   142   71  194 1    
   143   72   73 2    
   144   72   74 am   BACKBONE|DICT|INTERRES
   145   74   75 1    
   146   74  195 1    
   147   75   76 1    
   148   75   77 1    
   149   75  196 1    
   150   76  197 1    
   151   76  198 1    
   152   76  199 1    
   153   77   78 2    
   154   77   79 am   BACKBONE|DICT|INTERRES
   155   79   80 1    
   156   79  200 1    
   157   80   81 1    
   158   80   82 1    
   159   80  201 1    
   160   81  202 1    
   161   81  203 1    
   162   81  204 1    
   163   82   83 2    
   164   82   84 am   BACKBONE|DICT|INTERRES
   165   84   85 1    
   166   84  205 1    
   167   85   86 1    
   168   85   87 1    
   169   85  206 1    
   170   86  207 1    
   171   86  208 1    
   172   86  209 1    
   173   87   88 2    
   174   87   89 am   BACKBONE|DICT|INTERRES
   175   89   90 1    
   176   89  210 1    
   177   90   91 1    
   178   90   92 1    
   179   90  211 1    
   180   91  212 1    
   181   91  213 1    
   182   91  214 1    
   183   92   93 2    
   184   92   94 am   BACKBONE|DICT|INTERRES
   185   94   95 1    
   186   94  215 1    
   187   95   96 1    
   188   95   97 1    
   189   95  216 1    
   190   96  217 1    
   191   96  218 1    
   192   96  219 1    
   193   97   98 2    
   194   97   99 am   BACKBONE|DICT|INTERRES
   195   99  100 1    
   196   99  220 1    
   197  100  101 1    
   198  100  102 1    
   199  100  221 1    
   200  101  222 1    
   201  101  223 1    
   202  101  224 1    
   203  102  103 2    
   204  102  104 am   BACKBONE|DICT|INTERRES
   205  104  105 1    
   206  104  225 1    
   207  105  106 1    
   208  105  107 1    
   209  105  226 1    
   210  106  227 1    
   211  106  228 1    
   212  106  229 1    
   213  107  108 2    
   214  107  109 am   BACKBONE|DICT|INTERRES
   215  109  110 1    
   216  109  230 1    
   217  110  111 1    
   218  110  112 1    
   219  110  231 1    
   220  111  232 1    
   221  111  233 1    
   222  111  234 1    
   223  112  113 2    
   224  112  114 am   BACKBONE|DICT|INTERRES
   225  114  115 1    
   226  114  235 1    
   227  115  116 1    
   228  115  117 1    
   229  115  236 1    
   230  116  237 1    
   231  116  238 1    
   232  116  239 1    
   233  117  118 2    
   234  117  119 am   BACKBONE|DICT|INTERRES
   235  119  120 1    
   236  119  240 1    
   237  120  121 1    
   238  120  124 1    
   239  120  241 1    
   240  121  122 am   BACKBONE|DICT|INTERRES
   241  121  123 2    
   242  122  242 1    
   243  122  243 1    
   244  124  125 1    
   245  124  244 1    
   246  124  245 1    
   247  125  126 1    
   248  126  246 1    
   249  126  247 1    
@<TRIPOS>SUBSTRUCTURE
     1 UNK         1 GROUP             0       ****    0 ROOT    
