@<TRIPOS>MOLECULE
3R540
247   249    1
SMALL
USER_CHARGES


@<TRIPOS>ATOM
      1 CA         -3.5790  -16.8299  -48.0010 C.3       0 UNK        -0.1800 
      2 C          -2.4552  -16.0564  -48.6728 C.2       0 UNK         0.5000 
      3 O          -2.2541  -16.2071  -49.8765 O.2       0 UNK        -0.5000 
      4 N          -1.7387  -15.2355  -47.8983 N.am      1 UNK        -0.5000 
      5 CA         -0.6390  -14.3665  -48.3353 C.3       1 UNK         0.1400 
      6 C6          0.7605  -15.0096  -48.1234 C.3       23 UNK        -0.0398 
      7 S7          1.2123  -16.1879  -49.4320 S.3       23 UNK        -0.2404 
      8 C8          0.9400  -17.7937  -48.6179 C.3       23 UNK        -0.0205 
      9 C9          1.3438  -18.9662  -49.5060 C.ar      23 UNK        -0.0193 
     10 C10         0.9773  -19.0025  -50.8541 C.ar      23 UNK        -0.1150 
     11 C11         1.3376  -20.0685  -51.6813 C.ar      23 UNK        -0.0193 
     12 C12         2.0637  -21.1318  -51.1296 C.ar      23 UNK        -0.1150 
     13 C13         2.4307  -21.1179  -49.7796 C.ar      23 UNK        -0.0193 
     14 C14         2.0775  -20.0288  -48.9767 C.ar      23 UNK        -0.1150 
     15 C15         3.2124  -22.2803  -49.1883 C.3       23 UNK        -0.0205 
     16 S16         2.1044  -23.5477  -48.4990 S.3       23 UNK        -0.2404 
     17 C17         1.4362  -22.6761  -47.0396 C.3       23 UNK        -0.0398 
     18 CA          0.8958  -23.6430  -45.9598 C.3       11 UNK         0.1400 
     19 N           1.0136  -23.0647  -44.6191 N.am      11 UNK        -0.5000 
     20 C           1.1380  -23.7854  -43.4970 C.2       10 UNK         0.5000 
     21 O           1.1154  -25.0164  -43.4679 O.2       10 UNK        -0.5000 
     22 CA          1.3175  -22.9990  -42.1854 C.3       10 UNK         0.1400 
     23 CB          2.7751  -22.5423  -42.0209 C.3       10 UNK        -0.1800 
     24 N           0.4297  -21.8407  -42.0992 N.am      10 UNK        -0.5000 
     25 C          -0.9029  -21.9242  -41.9825 C.2       9 UNK         0.5000 
     26 O          -1.5150  -22.9868  -41.8738 O.2       9 UNK        -0.5000 
     27 CA         -1.6902  -20.6028  -42.0149 C.3       9 UNK         0.1400 
     28 CB         -1.7735  -19.9943  -40.6071 C.3       9 UNK        -0.1800 
     29 N          -1.1379  -19.6156  -42.9451 N.am      9 UNK        -0.5000 
     30 C          -1.0462  -19.7834  -44.2722 C.2       8 UNK         0.5000 
     31 O          -1.3933  -20.8046  -44.8586 O.2       8 UNK        -0.5000 
     32 CA         -0.4146  -18.6399  -45.0809 C.3       8 UNK         0.1400 
     33 CB         -1.3558  -17.4322  -45.1501 C.3       8 UNK        -0.1800 
     34 N           0.8751  -18.2218  -44.5418 N.am      8 UNK        -0.5000 
     35 C           1.9465  -19.0180  -44.4225 C.2       7 UNK         0.5000 
     36 O           1.9859  -20.1870  -44.8080 O.2       7 UNK        -0.5000 
     37 CA          3.1599  -18.4116  -43.7016 C.3       7 UNK         0.1400 
     38 CB          3.9714  -17.5244  -44.6579 C.3       7 UNK        -0.1800 
     39 N           2.7577  -17.6350  -42.5277 N.am      7 UNK        -0.5000 
     40 C           2.2181  -18.1639  -41.4195 C.2       6 UNK         0.5000 
     41 O           2.0336  -19.3699  -41.2536 O.2       6 UNK        -0.5000 
     42 CA          1.7697  -17.1691  -40.3340 C.3       6 UNK         0.1400 
     43 CB          2.9694  -16.6880  -39.5041 C.3       6 UNK        -0.1800 
     44 N           1.0659  -16.0128  -40.8919 N.am      6 UNK        -0.5000 
     45 C          -0.1294  -16.0787  -41.4950 C.2       5 UNK         0.5000 
     46 O          -0.7708  -17.1192  -41.6244 O.2       5 UNK        -0.5000 
     47 CA         -0.6921  -14.7741  -42.0835 C.3       5 UNK         0.1400 
     48 CB         -1.5146  -14.0154  -41.0323 C.3       5 UNK        -0.1800 
     49 N           0.3329  -13.8838  -42.6245 N.am      5 UNK        -0.5000 
     50 C           1.1508  -14.1595  -43.6478 C.2       4 UNK         0.5000 
     51 O           1.1848  -15.2517  -44.2199 O.2       4 UNK        -0.5000 
     52 CA          2.0587  -12.9987  -44.1024 C.3       4 UNK         0.1400 
     53 CB          2.9771  -13.3757  -45.2756 C.3       4 UNK        -0.1800 
     54 N           1.2607  -11.8242  -44.4669 N.am      4 UNK        -0.5000 
     55 C           0.7898  -10.9212  -43.5936 C.2       3 UNK         0.5000 
     56 O           1.0119  -10.9777  -42.3830 O.2       3 UNK        -0.5000 
     57 CA         -0.1003   -9.7873  -44.1378 C.3       3 UNK         0.1400 
     58 CB          0.7385   -8.5277  -44.4016 C.3       3 UNK        -0.1800 
     59 N          -0.8291  -10.1366  -45.3571 N.am      3 UNK        -0.5000 
     60 C          -1.8070  -11.0486  -45.4454 C.2       2 UNK         0.5000 
     61 O          -2.2149  -11.7111  -44.4903 O.2       2 UNK        -0.5000 
     62 CA         -2.4330  -11.2723  -46.8391 C.3       2 UNK         0.1400 
     63 CB         -2.1728  -10.1200  -47.8357 C.3       2 UNK        -0.1800 
     64 N          -2.0292  -12.5511  -47.4332 N.am      2 UNK        -0.5000 
     65 C          -0.7774  -12.9927  -47.6400 C.2       1 UNK         0.5000 
     66 O           0.2271  -12.3613  -47.3050 O.2       1 UNK        -0.5000 
     67 C          -0.5356  -24.1126  -46.2975 C.2       11 UNK         0.5000 
     68 O          -0.6790  -24.9438  -47.1922 O.2       11 UNK        -0.5000 
     69 N          -1.5562  -23.5900  -45.5969 N.am      12 UNK        -0.5000 
     70 CA         -2.9951  -23.7114  -45.8846 C.3       12 UNK         0.1400 
     71 CB         -3.7975  -23.1053  -44.7205 C.3       12 UNK        -0.1800 
     72 C          -3.5309  -25.1240  -46.1890 C.2       12 UNK         0.5000 
     73 O          -4.4997  -25.2521  -46.9387 O.2       12 UNK        -0.5000 
     74 N          -2.8978  -26.1555  -45.6166 N.am      13 UNK        -0.5000 
     75 CA         -3.1938  -27.5641  -45.8814 C.3       13 UNK         0.1400 
     76 CB         -2.4699  -28.4237  -44.8337 C.3       13 UNK        -0.1800 
     77 C          -2.8155  -28.0215  -47.3073 C.2       13 UNK         0.5000 
     78 O          -3.3618  -29.0207  -47.7772 O.2       13 UNK        -0.5000 
     79 N          -1.8905  -27.3041  -47.9579 N.am      14 UNK        -0.5000 
     80 CA         -1.3673  -27.5973  -49.2874 C.3       14 UNK         0.1400 
     81 CB          0.1591  -27.7628  -49.2004 C.3       14 UNK        -0.1800 
     82 C          -1.7290  -26.5036  -50.3057 C.2       14 UNK         0.5000 
     83 O          -2.1458  -26.8477  -51.4129 O.2       14 UNK        -0.5000 
     84 N          -1.5542  -25.2213  -49.9511 N.am      15 UNK        -0.5000 
     85 CA         -1.6815  -24.1015  -50.8862 C.3       15 UNK         0.1400 
     86 CB         -0.4172  -24.0247  -51.7632 C.3       15 UNK        -0.1800 
     87 C          -1.9107  -22.7612  -50.1700 C.2       15 UNK         0.5000 
     88 O          -1.5950  -22.6191  -48.9897 O.2       15 UNK        -0.5000 
     89 N          -2.4309  -21.7895  -50.9260 N.am      16 UNK        -0.5000 
     90 CA         -2.6389  -20.3989  -50.5386 C.3       16 UNK         0.1400 
     91 CB         -3.8902  -20.2792  -49.6550 C.3       16 UNK        -0.1800 
     92 C          -2.8028  -19.5959  -51.8349 C.2       16 UNK         0.5000 
     93 O          -3.4403  -20.0940  -52.7658 O.2       16 UNK        -0.5000 
     94 N          -2.2330  -18.3877  -51.9029 N.am      17 UNK        -0.5000 
     95 CA         -2.2535  -17.5563  -53.1084 C.3       17 UNK         0.1400 
     96 CB         -1.0590  -16.5881  -53.1177 C.3       17 UNK        -0.1800 
     97 C          -3.5783  -16.7974  -53.2383 C.2       17 UNK         0.5000 
     98 O          -4.2352  -16.8879  -54.2743 O.2       17 UNK        -0.5000 
     99 N          -3.9629  -16.0892  -52.1706 N.am      18 UNK        -0.5000 
    100 CA        -5.1697  -15.2624  -52.1308 C.3       18 UNK         0.1400 
    101 CB        -5.1233  -14.3617  -50.8866 C.3       18 UNK        -0.1800 
    102 C         -6.4730  -16.0827  -52.1586 C.2       18 UNK         0.5000 
    103 O         -7.4817  -15.5938  -52.6691 O.2       18 UNK        -0.5000 
    104 N         -6.4307  -17.3009  -51.6024 N.am      19 UNK        -0.5000 
    105 CA        -7.5983  -18.1664  -51.4434 C.3       19 UNK         0.1400 
    106 CB        -7.5411  -18.8265  -50.0570 C.3       19 UNK        -0.1800 
    107 C         -7.7269  -19.2403  -52.5386 C.2       19 UNK         0.5000 
    108 O         -8.8514  -19.6691  -52.8025 O.2       19 UNK        -0.5000 
    109 N         -6.6085  -19.6872  -53.1317 N.am      20 UNK        -0.5000 
    110 CA        -6.5838  -20.8734  -53.9972 C.3       20 UNK         0.1400 
    111 CB        -6.2581  -22.1110  -53.1369 C.3       20 UNK        -0.1800 
    112 C         -5.6386  -20.7600  -55.2077 C.2       20 UNK         0.5000 
    113 O         -5.4348  -21.7654  -55.8914 O.2       20 UNK        -0.5000 
    114 N         -5.0567  -19.5752  -55.4591 N.am      21 UNK        -0.5000 
    115 CA        -4.1187  -19.2783  -56.5571 C.3       21 UNK         0.1400 
    116 CB        -4.8563  -19.3002  -57.9121 C.3       21 UNK        -0.1800 
    117 C         -2.8499  -20.1644  -56.5604 C.2       21 UNK         0.5000 
    118 O         -2.2459  -20.3775  -57.6129 O.2       21 UNK        -0.5000 
    119 N         -2.4802  -20.6753  -55.3795 N.am      22 UNK        -0.5000 
    120 CA        -1.4346  -21.6795  -55.1436 C.3       22 UNK         0.1400 
    121 C         -1.7533  -23.1032  -55.6982 C.2       22 UNK         0.5000 
    122 N         -2.9957  -23.4176  -56.0482 N.am      22 UNK        -0.7600 
    123 O         -0.8709  -23.9519  -55.7869 O.2       22 UNK        -0.5000 
    124 C124       -0.0062  -21.1660  -55.4983 C.3       23 UNK        -0.0398 
    125 S125        1.1839  -21.4953  -54.1542 S.3       23 UNK        -0.2404 
    126 C126        0.9213  -19.9946  -53.1512 C.3       23 UNK        -0.0205 
    127 H127       -3.8749  -16.3718  -47.0572 H         1 UNK         0.0600 
    128 H128       -3.2590  -17.8522  -47.8030 H         1 UNK         0.0600 
    129 H129       -4.4563  -16.8652  -48.6463 H         1 UNK         0.0600 
    130 H130       -1.9708  -15.1586  -46.9179 H         1 UNK         0.3000 
    131 H131       -0.7577  -14.1482  -49.3989 H         1 UNK         0.0600 
    132 H132        0.8397  -15.4725  -47.1384 H         1 UNK         0.0800 
    133 H133        1.5479  -14.2572  -48.1686 H         1 UNK         0.0800 
    134 H134       -0.1138  -17.8945  -48.3586 H         1 UNK         0.0800 
    135 H135        1.5014  -17.8132  -47.6823 H         1 UNK         0.0800 
    136 H136        0.4185  -18.1779  -51.2671 H         1 UNK         0.1150 
    137 H137        2.3514  -21.9754  -51.7394 H         1 UNK         0.1150 
    138 H138        2.3654  -20.0145  -47.9347 H         1 UNK         0.1150 
    139 H139        3.8336  -22.7391  -49.9589 H         1 UNK         0.0800 
    140 H140        3.8986  -21.9266  -48.4173 H         1 UNK         0.0800 
    141 H141        0.6750  -21.9581  -47.3522 H         1 UNK         0.0800 
    142 H142        2.2539  -22.0875  -46.6231 H         1 UNK         0.0800 
    143 H143        1.5247  -24.5363  -45.9758 H         1 UNK         0.0600 
    144 H144        1.0672  -22.0527  -44.5646 H         1 UNK         0.3000 
    145 H145        1.0792  -23.6714  -41.3585 H         1 UNK         0.0600 
    146 H146        2.9303  -22.0638  -41.0538 H         1 UNK         0.0600 
    147 H147        3.0654  -21.8313  -42.7951 H         1 UNK         0.0600 
    148 H148        3.4597  -23.3895  -42.0780 H         1 UNK         0.0600 
    149 H149        0.8651  -20.9255  -42.1293 H         1 UNK         0.3000 
    150 H150       -2.7048  -20.8344  -42.3454 H         1 UNK         0.0600 
    151 H151       -2.1824  -20.7103  -39.8931 H         1 UNK         0.0600 
    152 H152       -2.4217  -19.1180  -40.5949 H         1 UNK         0.0600 
    153 H153       -0.7911  -19.6895  -40.2437 H         1 UNK         0.0600 
    154 H154       -0.8496  -18.7290  -42.5371 H         1 UNK         0.3000 
    155 H155       -0.2474  -19.0041  -46.0964 H         1 UNK         0.0600 
    156 H156       -2.3033  -17.7076  -45.6108 H         1 UNK         0.0600 
    157 H157       -0.9131  -16.6284  -45.7348 H         1 UNK         0.0600 
    158 H158       -1.5825  -17.0369  -44.1616 H         1 UNK         0.0600 
    159 H159        0.9485  -17.2595  -44.2272 H         1 UNK         0.3000 
    160 H160        3.7986  -19.2319  -43.3673 H         1 UNK         0.0600 
    161 H161        3.3795  -16.6915  -45.0383 H         1 UNK         0.0600 
    162 H162        4.3179  -18.0977  -45.5187 H         1 UNK         0.0600 
    163 H163        4.8524  -17.1137  -44.1647 H         1 UNK         0.0600 
    164 H164        2.8268  -16.6311  -42.6016 H         1 UNK         0.3000 
    165 H165        1.0830  -17.6941  -39.6663 H         1 UNK         0.0600 
    166 H166        2.6481  -16.0476  -38.6824 H         1 UNK         0.0600 
    167 H167        3.5041  -17.5322  -39.0667 H         1 UNK         0.0600 
    168 H168        3.6817  -16.1259  -40.1092 H         1 UNK         0.0600 
    169 H169        1.5255  -15.1166  -40.8278 H         1 UNK         0.3000 
    170 H170       -1.3590  -15.0413  -42.9048 H         1 UNK         0.0600 
    171 H171       -0.8952  -13.6837  -40.1981 H         1 UNK         0.0600 
    172 H172       -1.9920  -13.1365  -41.4668 H         1 UNK         0.0600 
    173 H173       -2.3059  -14.6463  -40.6250 H         1 UNK         0.0600 
    174 H174        0.3774  -12.9495  -42.2333 H         1 UNK         0.3000 
    175 H175        2.7038  -12.7475  -43.2579 H         1 UNK         0.0600 
    176 H176        2.4050  -13.6568  -46.1565 H         1 UNK         0.0600 
    177 H177        3.6266  -12.5445  -45.5502 H         1 UNK         0.0600 
    178 H178        3.6196  -14.2175  -45.0161 H         1 UNK         0.0600 
    179 H179        0.9740  -11.7604  -45.4384 H         1 UNK         0.3000 
    180 H180       -0.8355   -9.5515  -43.3656 H         1 UNK         0.0600 
    181 H181        0.1096   -7.6904  -44.7049 H         1 UNK         0.0600 
    182 H182        1.4787   -8.6944  -45.1853 H         1 UNK         0.0600 
    183 H183        1.2753   -8.2200  -43.5031 H         1 UNK         0.0600 
    184 H184       -0.5400   -9.6680  -46.2034 H         1 UNK         0.3000 
    185 H185       -3.5110  -11.3292  -46.6804 H         1 UNK         0.0600 
    186 H186       -1.1201  -10.0350  -48.1076 H         1 UNK         0.0600 
    187 H187       -2.7357  -10.2717  -48.7568 H         1 UNK         0.0600 
    188 H188       -2.4906   -9.1617  -47.4224 H         1 UNK         0.0600 
    189 H189       -2.7883  -13.1481  -47.7286 H         1 UNK         0.3000 
    190 H190       -1.3210  -22.8561  -44.9384 H         1 UNK         0.3000 
    191 H191       -3.1843  -23.1077  -46.7740 H         1 UNK         0.0600 
    192 H192       -3.6139  -22.0372  -44.6189 H         1 UNK         0.0600 
    193 H193       -3.5475  -23.5819  -43.7720 H         1 UNK         0.0600 
    194 H194       -4.8708  -23.2252  -44.8747 H         1 UNK         0.0600 
    195 H195       -2.1041  -25.9577  -45.0246 H         1 UNK         0.3000 
    196 H196       -4.2690  -27.7139  -45.7633 H         1 UNK         0.0600 
    197 H197       -2.7843  -28.1629  -43.8229 H         1 UNK         0.0600 
    198 H198       -1.3876  -28.3008  -44.8921 H         1 UNK         0.0600 
    199 H199       -2.6884  -29.4827  -44.9775 H         1 UNK         0.0600 
    200 H200       -1.5130  -26.4682  -47.5140 H         1 UNK         0.3000 
    201 H201       -1.7810  -28.5370  -49.6591 H         1 UNK         0.0600 
    202 H202        0.4278  -28.5838  -48.5357 H         1 UNK         0.0600 
    203 H203        0.6434  -26.8589  -48.8278 H         1 UNK         0.0600 
    204 H204        0.5849  -27.9836  -50.1799 H         1 UNK         0.0600 
    205 H205       -1.2356  -24.9796  -49.0143 H         1 UNK         0.3000 
    206 H206       -2.5493  -24.2757  -51.5263 H         1 UNK         0.0600 
    207 H207        0.4819  -23.9084  -51.1572 H         1 UNK         0.0600 
    208 H208       -0.2962  -24.9179  -52.3760 H         1 UNK         0.0600 
    209 H209       -0.4618  -23.1767  -52.4433 H         1 UNK         0.0600 
    210 H210       -2.6733  -21.9758  -51.8899 H         1 UNK         0.3000 
    211 H211       -1.7628  -20.0336  -49.9987 H         1 UNK         0.0600 
    212 H212       -4.7413  -20.7895  -50.1069 H         1 UNK         0.0600 
    213 H213       -4.1717  -19.2378  -49.5052 H         1 UNK         0.0600 
    214 H214       -3.7218  -20.7189  -48.6717 H         1 UNK         0.0600 
    215 H215       -1.8193  -17.9694  -51.0784 H         1 UNK         0.3000 
    216 H216       -2.1547  -18.1956  -53.9878 H         1 UNK         0.0600 
    217 H217       -1.1271  -15.8924  -53.9551 H         1 UNK         0.0600 
    218 H218       -0.1172  -17.1232  -53.2294 H         1 UNK         0.0600 
    219 H219       -1.0019  -15.9949  -52.2048 H         1 UNK         0.0600 
    220 H220       -3.3587  -16.0751  -51.3514 H         1 UNK         0.3000 
    221 H221       -5.1661  -14.6199  -53.0139 H         1 UNK         0.0600 
    222 H222       -5.1538  -14.9437  -49.9657 H         1 UNK         0.0600 
    223 H223       -4.2176  -13.7551  -50.8707 H         1 UNK         0.0600 
    224 H224       -5.9730  -13.6781  -50.8692 H         1 UNK         0.0600 
    225 H225       -5.5587  -17.6169  -51.2071 H         1 UNK         0.3000 
    226 H226       -8.5096  -17.5650  -51.4750 H         1 UNK         0.0600 
    227 H227       -7.4971  -18.0788  -49.2648 H         1 UNK         0.0600 
    228 H228       -8.4281  -19.4356  -49.8783 H         1 UNK         0.0600 
    229 H229       -6.6742  -19.4769  -49.9534 H         1 UNK         0.0600 
    230 H230       -5.7098  -19.3083  -52.8682 H         1 UNK         0.3000 
    231 H231       -7.5702  -21.0274  -54.4390 H         1 UNK         0.0600 
    232 H232       -6.2762  -23.0256  -53.7305 H         1 UNK         0.0600 
    233 H233       -6.9860  -22.2367  -52.3354 H         1 UNK         0.0600 
    234 H234       -5.2710  -22.0354  -52.6809 H         1 UNK         0.0600 
    235 H235       -5.2550  -18.7925  -54.8493 H         1 UNK         0.3000 
    236 H236       -3.7646  -18.2599  -56.4006 H         1 UNK         0.0600 
    237 H237       -5.1821  -20.3057  -58.1800 H         1 UNK         0.0600 
    238 H238       -5.7358  -18.6566  -57.8917 H         1 UNK         0.0600 
    239 H239       -4.2129  -18.9404  -58.7158 H         1 UNK         0.0600 
    240 H240       -3.0370  -20.4391  -54.5620 H         1 UNK         0.3000 
    241 H241       -1.4840  -21.8152  -54.0640 H         1 UNK         0.0600 
    242 H242       -3.1871  -24.3435  -56.3958 H         1 UNK         0.3800 
    243 H243       -3.7539  -22.7443  -55.9850 H         1 UNK         0.3800 
    244 H244       -0.0105  -20.0916  -55.6874 H         1 UNK         0.0800 
    245 H245        0.3634  -21.6142  -56.4220 H         1 UNK         0.0800 
    246 H246        1.4518  -19.1673  -53.6244 H         1 UNK         0.0800 
    247 H247       -0.1380  -19.7445  -53.1893 H         1 UNK         0.0800 
@<TRIPOS>BOND
     1    1    2 1    
     2    1  127 1    
     3    1  128 1    
     4    1  129 1    
     5    2    3 2    
     6    2    4 am   BACKBONE|DICT|INTERRES
     7    4    5 1    
     8    4  130 1    
     9    5    6 1    
    10    5   65 1    
    11    5  131 1    
    12    6    7 1    
    13    6  132 1    
    14    6  133 1    
    15    7    8 1    
    16    8    9 1    
    17    8  134 1    
    18    8  135 1    
    19    9   10 ar   
    20    9   14 ar   
    21   10   11 ar   
    22   10  136 1    
    23   11   12 ar   
    24   11  126 1    
    25   12   13 ar   
    26   12  137 1    
    27   13   14 ar   
    28   13   15 1    
    29   14  138 1    
    30   15   16 1    
    31   15  139 1    
    32   15  140 1    
    33   16   17 1    
    34   17   18 1    
    35   17  141 1    
    36   17  142 1    
    37   18   19 1    
    38   18   67 1    
    39   18  143 1    
    40   19   20 am   BACKBONE|DICT|INTERRES
    41   19  144 1    
    42   20   21 2    
    43   20   22 1    
    44   22   23 1    
    45   22   24 1    
    46   22  145 1    
    47   23  146 1    
    48   23  147 1    
    49   23  148 1    
    50   24   25 am   BACKBONE|DICT|INTERRES
    51   24  149 1    
    52   25   26 2    
    53   25   27 1    
    54   27   28 1    
    55   27   29 1    
    56   27  150 1    
    57   28  151 1    
    58   28  152 1    
    59   28  153 1    
    60   29   30 am   BACKBONE|DICT|INTERRES
    61   29  154 1    
    62   30   31 2    
    63   30   32 1    
    64   32   33 1    
    65   32   34 1    
    66   32  155 1    
    67   33  156 1    
    68   33  157 1    
    69   33  158 1    
    70   34   35 am   BACKBONE|DICT|INTERRES
    71   34  159 1    
    72   35   36 2    
    73   35   37 1    
    74   37   38 1    
    75   37   39 1    
    76   37  160 1    
    77   38  161 1    
    78   38  162 1    
    79   38  163 1    
    80   39   40 am   BACKBONE|DICT|INTERRES
    81   39  164 1    
    82   40   41 2    
    83   40   42 1    
    84   42   43 1    
    85   42   44 1    
    86   42  165 1    
    87   43  166 1    
    88   43  167 1    
    89   43  168 1    
    90   44   45 am   BACKBONE|DICT|INTERRES
    91   44  169 1    
    92   45   46 2    
    93   45   47 1    
    94   47   48 1    
    95   47   49 1    
    96   47  170 1    
    97   48  171 1    
    98   48  172 1    
    99   48  173 1    
   100   49   50 am   BACKBONE|DICT|INTERRES
   101   49  174 1    
   102   50   51 2    
   103   50   52 1    
   104   52   53 1    
   105   52   54 1    
   106   52  175 1    
   107   53  176 1    
   108   53  177 1    
   109   53  178 1    
   110   54   55 am   BACKBONE|DICT|INTERRES
   111   54  179 1    
   112   55   56 2    
   113   55   57 1    
   114   57   58 1    
   115   57   59 1    
   116   57  180 1    
   117   58  181 1    
   118   58  182 1    
   119   58  183 1    
   120   59   60 am   BACKBONE|DICT|INTERRES
   121   59  184 1    
   122   60   61 2    
   123   60   62 1    
   124   62   63 1    
   125   62   64 1    
   126   62  185 1    
   127   63  186 1    
   128   63  187 1    
   129   63  188 1    
   130   64   65 am   BACKBONE|DICT|INTERRES
   131   64  189 1    
   132   65   66 2    
   133   67   68 2    
   134   67   69 am   BACKBONE|DICT|INTERRES
   135   69   70 1    
   136   69  190 1    
   137   70   71 1    
   138   70   72 1    
   139   70  191 1    
   140   71  192 1    
   141   71  193 1    
   142   71  194 1    
   143   72   73 2    
   144   72   74 am   BACKBONE|DICT|INTERRES
   145   74   75 1    
   146   74  195 1    
   147   75   76 1    
   148   75   77 1    
   149   75  196 1    
   150   76  197 1    
   151   76  198 1    
   152   76  199 1    
   153   77   78 2    
   154   77   79 am   BACKBONE|DICT|INTERRES
   155   79   80 1    
   156   79  200 1    
   157   80   81 1    
   158   80   82 1    
   159   80  201 1    
   160   81  202 1    
   161   81  203 1    
   162   81  204 1    
   163   82   83 2    
   164   82   84 am   BACKBONE|DICT|INTERRES
   165   84   85 1    
   166   84  205 1    
   167   85   86 1    
   168   85   87 1    
   169   85  206 1    
   170   86  207 1    
   171   86  208 1    
   172   86  209 1    
   173   87   88 2    
   174   87   89 am   BACKBONE|DICT|INTERRES
   175   89   90 1    
   176   89  210 1    
   177   90   91 1    
   178   90   92 1    
   179   90  211 1    
   180   91  212 1    
   181   91  213 1    
   182   91  214 1    
   183   92   93 2    
   184   92   94 am   BACKBONE|DICT|INTERRES
   185   94   95 1    
   186   94  215 1    
   187   95   96 1    
   188   95   97 1    
   189   95  216 1    
   190   96  217 1    
   191   96  218 1    
   192   96  219 1    
   193   97   98 2    
   194   97   99 am   BACKBONE|DICT|INTERRES
   195   99  100 1    
   196   99  220 1    
   197  100  101 1    
   198  100  102 1    
   199  100  221 1    
   200  101  222 1    
   201  101  223 1    
   202  101  224 1    
   203  102  103 2    
   204  102  104 am   BACKBONE|DICT|INTERRES
   205  104  105 1    
   206  104  225 1    
   207  105  106 1    
   208  105  107 1    
   209  105  226 1    
   210  106  227 1    
   211  106  228 1    
   212  106  229 1    
   213  107  108 2    
   214  107  109 am   BACKBONE|DICT|INTERRES
   215  109  110 1    
   216  109  230 1    
   217  110  111 1    
   218  110  112 1    
   219  110  231 1    
   220  111  232 1    
   221  111  233 1    
   222  111  234 1    
   223  112  113 2    
   224  112  114 am   BACKBONE|DICT|INTERRES
   225  114  115 1    
   226  114  235 1    
   227  115  116 1    
   228  115  117 1    
   229  115  236 1    
   230  116  237 1    
   231  116  238 1    
   232  116  239 1    
   233  117  118 2    
   234  117  119 am   BACKBONE|DICT|INTERRES
   235  119  120 1    
   236  119  240 1    
   237  120  121 1    
   238  120  124 1    
   239  120  241 1    
   240  121  122 am   BACKBONE|DICT|INTERRES
   241  121  123 2    
   242  122  242 1    
   243  122  243 1    
   244  124  125 1    
   245  124  244 1    
   246  124  245 1    
   247  125  126 1    
   248  126  246 1    
   249  126  247 1    
@<TRIPOS>SUBSTRUCTURE
     1 UNK         1 GROUP             0       ****    0 ROOT    
