@<TRIPOS>MOLECULE
3R540
247   249    1
SMALL
USER_CHARGES


@<TRIPOS>ATOM
      1 CA         -3.2962  -12.3393  -47.8811 C.3       0 UNK        -0.1800 
      2 C          -2.1248  -12.8992  -47.0890 C.2       0 UNK         0.5000 
      3 O          -1.9192  -12.5088  -45.9414 O.2       0 UNK        -0.5000 
      4 N          -1.3696  -13.8303  -47.6852 N.am      1 UNK        -0.5000 
      5 CA         -0.1663  -14.4636  -47.1216 C.3       1 UNK         0.1400 
      6 C6          0.5089  -15.3959  -48.1534 C.3       23 UNK        -0.0398 
      7 S7          1.0745  -14.4726  -49.6219 S.3       23 UNK        -0.2404 
      8 C8          2.5802  -15.3888  -50.0735 C.3       23 UNK        -0.0205 
      9 C9          2.2519  -16.7680  -50.6228 C.ar      23 UNK        -0.0193 
     10 C10         1.7606  -16.8897  -51.9248 C.ar      23 UNK        -0.1150 
     11 C11         1.4560  -18.1442  -52.4540 C.ar      23 UNK        -0.0193 
     12 C12         1.6623  -19.2828  -51.6687 C.ar      23 UNK        -0.1150 
     13 C13         2.1350  -19.1830  -50.3562 C.ar      23 UNK        -0.0193 
     14 C14         2.4373  -17.9148  -49.8419 C.ar      23 UNK        -0.1150 
     15 C15         2.3530  -20.4711  -49.5589 C.3       23 UNK        -0.0205 
     16 S16         2.2099  -20.3269  -47.7434 S.3       23 UNK        -0.2404 
     17 C17         0.4080  -20.1908  -47.4739 C.3       23 UNK        -0.0398 
     18 CA         -0.3519  -21.5457  -47.3779 C.3       11 UNK         0.1400 
     19 N           0.3252  -22.5680  -46.5742 N.am      11 UNK        -0.5000 
     20 C           0.0167  -23.8741  -46.6215 C.2       10 UNK         0.5000 
     21 O          -0.8132  -24.3479  -47.3978 O.2       10 UNK        -0.5000 
     22 CA          0.7197  -24.8115  -45.6200 C.3       10 UNK         0.1400 
     23 CB          1.9986  -25.3940  -46.2394 C.3       10 UNK        -0.1800 
     24 N           1.0534  -24.1747  -44.3454 N.am      10 UNK        -0.5000 
     25 C           0.1719  -23.6445  -43.4870 C.2       9 UNK         0.5000 
     26 O          -1.0460  -23.6555  -43.6672 O.2       9 UNK        -0.5000 
     27 CA          0.7404  -22.9249  -42.2456 C.3       9 UNK         0.1400 
     28 CB          2.2031  -23.3029  -41.9209 C.3       9 UNK        -0.1800 
     29 N           0.6118  -21.4658  -42.3478 N.am      9 UNK        -0.5000 
     30 C           1.0509  -20.6882  -43.3486 C.2       8 UNK         0.5000 
     31 O           1.5764  -21.1253  -44.3737 O.2       8 UNK        -0.5000 
     32 CA          0.8594  -19.1630  -43.2243 C.3       8 UNK         0.1400 
     33 CB          0.3209  -18.6841  -41.8568 C.3       8 UNK        -0.1800 
     34 N           2.0899  -18.4644  -43.6093 N.am      8 UNK        -0.5000 
     35 C           3.2915  -18.5748  -43.0189 C.2       7 UNK         0.5000 
     36 O           3.4710  -19.1171  -41.9281 O.2       7 UNK        -0.5000 
     37 CA          4.5079  -18.0168  -43.7863 C.3       7 UNK         0.1400 
     38 CB          5.6029  -19.0900  -43.9109 C.3       7 UNK        -0.1800 
     39 N           4.1531  -17.5799  -45.1409 N.am      7 UNK        -0.5000 
     40 C           4.0180  -16.3339  -45.6150 C.2       6 UNK         0.5000 
     41 O           3.7199  -16.1508  -46.7914 O.2       6 UNK        -0.5000 
     42 CA          4.1971  -15.1162  -44.6863 C.3       6 UNK         0.1400 
     43 CB          4.2515  -13.7851  -45.4609 C.3       6 UNK        -0.1800 
     44 N           3.0749  -15.0512  -43.7578 N.am      6 UNK        -0.5000 
     45 C           3.1708  -14.9475  -42.4281 C.2       5 UNK         0.5000 
     46 O           4.2379  -14.9533  -41.8119 O.2       5 UNK        -0.5000 
     47 CA          1.8322  -14.7978  -41.6819 C.3       5 UNK         0.1400 
     48 CB          1.9889  -14.6146  -40.1586 C.3       5 UNK        -0.1800 
     49 N           1.0091  -13.7346  -42.2623 N.am      5 UNK        -0.5000 
     50 C           1.3055  -12.4287  -42.3570 C.2       4 UNK         0.5000 
     51 O           2.3233  -11.9142  -41.8925 O.2       4 UNK        -0.5000 
     52 CA          0.3002  -11.5408  -43.1170 C.3       4 UNK         0.1400 
     53 CB          0.8467  -11.2024  -44.5128 C.3       4 UNK        -0.1800 
     54 N          -1.0202  -12.1545  -43.2671 N.am      4 UNK        -0.5000 
     55 C          -1.9045  -12.3395  -42.2776 C.2       3 UNK         0.5000 
     56 O          -1.7306  -11.9572  -41.1202 O.2       3 UNK        -0.5000 
     57 CA         -3.1822  -13.1141  -42.6423 C.3       3 UNK         0.1400 
     58 CB         -4.2404  -12.1720  -43.2371 C.3       3 UNK        -0.1800 
     59 N          -2.9127  -14.1996  -43.5875 N.am      3 UNK        -0.5000 
     60 C          -2.3526  -15.3724  -43.2605 C.2       2 UNK         0.5000 
     61 O          -2.0010  -15.6698  -42.1198 O.2       2 UNK        -0.5000 
     62 CA         -2.1272  -16.3738  -44.4078 C.3       2 UNK         0.1400 
     63 CB         -3.4194  -17.1410  -44.7209 C.3       2 UNK        -0.1800 
     64 N          -1.6553  -15.7261  -45.6293 N.am      2 UNK        -0.5000 
     65 C          -0.4258  -15.2218  -45.8012 C.2       1 UNK         0.5000 
     66 O           0.4747  -15.3163  -44.9646 O.2       1 UNK        -0.5000 
     67 C          -1.7790  -21.3229  -46.8368 C.2       11 UNK         0.5000 
     68 O          -2.7349  -21.2973  -47.6108 O.2       11 UNK        -0.5000 
     69 N          -1.9032  -21.1928  -45.5072 N.am      12 UNK        -0.5000 
     70 CA         -3.1638  -20.9519  -44.7990 C.3       12 UNK         0.1400 
     71 CB         -2.8787  -20.6093  -43.3306 C.3       12 UNK        -0.1800 
     72 C          -4.1575  -22.1178  -44.9165 C.2       12 UNK         0.5000 
     73 O          -5.3521  -21.8775  -45.0925 O.2       12 UNK        -0.5000 
     74 N          -3.6372  -23.3517  -44.9017 N.am      13 UNK        -0.5000 
     75 CA         -4.3824  -24.5935  -45.1268 C.3       13 UNK         0.1400 
     76 CB         -3.4310  -25.7826  -44.9234 C.3       13 UNK        -0.1800 
     77 C          -5.0626  -24.6809  -46.5105 C.2       13 UNK         0.5000 
     78 O          -6.0268  -25.4321  -46.6600 O.2       13 UNK        -0.5000 
     79 N          -4.5653  -23.9041  -47.4813 N.am      14 UNK        -0.5000 
     80 CA         -5.0954  -23.7822  -48.8368 C.3       14 UNK         0.1400 
     81 CB         -3.9921  -24.1951  -49.8258 C.3       14 UNK        -0.1800 
     82 C          -5.6502  -22.3671  -49.1097 C.2       14 UNK         0.5000 
     83 O          -5.7438  -21.9718  -50.2730 O.2       14 UNK        -0.5000 
     84 N          -6.0165  -21.6341  -48.0442 N.am      15 UNK        -0.5000 
     85 CA         -6.6397  -20.3038  -48.0467 C.3       15 UNK         0.1400 
     86 CB         -8.0493  -20.3692  -48.6726 C.3       15 UNK        -0.1800 
     87 C          -5.7440  -19.2313  -48.6983 C.2       15 UNK         0.5000 
     88 O          -6.1268  -18.6238  -49.6978 O.2       15 UNK        -0.5000 
     89 N          -4.5330  -19.0679  -48.1449 N.am      16 UNK        -0.5000 
     90 CA         -3.4233  -18.2581  -48.6745 C.3       16 UNK         0.1400 
     91 CB         -3.7678  -16.7539  -48.6734 C.3       16 UNK        -0.1800 
     92 C          -2.9432  -18.7768  -50.0481 C.2       16 UNK         0.5000 
     93 O          -2.5620  -17.9946  -50.9187 O.2       16 UNK        -0.5000 
     94 N          -3.0107  -20.1071  -50.1996 N.am      17 UNK        -0.5000 
     95 CA         -2.7400  -20.9131  -51.3884 C.3       17 UNK         0.1400 
     96 CB         -1.2441  -20.8975  -51.7193 C.3       17 UNK        -0.1800 
     97 C          -3.6261  -20.5915  -52.6074 C.2       17 UNK         0.5000 
     98 O          -3.2659  -20.9663  -53.7242 O.2       17 UNK        -0.5000 
     99 N          -4.7876  -19.9603  -52.3841 N.am      18 UNK        -0.5000 
    100 CA        -5.7859  -19.6761  -53.4139 C.3       18 UNK         0.1400 
    101 CB        -6.8329  -18.6975  -52.8644 C.3       18 UNK        -0.1800 
    102 C         -6.4647  -20.9536  -53.9364 C.2       18 UNK         0.5000 
    103 O         -6.7338  -21.0458  -55.1340 O.2       18 UNK        -0.5000 
    104 N         -6.6856  -21.9338  -53.0468 N.am      19 UNK        -0.5000 
    105 CA        -7.2408  -23.2456  -53.3920 C.3       19 UNK         0.1400 
    106 CB        -7.7097  -23.9516  -52.1107 C.3       19 UNK        -0.1800 
    107 C         -6.2338  -24.1274  -54.1554 C.2       19 UNK         0.5000 
    108 O         -6.6428  -24.9737  -54.9506 O.2       19 UNK        -0.5000 
    109 N         -4.9377  -23.9002  -53.9064 N.am      20 UNK        -0.5000 
    110 CA        -3.8208  -24.5760  -54.5662 C.3       20 UNK         0.1400 
    111 CB        -2.6469  -24.6475  -53.5750 C.3       20 UNK        -0.1800 
    112 C         -3.3767  -23.8718  -55.8636 C.2       20 UNK         0.5000 
    113 O         -2.5462  -24.4238  -56.5862 O.2       20 UNK        -0.5000 
    114 N         -3.8791  -22.6507  -56.1084 N.am      21 UNK        -0.5000 
    115 CA        -3.4887  -21.7200  -57.1766 C.3       21 UNK         0.1400 
    116 CB        -3.9757  -22.2371  -58.5455 C.3       21 UNK        -0.1800 
    117 C         -1.9779  -21.3872  -57.1587 C.2       21 UNK         0.5000 
    118 O         -1.3609  -21.2328  -58.2141 O.2       21 UNK        -0.5000 
    119 N         -1.4073  -21.3218  -55.9480 N.am      22 UNK        -0.5000 
    120 CA         0.0340  -21.2250  -55.6631 C.3       22 UNK         0.1400 
    121 C          0.8788  -22.4734  -56.0797 C.2       22 UNK         0.5000 
    122 N          0.2806  -23.6128  -56.4091 N.am      22 UNK        -0.7600 
    123 O          2.1056  -22.4276  -56.0791 O.2       22 UNK        -0.5000 
    124 C124        0.6481  -19.8733  -56.1345 C.3       23 UNK        -0.0398 
    125 S125        1.9092  -19.2412  -54.9728 S.3       23 UNK        -0.2404 
    126 C126        0.8607  -18.2641  -53.8516 C.3       23 UNK        -0.0205 
    127 H127       -3.1729  -11.2656  -48.0212 H         1 UNK         0.0600 
    128 H128       -3.3813  -12.8047  -48.8634 H         1 UNK         0.0600 
    129 H129       -4.2279  -12.5091  -47.3416 H         1 UNK         0.0600 
    130 H130       -1.5748  -14.0819  -48.6417 H         1 UNK         0.3000 
    131 H131        0.5353  -13.6624  -46.8822 H         1 UNK         0.0600 
    132 H132        1.3643  -15.9019  -47.7067 H         1 UNK         0.0800 
    133 H133       -0.1737  -16.1831  -48.4784 H         1 UNK         0.0800 
    134 H134        3.2491  -15.4557  -49.2161 H         1 UNK         0.0800 
    135 H135        3.1213  -14.8207  -50.8316 H         1 UNK         0.0800 
    136 H136        1.6037  -16.0007  -52.5197 H         1 UNK         0.1150 
    137 H137        1.4465  -20.2559  -52.0860 H         1 UNK         0.1150 
    138 H138        2.8255  -17.8142  -48.8383 H         1 UNK         0.1150 
    139 H139        1.6636  -21.2465  -49.8958 H         1 UNK         0.0800 
    140 H140        3.3547  -20.8364  -49.7880 H         1 UNK         0.0800 
    141 H141        0.2858  -19.6172  -46.5535 H         1 UNK         0.0800 
    142 H142       -0.0195  -19.5749  -48.2673 H         1 UNK         0.0800 
    143 H143       -0.4461  -21.9343  -48.3943 H         1 UNK         0.0600 
    144 H144        1.0071  -22.2354  -45.8979 H         1 UNK         0.3000 
    145 H145        0.0354  -25.6355  -45.4077 H         1 UNK         0.0600 
    146 H146        2.4610  -26.1258  -45.5768 H         1 UNK         0.0600 
    147 H147        1.7811  -25.9011  -47.1805 H         1 UNK         0.0600 
    148 H148        2.7342  -24.6159  -46.4481 H         1 UNK         0.0600 
    149 H149        2.0360  -24.0759  -44.1365 H         1 UNK         0.3000 
    150 H150        0.1223  -23.2382  -41.4030 H         1 UNK         0.0600 
    151 H151        2.3196  -24.3829  -41.8213 H         1 UNK         0.0600 
    152 H152        2.5147  -22.8598  -40.9749 H         1 UNK         0.0600 
    153 H153        2.9006  -22.9587  -42.6854 H         1 UNK         0.0600 
    154 H154        0.1758  -21.0152  -41.5560 H         1 UNK         0.3000 
    155 H155        0.1161  -18.9035  -43.9780 H         1 UNK         0.0600 
    156 H156        0.1098  -17.6170  -41.8769 H         1 UNK         0.0600 
    157 H157        1.0217  -18.8713  -41.0433 H         1 UNK         0.0600 
    158 H158       -0.6184  -19.1738  -41.6000 H         1 UNK         0.0600 
    159 H159        2.0689  -18.0158  -44.5138 H         1 UNK         0.3000 
    160 H160        4.9202  -17.2018  -43.1943 H         1 UNK         0.0600 
    161 H161        5.2428  -19.9721  -44.4424 H         1 UNK         0.0600 
    162 H162        5.9502  -19.4166  -42.9298 H         1 UNK         0.0600 
    163 H163        6.4713  -18.7067  -44.4473 H         1 UNK         0.0600 
    164 H164        4.0082  -18.3354  -45.7952 H         1 UNK         0.3000 
    165 H165        5.1488  -15.2260  -44.1644 H         1 UNK         0.0600 
    166 H166        5.0662  -13.7861  -46.1859 H         1 UNK         0.0600 
    167 H167        3.3246  -13.5949  -46.0043 H         1 UNK         0.0600 
    168 H168        4.4175  -12.9455  -44.7855 H         1 UNK         0.0600 
    169 H169        2.1485  -15.0795  -44.1804 H         1 UNK         0.3000 
    170 H170        1.2883  -15.7260  -41.8463 H         1 UNK         0.0600 
    171 H171        2.5040  -15.4681  -39.7164 H         1 UNK         0.0600 
    172 H172        2.5642  -13.7221  -39.9111 H         1 UNK         0.0600 
    173 H173        1.0173  -14.5335  -39.6713 H         1 UNK         0.0600 
    174 H174        0.1563  -14.0433  -42.7072 H         1 UNK         0.3000 
    175 H175        0.1857  -10.6116  -42.5552 H         1 UNK         0.0600 
    176 H176        0.9991  -12.1014  -45.1102 H         1 UNK         0.0600 
    177 H177        0.1648  -10.5491  -45.0575 H         1 UNK         0.0600 
    178 H178        1.8061  -10.6880  -44.4443 H         1 UNK         0.0600 
    179 H179       -1.2860  -12.4320  -44.2098 H         1 UNK         0.3000 
    180 H180       -3.5883  -13.5433  -41.7237 H         1 UNK         0.0600 
    181 H181       -4.4787  -11.3659  -42.5421 H         1 UNK         0.0600 
    182 H182       -3.8989  -11.7137  -44.1660 H         1 UNK         0.0600 
    183 H183       -5.1680  -12.7045  -43.4473 H         1 UNK         0.0600 
    184 H184       -3.1042  -14.0035  -44.5594 H         1 UNK         0.3000 
    185 H185       -1.3722  -17.0910  -44.0832 H         1 UNK         0.0600 
    186 H186       -4.2260  -16.4711  -45.0213 H         1 UNK         0.0600 
    187 H187       -3.2623  -17.8526  -45.5296 H         1 UNK         0.0600 
    188 H188       -3.7649  -17.6990  -43.8499 H         1 UNK         0.0600 
    189 H189       -2.3335  -15.5805  -46.3614 H         1 UNK         0.3000 
    190 H190       -1.0849  -21.3407  -44.9365 H         1 UNK         0.3000 
    191 H191       -3.6425  -20.0869  -45.2581 H         1 UNK         0.0600 
    192 H192       -3.8053  -20.4166  -42.7882 H         1 UNK         0.0600 
    193 H193       -2.2675  -19.7118  -43.2508 H         1 UNK         0.0600 
    194 H194       -2.3621  -21.4203  -42.8169 H         1 UNK         0.0600 
    195 H195       -2.6491  -23.4529  -44.6836 H         1 UNK         0.3000 
    196 H196       -5.1695  -24.6484  -44.3722 H         1 UNK         0.0600 
    197 H197       -3.9555  -26.7310  -45.0468 H         1 UNK         0.0600 
    198 H198       -3.0006  -25.7775  -43.9218 H         1 UNK         0.0600 
    199 H199       -2.6099  -25.7645  -45.6410 H         1 UNK         0.0600 
    200 H200       -3.7761  -23.3081  -47.2651 H         1 UNK         0.3000 
    201 H201       -5.9383  -24.4605  -48.9807 H         1 UNK         0.0600 
    202 H202       -3.7488  -25.2515  -49.7113 H         1 UNK         0.0600 
    203 H203       -3.0740  -23.6324  -49.6564 H         1 UNK         0.0600 
    204 H204       -4.2993  -24.0496  -50.8616 H         1 UNK         0.0600 
    205 H205       -5.8681  -22.0324  -47.1237 H         1 UNK         0.3000 
    206 H206       -6.7585  -20.0151  -47.0013 H         1 UNK         0.0600 
    207 H207       -8.6723  -21.1040  -48.1629 H         1 UNK         0.0600 
    208 H208       -8.5543  -19.4057  -48.5953 H         1 UNK         0.0600 
    209 H209       -8.0161  -20.6347  -49.7299 H         1 UNK         0.0600 
    210 H210       -4.2827  -19.6976  -47.3951 H         1 UNK         0.3000 
    211 H211       -2.5861  -18.4003  -47.9900 H         1 UNK         0.0600 
    212 H212       -4.5399  -16.5139  -49.4048 H         1 UNK         0.0600 
    213 H213       -2.8914  -16.1547  -48.9211 H         1 UNK         0.0600 
    214 H214       -4.1222  -16.4289  -47.6958 H         1 UNK         0.0600 
    215 H215       -3.2959  -20.6359  -49.3818 H         1 UNK         0.3000 
    216 H216       -2.9948  -21.9348  -51.1203 H         1 UNK         0.0600 
    217 H217       -0.9458  -19.9102  -52.0614 H         1 UNK         0.0600 
    218 H218       -0.9998  -21.6154  -52.5017 H         1 UNK         0.0600 
    219 H219       -0.6446  -21.1519  -50.8460 H         1 UNK         0.0600 
    220 H220       -5.0343  -19.7142  -51.4332 H         1 UNK         0.3000 
    221 H221       -5.2782  -19.1969  -54.2537 H         1 UNK         0.0600 
    222 H222       -7.3963  -19.1341  -52.0386 H         1 UNK         0.0600 
    223 H223       -6.3659  -17.7808  -52.5036 H         1 UNK         0.0600 
    224 H224       -7.5489  -18.4172  -53.6378 H         1 UNK         0.0600 
    225 H225       -6.4130  -21.7937  -52.0765 H         1 UNK         0.3000 
    226 H226       -8.1098  -23.0936  -54.0356 H         1 UNK         0.0600 
    227 H227       -8.4114  -23.3327  -51.5511 H         1 UNK         0.0600 
    228 H228       -8.2162  -24.8883  -52.3463 H         1 UNK         0.0600 
    229 H229       -6.8736  -24.1898  -51.4532 H         1 UNK         0.0600 
    230 H230       -4.7021  -23.1700  -53.2515 H         1 UNK         0.3000 
    231 H231       -4.1114  -25.5957  -54.8272 H         1 UNK         0.0600 
    232 H232       -2.3096  -23.6547  -53.2761 H         1 UNK         0.0600 
    233 H233       -2.9243  -25.1944  -52.6738 H         1 UNK         0.0600 
    234 H234       -1.7924  -25.1643  -54.0141 H         1 UNK         0.0600 
    235 H235       -4.5278  -22.2743  -55.4314 H         1 UNK         0.3000 
    236 H236       -4.0087  -20.7834  -56.9702 H         1 UNK         0.0600 
    237 H237       -5.0447  -22.4491  -58.5277 H         1 UNK         0.0600 
    238 H238       -3.8060  -21.4959  -59.3273 H         1 UNK         0.0600 
    239 H239       -3.4574  -23.1497  -58.8410 H         1 UNK         0.0600 
    240 H240       -2.0157  -21.4012  -55.1374 H         1 UNK         0.3000 
    241 H241        0.0721  -21.2386  -54.5744 H         1 UNK         0.0600 
    242 H242       -0.7296  -23.6999  -56.4432 H         1 UNK         0.3800 
    243 H243        0.8496  -24.4040  -56.6644 H         1 UNK         0.3800 
    244 H244       -0.1267  -19.1119  -56.2351 H         1 UNK         0.0800 
    245 H245        1.0893  -19.9687  -57.1280 H         1 UNK         0.0800 
    246 H246        0.7023  -17.2792  -54.2935 H         1 UNK         0.0800 
    247 H247       -0.1256  -18.7208  -53.7752 H         1 UNK         0.0800 
@<TRIPOS>BOND
     1    1    2 1    
     2    1  127 1    
     3    1  128 1    
     4    1  129 1    
     5    2    3 2    
     6    2    4 am   BACKBONE|DICT|INTERRES
     7    4    5 1    
     8    4  130 1    
     9    5    6 1    
    10    5   65 1    
    11    5  131 1    
    12    6    7 1    
    13    6  132 1    
    14    6  133 1    
    15    7    8 1    
    16    8    9 1    
    17    8  134 1    
    18    8  135 1    
    19    9   10 ar   
    20    9   14 ar   
    21   10   11 ar   
    22   10  136 1    
    23   11   12 ar   
    24   11  126 1    
    25   12   13 ar   
    26   12  137 1    
    27   13   14 ar   
    28   13   15 1    
    29   14  138 1    
    30   15   16 1    
    31   15  139 1    
    32   15  140 1    
    33   16   17 1    
    34   17   18 1    
    35   17  141 1    
    36   17  142 1    
    37   18   19 1    
    38   18   67 1    
    39   18  143 1    
    40   19   20 am   BACKBONE|DICT|INTERRES
    41   19  144 1    
    42   20   21 2    
    43   20   22 1    
    44   22   23 1    
    45   22   24 1    
    46   22  145 1    
    47   23  146 1    
    48   23  147 1    
    49   23  148 1    
    50   24   25 am   BACKBONE|DICT|INTERRES
    51   24  149 1    
    52   25   26 2    
    53   25   27 1    
    54   27   28 1    
    55   27   29 1    
    56   27  150 1    
    57   28  151 1    
    58   28  152 1    
    59   28  153 1    
    60   29   30 am   BACKBONE|DICT|INTERRES
    61   29  154 1    
    62   30   31 2    
    63   30   32 1    
    64   32   33 1    
    65   32   34 1    
    66   32  155 1    
    67   33  156 1    
    68   33  157 1    
    69   33  158 1    
    70   34   35 am   BACKBONE|DICT|INTERRES
    71   34  159 1    
    72   35   36 2    
    73   35   37 1    
    74   37   38 1    
    75   37   39 1    
    76   37  160 1    
    77   38  161 1    
    78   38  162 1    
    79   38  163 1    
    80   39   40 am   BACKBONE|DICT|INTERRES
    81   39  164 1    
    82   40   41 2    
    83   40   42 1    
    84   42   43 1    
    85   42   44 1    
    86   42  165 1    
    87   43  166 1    
    88   43  167 1    
    89   43  168 1    
    90   44   45 am   BACKBONE|DICT|INTERRES
    91   44  169 1    
    92   45   46 2    
    93   45   47 1    
    94   47   48 1    
    95   47   49 1    
    96   47  170 1    
    97   48  171 1    
    98   48  172 1    
    99   48  173 1    
   100   49   50 am   BACKBONE|DICT|INTERRES
   101   49  174 1    
   102   50   51 2    
   103   50   52 1    
   104   52   53 1    
   105   52   54 1    
   106   52  175 1    
   107   53  176 1    
   108   53  177 1    
   109   53  178 1    
   110   54   55 am   BACKBONE|DICT|INTERRES
   111   54  179 1    
   112   55   56 2    
   113   55   57 1    
   114   57   58 1    
   115   57   59 1    
   116   57  180 1    
   117   58  181 1    
   118   58  182 1    
   119   58  183 1    
   120   59   60 am   BACKBONE|DICT|INTERRES
   121   59  184 1    
   122   60   61 2    
   123   60   62 1    
   124   62   63 1    
   125   62   64 1    
   126   62  185 1    
   127   63  186 1    
   128   63  187 1    
   129   63  188 1    
   130   64   65 am   BACKBONE|DICT|INTERRES
   131   64  189 1    
   132   65   66 2    
   133   67   68 2    
   134   67   69 am   BACKBONE|DICT|INTERRES
   135   69   70 1    
   136   69  190 1    
   137   70   71 1    
   138   70   72 1    
   139   70  191 1    
   140   71  192 1    
   141   71  193 1    
   142   71  194 1    
   143   72   73 2    
   144   72   74 am   BACKBONE|DICT|INTERRES
   145   74   75 1    
   146   74  195 1    
   147   75   76 1    
   148   75   77 1    
   149   75  196 1    
   150   76  197 1    
   151   76  198 1    
   152   76  199 1    
   153   77   78 2    
   154   77   79 am   BACKBONE|DICT|INTERRES
   155   79   80 1    
   156   79  200 1    
   157   80   81 1    
   158   80   82 1    
   159   80  201 1    
   160   81  202 1    
   161   81  203 1    
   162   81  204 1    
   163   82   83 2    
   164   82   84 am   BACKBONE|DICT|INTERRES
   165   84   85 1    
   166   84  205 1    
   167   85   86 1    
   168   85   87 1    
   169   85  206 1    
   170   86  207 1    
   171   86  208 1    
   172   86  209 1    
   173   87   88 2    
   174   87   89 am   BACKBONE|DICT|INTERRES
   175   89   90 1    
   176   89  210 1    
   177   90   91 1    
   178   90   92 1    
   179   90  211 1    
   180   91  212 1    
   181   91  213 1    
   182   91  214 1    
   183   92   93 2    
   184   92   94 am   BACKBONE|DICT|INTERRES
   185   94   95 1    
   186   94  215 1    
   187   95   96 1    
   188   95   97 1    
   189   95  216 1    
   190   96  217 1    
   191   96  218 1    
   192   96  219 1    
   193   97   98 2    
   194   97   99 am   BACKBONE|DICT|INTERRES
   195   99  100 1    
   196   99  220 1    
   197  100  101 1    
   198  100  102 1    
   199  100  221 1    
   200  101  222 1    
   201  101  223 1    
   202  101  224 1    
   203  102  103 2    
   204  102  104 am   BACKBONE|DICT|INTERRES
   205  104  105 1    
   206  104  225 1    
   207  105  106 1    
   208  105  107 1    
   209  105  226 1    
   210  106  227 1    
   211  106  228 1    
   212  106  229 1    
   213  107  108 2    
   214  107  109 am   BACKBONE|DICT|INTERRES
   215  109  110 1    
   216  109  230 1    
   217  110  111 1    
   218  110  112 1    
   219  110  231 1    
   220  111  232 1    
   221  111  233 1    
   222  111  234 1    
   223  112  113 2    
   224  112  114 am   BACKBONE|DICT|INTERRES
   225  114  115 1    
   226  114  235 1    
   227  115  116 1    
   228  115  117 1    
   229  115  236 1    
   230  116  237 1    
   231  116  238 1    
   232  116  239 1    
   233  117  118 2    
   234  117  119 am   BACKBONE|DICT|INTERRES
   235  119  120 1    
   236  119  240 1    
   237  120  121 1    
   238  120  124 1    
   239  120  241 1    
   240  121  122 am   BACKBONE|DICT|INTERRES
   241  121  123 2    
   242  122  242 1    
   243  122  243 1    
   244  124  125 1    
   245  124  244 1    
   246  124  245 1    
   247  125  126 1    
   248  126  246 1    
   249  126  247 1    
@<TRIPOS>SUBSTRUCTURE
     1 UNK         1 GROUP             0       ****    0 ROOT    
