@<TRIPOS>MOLECULE
3R540
247   249    1
SMALL
USER_CHARGES


@<TRIPOS>ATOM
      1 CA          1.4266  -15.1442  -49.1336 C.3       0 UNK        -0.1800 
      2 C           0.6423  -14.5185  -47.9929 C.2       0 UNK         0.5000 
      3 O           1.2388  -13.9786  -47.0629 O.2       0 UNK        -0.5000 
      4 N          -0.6946  -14.5538  -48.0641 N.am      1 UNK        -0.5000 
      5 CA         -1.6090  -14.0039  -47.0508 C.3       1 UNK         0.1400 
      6 C6         -3.0741  -14.4631  -47.2600 C.3       23 UNK        -0.0398 
      7 S7         -3.7698  -14.0610  -48.9032 S.3       23 UNK        -0.2404 
      8 C8         -4.0595  -15.7154  -49.6107 C.3       23 UNK        -0.0205 
      9 C9         -2.7602  -16.3927  -50.0142 C.ar      23 UNK        -0.0193 
     10 C10        -2.1169  -16.0175  -51.1958 C.ar      23 UNK        -0.1150 
     11 C11        -0.9180  -16.6239  -51.5744 C.ar      23 UNK        -0.0193 
     12 C12        -0.3630  -17.6174  -50.7612 C.ar      23 UNK        -0.1150 
     13 C13        -0.9897  -17.9927  -49.5696 C.ar      23 UNK        -0.0193 
     14 C14        -2.1921  -17.3802  -49.2046 C.ar      23 UNK        -0.1150 
     15 C15        -0.3292  -18.9956  -48.6363 C.3       23 UNK        -0.0205 
     16 S16        -0.3976  -20.7086  -49.2477 S.3       23 UNK        -0.2404 
     17 C17         0.4809  -21.5704  -47.8880 C.3       23 UNK        -0.0398 
     18 CA         -0.2835  -22.6376  -47.0426 C.3       11 UNK         0.1400 
     19 N           0.1666  -22.6354  -45.6440 N.am      11 UNK        -0.5000 
     20 C          -0.1035  -23.5948  -44.7466 C.2       10 UNK         0.5000 
     21 O          -0.7494  -24.6092  -45.0038 O.2       10 UNK        -0.5000 
     22 CA          0.3926  -23.3642  -43.3081 C.3       10 UNK         0.1400 
     23 CB          1.8935  -23.6682  -43.1919 C.3       10 UNK        -0.1800 
     24 N           0.1258  -22.0073  -42.8322 N.am      10 UNK        -0.5000 
     25 C          -1.0987  -21.4859  -42.6691 C.2       9 UNK         0.5000 
     26 O          -2.1397  -22.1142  -42.8540 O.2       9 UNK        -0.5000 
     27 CA         -1.1764  -19.9938  -42.2989 C.3       9 UNK         0.1400 
     28 CB         -0.9504  -19.7873  -40.7947 C.3       9 UNK        -0.1800 
     29 N          -0.2314  -19.1770  -43.0616 N.am      9 UNK        -0.5000 
     30 C          -0.2372  -19.0671  -44.3984 C.2       8 UNK         0.5000 
     31 O          -1.0570  -19.6182  -45.1302 O.2       8 UNK        -0.5000 
     32 CA          0.8866  -18.2355  -45.0298 C.3       8 UNK         0.1400 
     33 CB          0.5282  -16.7488  -44.9946 C.3       8 UNK        -0.1800 
     34 N           2.1683  -18.4629  -44.3677 N.am      8 UNK        -0.5000 
     35 C           2.8661  -19.6022  -44.4787 C.2       7 UNK         0.5000 
     36 O           2.5127  -20.5568  -45.1730 O.2       7 UNK        -0.5000 
     37 CA          4.1477  -19.7070  -43.6336 C.3       7 UNK         0.1400 
     38 CB          5.3007  -18.9350  -44.2924 C.3       7 UNK        -0.1800 
     39 N           3.9563  -19.2237  -42.2655 N.am      7 UNK        -0.5000 
     40 C           3.1310  -19.7871  -41.3725 C.2       6 UNK         0.5000 
     41 O           2.4585  -20.7916  -41.6020 O.2       6 UNK        -0.5000 
     42 CA          3.0107  -19.0984  -40.0013 C.3       6 UNK         0.1400 
     43 CB          4.0508  -19.6671  -39.0248 C.3       6 UNK        -0.1800 
     44 N           3.1373  -17.6390  -40.0429 N.am      6 UNK        -0.5000 
     45 C           2.3414  -16.8043  -40.7260 C.2       5 UNK         0.5000 
     46 O           1.4362  -17.1875  -41.4739 O.2       5 UNK        -0.5000 
     47 CA          2.5841  -15.2973  -40.4855 C.3       5 UNK         0.1400 
     48 CB          4.0811  -14.9155  -40.5281 C.3       5 UNK        -0.1800 
     49 N           1.7912  -14.4377  -41.3715 N.am      5 UNK        -0.5000 
     50 C           1.9239  -14.2818  -42.6962 C.2       4 UNK         0.5000 
     51 O           2.8061  -14.8224  -43.3675 O.2       4 UNK        -0.5000 
     52 CA          0.8614  -13.4091  -43.4012 C.3       4 UNK         0.1400 
     53 CB          0.0533  -12.4876  -42.4588 C.3       4 UNK        -0.1800 
     54 N           1.4206  -12.6545  -44.5217 N.am      4 UNK        -0.5000 
     55 C           2.3092  -11.6518  -44.4772 C.2       3 UNK         0.5000 
     56 O           2.7983  -11.2003  -43.4409 O.2       3 UNK        -0.5000 
     57 CA          2.6909  -11.0244  -45.8306 C.3       3 UNK         0.1400 
     58 CB          3.8801  -11.7685  -46.4583 C.3       3 UNK        -0.1800 
     59 N           1.5605  -11.0414  -46.7624 N.am      3 UNK        -0.5000 
     60 C           0.6194  -10.0885  -46.8335 C.2       2 UNK         0.5000 
     61 O           0.6604   -9.0390  -46.1903 O.2       2 UNK        -0.5000 
     62 CA         -0.5767  -10.3509  -47.7727 C.3       2 UNK         0.1400 
     63 CB         -0.2782   -9.8273  -49.1857 C.3       2 UNK        -0.1800 
     64 N          -0.9352  -11.7674  -47.8542 N.am      2 UNK        -0.5000 
     65 C          -1.4963  -12.4723  -46.8608 C.2       1 UNK         0.5000 
     66 O          -1.8797  -11.9691  -45.8044 O.2       1 UNK        -0.5000 
     67 C          -1.8270  -22.6020  -47.1455 C.2       11 UNK         0.5000 
     68 O          -2.3988  -23.3494  -47.9422 O.2       11 UNK        -0.5000 
     69 N          -2.4713  -21.7767  -46.3094 N.am      12 UNK        -0.5000 
     70 CA         -3.9241  -21.6843  -46.1845 C.3       12 UNK         0.1400 
     71 CB         -4.2922  -20.4648  -45.3269 C.3       12 UNK        -0.1800 
     72 C          -4.5576  -22.9718  -45.6285 C.2       12 UNK         0.5000 
     73 O          -5.5481  -23.4426  -46.1876 O.2       12 UNK        -0.5000 
     74 N          -3.9643  -23.5351  -44.5661 N.am      13 UNK        -0.5000 
     75 CA         -4.4046  -24.7777  -43.9260 C.3       13 UNK         0.1400 
     76 CB         -3.6324  -24.9851  -42.6143 C.3       13 UNK        -0.1800 
     77 C          -4.2633  -26.0104  -44.8370 C.2       13 UNK         0.5000 
     78 O          -5.1556  -26.8592  -44.8538 O.2       13 UNK        -0.5000 
     79 N          -3.1600  -26.0753  -45.5939 N.am      14 UNK        -0.5000 
     80 CA         -2.8920  -27.1175  -46.5862 C.3       14 UNK         0.1400 
     81 CB         -1.3971  -27.0909  -46.9428 C.3       14 UNK        -0.1800 
     82 C          -3.7379  -26.9759  -47.8665 C.2       14 UNK         0.5000 
     83 O          -3.8478  -27.9466  -48.6165 O.2       14 UNK        -0.5000 
     84 N          -4.2871  -25.7739  -48.1023 N.am      15 UNK        -0.5000 
     85 CA         -4.9665  -25.3268  -49.3216 C.3       15 UNK         0.1400 
     86 CB         -6.2999  -26.0745  -49.5266 C.3       15 UNK        -0.1800 
     87 C          -4.0225  -25.3987  -50.5387 C.2       15 UNK         0.5000 
     88 O          -4.3610  -25.9955  -51.5625 O.2       15 UNK        -0.5000 
     89 N          -2.8280  -24.8185  -50.3648 N.am      16 UNK        -0.5000 
     90 CA         -1.7585  -24.7519  -51.3551 C.3       16 UNK         0.1400 
     91 CB         -0.4092  -24.6945  -50.6103 C.3       16 UNK        -0.1800 
     92 C          -2.0010  -23.5691  -52.3138 C.2       16 UNK         0.5000 
     93 O          -3.0634  -23.4976  -52.9357 O.2       16 UNK        -0.5000 
     94 N          -1.0407  -22.6374  -52.4109 N.am      17 UNK        -0.5000 
     95 CA         -1.1091  -21.4360  -53.2517 C.3       17 UNK         0.1400 
     96 CB          0.1958  -20.6410  -53.1115 C.3       17 UNK        -0.1800 
     97 C          -2.3385  -20.5510  -52.9634 C.2       17 UNK         0.5000 
     98 O          -2.8987  -19.9871  -53.9014 O.2       17 UNK        -0.5000 
     99 N          -2.7856  -20.5530  -51.6985 N.am      18 UNK        -0.5000 
    100 CA        -4.0135  -19.9425  -51.1799 C.3       18 UNK         0.1400 
    101 CB        -4.1162  -20.2798  -49.6835 C.3       18 UNK        -0.1800 
    102 C         -5.3176  -20.3900  -51.8749 C.2       18 UNK         0.5000 
    103 O         -6.3296  -19.6979  -51.7534 O.2       18 UNK        -0.5000 
    104 N         -5.2901  -21.5454  -52.5497 N.am      19 UNK        -0.5000 
    105 CA        -6.3828  -22.0546  -53.3722 C.3       19 UNK         0.1400 
    106 CB        -6.8271  -23.4201  -52.8243 C.3       19 UNK        -0.1800 
    107 C         -5.9499  -22.1765  -54.8421 C.2       19 UNK         0.5000 
    108 O         -6.7475  -21.8834  -55.7335 O.2       19 UNK        -0.5000 
    109 N         -4.7114  -22.6306  -55.0750 N.am      20 UNK        -0.5000 
    110 CA        -4.2111  -23.0083  -56.3933 C.3       20 UNK         0.1400 
    111 CB        -3.0493  -23.9982  -56.2109 C.3       20 UNK        -0.1800 
    112 C         -3.7658  -21.8367  -57.2866 C.2       20 UNK         0.5000 
    113 O         -3.7794  -22.0064  -58.5073 O.2       20 UNK        -0.5000 
    114 N         -3.3346  -20.7078  -56.7030 N.am      21 UNK        -0.5000 
    115 CA        -2.6188  -19.6625  -57.4438 C.3       21 UNK         0.1400 
    116 CB        -1.1057  -19.8625  -57.2458 C.3       21 UNK        -0.1800 
    117 C         -3.0145  -18.2241  -57.0779 C.2       21 UNK         0.5000 
    118 O         -2.9981  -17.3642  -57.9609 O.2       21 UNK        -0.5000 
    119 N         -3.3192  -17.9585  -55.8055 N.am      22 UNK        -0.5000 
    120 CA        -3.4273  -16.6000  -55.2544 C.3       22 UNK         0.1400 
    121 C         -4.3710  -16.5167  -54.0271 C.2       22 UNK         0.5000 
    122 N         -4.7162  -15.3138  -53.5849 N.am      22 UNK        -0.7600 
    123 O         -4.8248  -17.5178  -53.4856 O.2       22 UNK        -0.5000 
    124 C124       -2.0317  -15.9439  -55.0164 C.3       23 UNK        -0.0398 
    125 S125       -0.7544  -17.0528  -54.3085 S.3       23 UNK        -0.2404 
    126 C126       -0.1903  -16.1645  -52.8272 C.3       23 UNK        -0.0205 
    127 H127        0.8992  -15.0317  -50.0798 H         1 UNK         0.0600 
    128 H128        2.3997  -14.6635  -49.2343 H         1 UNK         0.0600 
    129 H129        1.5873  -16.2049  -48.9427 H         1 UNK         0.0600 
    130 H130       -1.1412  -15.0012  -48.8539 H         1 UNK         0.3000 
    131 H131       -1.2904  -14.4253  -46.0957 H         1 UNK         0.0600 
    132 H132       -3.7232  -14.0253  -46.4995 H         1 UNK         0.0800 
    133 H133       -3.1365  -15.5389  -47.0958 H         1 UNK         0.0800 
    134 H134       -4.6976  -15.6162  -50.4896 H         1 UNK         0.0800 
    135 H135       -4.6165  -16.3305  -48.9022 H         1 UNK         0.0800 
    136 H136       -2.5441  -15.2410  -51.8138 H         1 UNK         0.1150 
    137 H137        0.5756  -18.0763  -51.0378 H         1 UNK         0.1150 
    138 H138       -2.6779  -17.6615  -48.2809 H         1 UNK         0.1150 
    139 H139        0.7129  -18.7076  -48.4920 H         1 UNK         0.0800 
    140 H140       -0.8046  -18.9572  -47.6564 H         1 UNK         0.0800 
    141 H141        1.3698  -22.0332  -48.3183 H         1 UNK         0.0800 
    142 H142        0.8733  -20.8008  -47.2240 H         1 UNK         0.0800 
    143 H143        0.0013  -23.6107  -47.4489 H         1 UNK         0.0600 
    144 H144        0.7172  -21.8392  -45.3455 H         1 UNK         0.3000 
    145 H145       -0.1445  -24.0570  -42.6572 H         1 UNK         0.0600 
    146 H146        2.2291  -23.5988  -42.1570 H         1 UNK         0.0600 
    147 H147        2.1166  -24.6777  -43.5394 H         1 UNK         0.0600 
    148 H148        2.4932  -22.9754  -43.7832 H         1 UNK         0.0600 
    149 H149        0.9363  -21.4383  -42.6038 H         1 UNK         0.3000 
    150 H150       -2.1814  -19.6425  -42.5416 H         1 UNK         0.0600 
    151 H151       -1.7143  -20.3055  -40.2138 H         1 UNK         0.0600 
    152 H152       -0.9964  -18.7314  -40.5271 H         1 UNK         0.0600 
    153 H153        0.0170  -20.1737  -40.4769 H         1 UNK         0.0600 
    154 H154        0.4614  -18.6576  -42.5324 H         1 UNK         0.3000 
    155 H155        0.9908  -18.5331  -46.0736 H         1 UNK         0.0600 
    156 H156        1.3343  -16.1367  -45.3985 H         1 UNK         0.0600 
    157 H157        0.3252  -16.4184  -43.9765 H         1 UNK         0.0600 
    158 H158       -0.3644  -16.5554  -45.5895 H         1 UNK         0.0600 
    159 H159        2.4948  -17.7400  -43.7410 H         1 UNK         0.3000 
    160 H160        4.4267  -20.7617  -43.5830 H         1 UNK         0.0600 
    161 H161        5.0953  -17.8647  -44.3408 H         1 UNK         0.0600 
    162 H162        5.4707  -19.2834  -45.3120 H         1 UNK         0.0600 
    163 H163        6.2321  -19.0736  -43.7432 H         1 UNK         0.0600 
    164 H164        4.4634  -18.3940  -41.9954 H         1 UNK         0.3000 
    165 H165        2.0196  -19.3264  -39.6063 H         1 UNK         0.0600 
    166 H166        5.0689  -19.4368  -39.3413 H         1 UNK         0.0600 
    167 H167        3.9114  -19.2659  -38.0207 H         1 UNK         0.0600 
    168 H168        3.9670  -20.7525  -38.9530 H         1 UNK         0.0600 
    169 H169        3.8525  -17.2415  -39.4515 H         1 UNK         0.3000 
    170 H170        2.2209  -15.0908  -39.4778 H         1 UNK         0.0600 
    171 H171        4.6296  -15.3597  -39.6973 H         1 UNK         0.0600 
    172 H172        4.5613  -15.2463  -41.4496 H         1 UNK         0.0600 
    173 H173        4.2136  -13.8360  -40.4532 H         1 UNK         0.0600 
    174 H174        1.0124  -13.9732  -40.9270 H         1 UNK         0.3000 
    175 H175        0.1497  -14.1012  -43.8498 H         1 UNK         0.0600 
    176 H176       -0.6412  -11.8664  -43.0251 H         1 UNK         0.0600 
    177 H177       -0.5448  -13.0662  -41.7541 H         1 UNK         0.0600 
    178 H178        0.6976  -11.8227  -41.8827 H         1 UNK         0.0600 
    179 H179        1.1947  -13.0235  -45.4411 H         1 UNK         0.3000 
    180 H180        2.9986   -9.9924  -45.6492 H         1 UNK         0.0600 
    181 H181        4.1758  -11.3127  -47.4032 H         1 UNK         0.0600 
    182 H182        4.7475  -11.7410  -45.7976 H         1 UNK         0.0600 
    183 H183        3.6483  -12.8168  -46.6492 H         1 UNK         0.0600 
    184 H184        1.4242  -11.9024  -47.2772 H         1 UNK         0.3000 
    185 H185       -1.4353   -9.8022  -47.3797 H         1 UNK         0.0600 
    186 H186       -1.1418   -9.9450  -49.8405 H         1 UNK         0.0600 
    187 H187       -0.0305   -8.7652  -49.1637 H         1 UNK         0.0600 
    188 H188        0.5632  -10.3513  -49.6407 H         1 UNK         0.0600 
    189 H189       -0.6663  -12.2598  -48.6931 H         1 UNK         0.3000 
    190 H190       -1.9250  -21.1481  -45.7250 H         1 UNK         0.3000 
    191 H191       -4.3361  -21.5260  -47.1810 H         1 UNK         0.0600 
    192 H192       -5.3741  -20.3628  -45.2358 H         1 UNK         0.0600 
    193 H193       -3.9139  -19.5442  -45.7722 H         1 UNK         0.0600 
    194 H194       -3.8819  -20.5409  -44.3198 H         1 UNK         0.0600 
    195 H195       -3.1772  -23.0589  -44.1321 H         1 UNK         0.3000 
    196 H196       -5.4630  -24.6682  -43.6812 H         1 UNK         0.0600 
    197 H197       -3.9457  -25.9032  -42.1158 H         1 UNK         0.0600 
    198 H198       -3.8075  -24.1630  -41.9203 H         1 UNK         0.0600 
    199 H199       -2.5579  -25.0539  -42.7873 H         1 UNK         0.0600 
    200 H200       -2.4352  -25.3724  -45.4699 H         1 UNK         0.3000 
    201 H201       -3.1219  -28.0881  -46.1418 H         1 UNK         0.0600 
    202 H202       -0.7778  -27.2506  -46.0601 H         1 UNK         0.0600 
    203 H203       -1.1091  -26.1368  -47.3868 H         1 UNK         0.0600 
    204 H204       -1.1494  -27.8748  -47.6596 H         1 UNK         0.0600 
    205 H205       -4.1117  -25.0476  -47.4205 H         1 UNK         0.3000 
    206 H206       -5.2002  -24.2712  -49.1739 H         1 UNK         0.0600 
    207 H207       -6.9401  -25.9823  -48.6492 H         1 UNK         0.0600 
    208 H208       -6.8485  -25.6628  -50.3745 H         1 UNK         0.0600 
    209 H209       -6.1483  -27.1363  -49.7217 H         1 UNK         0.0600 
    210 H210       -2.6560  -24.3359  -49.4848 H         1 UNK         0.3000 
    211 H211       -1.7710  -25.6616  -51.9587 H         1 UNK         0.0600 
    212 H212       -0.3228  -23.8018  -49.9904 H         1 UNK         0.0600 
    213 H213        0.4305  -24.7069  -51.3063 H         1 UNK         0.0600 
    214 H214       -0.2912  -25.5586  -49.9560 H         1 UNK         0.0600 
    215 H215       -0.2027  -22.7506  -51.8596 H         1 UNK         0.3000 
    216 H216       -1.1881  -21.7700  -54.2880 H         1 UNK         0.0600 
    217 H217        0.1966  -19.7750  -53.7725 H         1 UNK         0.0600 
    218 H218        1.0602  -21.2491  -53.3778 H         1 UNK         0.0600 
    219 H219        0.3408  -20.2777  -52.0949 H         1 UNK         0.0600 
    220 H220       -2.2232  -21.0408  -51.0161 H         1 UNK         0.3000 
    221 H221       -3.9210  -18.8617  -51.2978 H         1 UNK         0.0600 
    222 H222       -4.2145  -21.3553  -49.5298 H         1 UNK         0.0600 
    223 H223       -3.2412  -19.9475  -49.1293 H         1 UNK         0.0600 
    224 H224       -4.9843  -19.7996  -49.2302 H         1 UNK         0.0600 
    225 H225       -4.4213  -22.0667  -52.5813 H         1 UNK         0.3000 
    226 H226       -7.2412  -21.3806  -53.3418 H         1 UNK         0.0600 
    227 H227       -7.6501  -23.8283  -53.4121 H         1 UNK         0.0600 
    228 H228       -6.0143  -24.1471  -52.8473 H         1 UNK         0.0600 
    229 H229       -7.1718  -23.3372  -51.7935 H         1 UNK         0.0600 
    230 H230       -4.1228  -22.8919  -54.2880 H         1 UNK         0.3000 
    231 H231       -5.0099  -23.5325  -56.9227 H         1 UNK         0.0600 
    232 H232       -2.6831  -24.3556  -57.1742 H         1 UNK         0.0600 
    233 H233       -3.3610  -24.8719  -55.6380 H         1 UNK         0.0600 
    234 H234       -2.2082  -23.5398  -55.6902 H         1 UNK         0.0600 
    235 H235       -3.3724  -20.6122  -55.6928 H         1 UNK         0.3000 
    236 H236       -2.8244  -19.7522  -58.5125 H         1 UNK         0.0600 
    237 H237       -0.5349  -19.1019  -57.7802 H         1 UNK         0.0600 
    238 H238       -0.8297  -19.7997  -56.1925 H         1 UNK         0.0600 
    239 H239       -0.7825  -20.8339  -57.6202 H         1 UNK         0.0600 
    240 H240       -3.3056  -18.6959  -55.1028 H         1 UNK         0.3000 
    241 H241       -3.9417  -15.9980  -56.0062 H         1 UNK         0.0600 
    242 H242       -5.3536  -15.2518  -52.8077 H         1 UNK         0.3800 
    243 H243       -4.3987  -14.4681  -54.0316 H         1 UNK         0.3800 
    244 H244       -2.1161  -15.0373  -54.4166 H         1 UNK         0.0800 
    245 H245       -1.6426  -15.6067  -55.9778 H         1 UNK         0.0800 
    246 H246        0.8802  -16.3406  -52.7108 H         1 UNK         0.0800 
    247 H247       -0.2992  -15.0873  -52.9599 H         1 UNK         0.0800 
@<TRIPOS>BOND
     1    1    2 1    
     2    1  127 1    
     3    1  128 1    
     4    1  129 1    
     5    2    3 2    
     6    2    4 am   BACKBONE|DICT|INTERRES
     7    4    5 1    
     8    4  130 1    
     9    5    6 1    
    10    5   65 1    
    11    5  131 1    
    12    6    7 1    
    13    6  132 1    
    14    6  133 1    
    15    7    8 1    
    16    8    9 1    
    17    8  134 1    
    18    8  135 1    
    19    9   10 ar   
    20    9   14 ar   
    21   10   11 ar   
    22   10  136 1    
    23   11   12 ar   
    24   11  126 1    
    25   12   13 ar   
    26   12  137 1    
    27   13   14 ar   
    28   13   15 1    
    29   14  138 1    
    30   15   16 1    
    31   15  139 1    
    32   15  140 1    
    33   16   17 1    
    34   17   18 1    
    35   17  141 1    
    36   17  142 1    
    37   18   19 1    
    38   18   67 1    
    39   18  143 1    
    40   19   20 am   BACKBONE|DICT|INTERRES
    41   19  144 1    
    42   20   21 2    
    43   20   22 1    
    44   22   23 1    
    45   22   24 1    
    46   22  145 1    
    47   23  146 1    
    48   23  147 1    
    49   23  148 1    
    50   24   25 am   BACKBONE|DICT|INTERRES
    51   24  149 1    
    52   25   26 2    
    53   25   27 1    
    54   27   28 1    
    55   27   29 1    
    56   27  150 1    
    57   28  151 1    
    58   28  152 1    
    59   28  153 1    
    60   29   30 am   BACKBONE|DICT|INTERRES
    61   29  154 1    
    62   30   31 2    
    63   30   32 1    
    64   32   33 1    
    65   32   34 1    
    66   32  155 1    
    67   33  156 1    
    68   33  157 1    
    69   33  158 1    
    70   34   35 am   BACKBONE|DICT|INTERRES
    71   34  159 1    
    72   35   36 2    
    73   35   37 1    
    74   37   38 1    
    75   37   39 1    
    76   37  160 1    
    77   38  161 1    
    78   38  162 1    
    79   38  163 1    
    80   39   40 am   BACKBONE|DICT|INTERRES
    81   39  164 1    
    82   40   41 2    
    83   40   42 1    
    84   42   43 1    
    85   42   44 1    
    86   42  165 1    
    87   43  166 1    
    88   43  167 1    
    89   43  168 1    
    90   44   45 am   BACKBONE|DICT|INTERRES
    91   44  169 1    
    92   45   46 2    
    93   45   47 1    
    94   47   48 1    
    95   47   49 1    
    96   47  170 1    
    97   48  171 1    
    98   48  172 1    
    99   48  173 1    
   100   49   50 am   BACKBONE|DICT|INTERRES
   101   49  174 1    
   102   50   51 2    
   103   50   52 1    
   104   52   53 1    
   105   52   54 1    
   106   52  175 1    
   107   53  176 1    
   108   53  177 1    
   109   53  178 1    
   110   54   55 am   BACKBONE|DICT|INTERRES
   111   54  179 1    
   112   55   56 2    
   113   55   57 1    
   114   57   58 1    
   115   57   59 1    
   116   57  180 1    
   117   58  181 1    
   118   58  182 1    
   119   58  183 1    
   120   59   60 am   BACKBONE|DICT|INTERRES
   121   59  184 1    
   122   60   61 2    
   123   60   62 1    
   124   62   63 1    
   125   62   64 1    
   126   62  185 1    
   127   63  186 1    
   128   63  187 1    
   129   63  188 1    
   130   64   65 am   BACKBONE|DICT|INTERRES
   131   64  189 1    
   132   65   66 2    
   133   67   68 2    
   134   67   69 am   BACKBONE|DICT|INTERRES
   135   69   70 1    
   136   69  190 1    
   137   70   71 1    
   138   70   72 1    
   139   70  191 1    
   140   71  192 1    
   141   71  193 1    
   142   71  194 1    
   143   72   73 2    
   144   72   74 am   BACKBONE|DICT|INTERRES
   145   74   75 1    
   146   74  195 1    
   147   75   76 1    
   148   75   77 1    
   149   75  196 1    
   150   76  197 1    
   151   76  198 1    
   152   76  199 1    
   153   77   78 2    
   154   77   79 am   BACKBONE|DICT|INTERRES
   155   79   80 1    
   156   79  200 1    
   157   80   81 1    
   158   80   82 1    
   159   80  201 1    
   160   81  202 1    
   161   81  203 1    
   162   81  204 1    
   163   82   83 2    
   164   82   84 am   BACKBONE|DICT|INTERRES
   165   84   85 1    
   166   84  205 1    
   167   85   86 1    
   168   85   87 1    
   169   85  206 1    
   170   86  207 1    
   171   86  208 1    
   172   86  209 1    
   173   87   88 2    
   174   87   89 am   BACKBONE|DICT|INTERRES
   175   89   90 1    
   176   89  210 1    
   177   90   91 1    
   178   90   92 1    
   179   90  211 1    
   180   91  212 1    
   181   91  213 1    
   182   91  214 1    
   183   92   93 2    
   184   92   94 am   BACKBONE|DICT|INTERRES
   185   94   95 1    
   186   94  215 1    
   187   95   96 1    
   188   95   97 1    
   189   95  216 1    
   190   96  217 1    
   191   96  218 1    
   192   96  219 1    
   193   97   98 2    
   194   97   99 am   BACKBONE|DICT|INTERRES
   195   99  100 1    
   196   99  220 1    
   197  100  101 1    
   198  100  102 1    
   199  100  221 1    
   200  101  222 1    
   201  101  223 1    
   202  101  224 1    
   203  102  103 2    
   204  102  104 am   BACKBONE|DICT|INTERRES
   205  104  105 1    
   206  104  225 1    
   207  105  106 1    
   208  105  107 1    
   209  105  226 1    
   210  106  227 1    
   211  106  228 1    
   212  106  229 1    
   213  107  108 2    
   214  107  109 am   BACKBONE|DICT|INTERRES
   215  109  110 1    
   216  109  230 1    
   217  110  111 1    
   218  110  112 1    
   219  110  231 1    
   220  111  232 1    
   221  111  233 1    
   222  111  234 1    
   223  112  113 2    
   224  112  114 am   BACKBONE|DICT|INTERRES
   225  114  115 1    
   226  114  235 1    
   227  115  116 1    
   228  115  117 1    
   229  115  236 1    
   230  116  237 1    
   231  116  238 1    
   232  116  239 1    
   233  117  118 2    
   234  117  119 am   BACKBONE|DICT|INTERRES
   235  119  120 1    
   236  119  240 1    
   237  120  121 1    
   238  120  124 1    
   239  120  241 1    
   240  121  122 am   BACKBONE|DICT|INTERRES
   241  121  123 2    
   242  122  242 1    
   243  122  243 1    
   244  124  125 1    
   245  124  244 1    
   246  124  245 1    
   247  125  126 1    
   248  126  246 1    
   249  126  247 1    
@<TRIPOS>SUBSTRUCTURE
     1 UNK         1 GROUP             0       ****    0 ROOT    
