@<TRIPOS>MOLECULE
3R540
247   249    1
SMALL
USER_CHARGES


@<TRIPOS>ATOM
      1 CA          4.6027  -16.1742  -46.9952 C.3       0 UNK        -0.1800 
      2 C           3.1761  -15.6615  -47.1196 C.2       0 UNK         0.5000 
      3 O           2.4851  -15.5259  -46.1114 O.2       0 UNK        -0.5000 
      4 N           2.7303  -15.3734  -48.3487 N.am      1 UNK        -0.5000 
      5 CA          1.3815  -14.9027  -48.6942 C.3       1 UNK         0.1400 
      6 C6          1.0333  -15.2132  -50.1716 C.3       23 UNK        -0.0398 
      7 S7          0.7779  -16.9967  -50.4727 S.3       23 UNK        -0.2404 
      8 C8          2.4515  -17.5597  -50.9124 C.3       23 UNK        -0.0205 
      9 C9          2.4077  -18.7581  -51.8484 C.ar      23 UNK        -0.0193 
     10 C10         2.7226  -18.6022  -53.2003 C.ar      23 UNK        -0.1150 
     11 C11         2.6778  -19.6925  -54.0735 C.ar      23 UNK        -0.0193 
     12 C12         2.3286  -20.9529  -53.5814 C.ar      23 UNK        -0.1150 
     13 C13         2.0127  -21.1255  -52.2298 C.ar      23 UNK        -0.0193 
     14 C14         2.0492  -20.0215  -51.3698 C.ar      23 UNK        -0.1150 
     15 C15         1.5614  -22.4892  -51.7257 C.3       23 UNK        -0.0205 
     16 S16         2.9058  -23.4693  -50.9685 S.3       23 UNK        -0.2404 
     17 C17         3.0146  -22.7934  -49.2705 C.3       23 UNK        -0.0398 
     18 CA          2.1806  -23.5448  -48.1973 C.3       11 UNK         0.1400 
     19 N           2.4223  -22.9810  -46.8651 N.am      11 UNK        -0.5000 
     20 C           1.9029  -23.4313  -45.7125 C.2       10 UNK         0.5000 
     21 O           1.2268  -24.4538  -45.6178 O.2       10 UNK        -0.5000 
     22 CA          2.1164  -22.5462  -44.4674 C.3       10 UNK         0.1400 
     23 CB          3.4121  -22.9356  -43.7416 C.3       10 UNK        -0.1800 
     24 N           2.1432  -21.1125  -44.7761 N.am      10 UNK        -0.5000 
     25 C           1.1436  -20.4411  -45.3623 C.2       9 UNK         0.5000 
     26 O           0.0623  -20.9523  -45.6617 O.2       9 UNK        -0.5000 
     27 CA          1.4235  -18.9710  -45.7078 C.3       9 UNK         0.1400 
     28 CB          0.6021  -18.5068  -46.9209 C.3       9 UNK        -0.1800 
     29 N           1.1291  -18.1057  -44.5737 N.am      9 UNK        -0.5000 
     30 C           1.9515  -17.8771  -43.5426 C.2       8 UNK         0.5000 
     31 O           3.0552  -18.4109  -43.4200 O.2       8 UNK        -0.5000 
     32 CA          1.4532  -16.9033  -42.4615 C.3       8 UNK         0.1400 
     33 CB          1.5885  -15.4461  -42.9304 C.3       8 UNK        -0.1800 
     34 N           0.0563  -17.1739  -42.1252 N.am      8 UNK        -0.5000 
     35 C          -0.3580  -17.7772  -41.0024 C.2       7 UNK         0.5000 
     36 O           0.3908  -18.0861  -40.0745 O.2       7 UNK        -0.5000 
     37 CA         -1.8608  -18.1107  -40.8929 C.3       7 UNK         0.1400 
     38 CB         -2.5998  -17.0483  -40.0672 C.3       7 UNK        -0.1800 
     39 N          -2.5123  -18.2522  -42.1966 N.am      7 UNK        -0.5000 
     40 C          -2.2884  -19.2750  -43.0348 C.2       6 UNK         0.5000 
     41 O          -1.5863  -20.2420  -42.7423 O.2       6 UNK        -0.5000 
     42 CA         -2.9345  -19.2104  -44.4347 C.3       6 UNK         0.1400 
     43 CB         -4.1612  -20.1337  -44.4974 C.3       6 UNK        -0.1800 
     44 N          -3.3354  -17.8700  -44.8777 N.am      6 UNK        -0.5000 
     45 C          -2.5325  -16.8059  -45.0188 C.2       5 UNK         0.5000 
     46 O          -1.3379  -16.8133  -44.7183 O.2       5 UNK        -0.5000 
     47 CA         -3.1593  -15.5034  -45.5561 C.3       5 UNK         0.1400 
     48 CB         -4.6800  -15.5869  -45.8189 C.3       5 UNK        -0.1800 
     49 N          -2.8502  -14.3608  -44.6940 N.am      5 UNK        -0.5000 
     50 C          -3.1548  -14.2178  -43.3938 C.2       4 UNK         0.5000 
     51 O          -3.7528  -15.0725  -42.7382 O.2       4 UNK        -0.5000 
     52 CA         -2.7190  -12.9104  -42.6937 C.3       4 UNK         0.1400 
     53 CB         -1.5623  -13.1821  -41.7199 C.3       4 UNK        -0.1800 
     54 N          -2.2995  -11.8558  -43.6178 N.am      4 UNK        -0.5000 
     55 C          -3.1069  -11.1581  -44.4287 C.2       3 UNK         0.5000 
     56 O          -4.3348  -11.2466  -44.4091 O.2       3 UNK        -0.5000 
     57 CA         -2.4262  -10.2264  -45.4574 C.3       3 UNK         0.1400 
     58 CB         -2.5147   -8.7634  -44.9964 C.3       3 UNK        -0.1800 
     59 N          -1.0201  -10.5503  -45.7411 N.am      3 UNK        -0.5000 
     60 C          -0.5770  -11.7121  -46.2419 C.2       2 UNK         0.5000 
     61 O          -1.3228  -12.6565  -46.5146 O.2       2 UNK        -0.5000 
     62 CA          0.9513  -11.8536  -46.3951 C.3       2 UNK         0.1400 
     63 CB          1.6439  -11.8061  -45.0216 C.3       2 UNK        -0.1800 
     64 N           1.3033  -13.1197  -47.0298 N.am      2 UNK        -0.5000 
     65 C           1.1860  -13.4134  -48.3283 C.2       1 UNK         0.5000 
     66 O           0.9388  -12.5757  -49.1982 O.2       1 UNK        -0.5000 
     67 C           0.6753  -23.5422  -48.5399 C.2       11 UNK         0.5000 
     68 O           0.1398  -24.5718  -48.9484 O.2       11 UNK        -0.5000 
     69 N           0.0201  -22.3859  -48.3552 N.am      12 UNK        -0.5000 
     70 CA         -1.3930  -22.1771  -48.6729 C.3       12 UNK         0.1400 
     71 CB         -1.7258  -20.6808  -48.5867 C.3       12 UNK        -0.1800 
     72 C          -2.3218  -22.9872  -47.7566 C.2       12 UNK         0.5000 
     73 O          -3.3563  -23.4685  -48.2221 O.2       12 UNK        -0.5000 
     74 N          -1.9183  -23.1342  -46.4871 N.am      13 UNK        -0.5000 
     75 CA         -2.5692  -23.9846  -45.4950 C.3       13 UNK         0.1400 
     76 CB         -1.9892  -23.6874  -44.1040 C.3       13 UNK        -0.1800 
     77 C          -2.4318  -25.4791  -45.8364 C.2       13 UNK         0.5000 
     78 O          -3.4349  -26.1918  -45.8294 O.2       13 UNK        -0.5000 
     79 N          -1.2057  -25.9204  -46.1569 N.am      14 UNK        -0.5000 
     80 CA         -0.8797  -27.3032  -46.5193 C.3       14 UNK         0.1400 
     81 CB          0.6450  -27.4689  -46.6059 C.3       14 UNK        -0.1800 
     82 C          -1.5470  -27.7607  -47.8282 C.2       14 UNK         0.5000 
     83 O          -2.0189  -28.8956  -47.9064 O.2       14 UNK        -0.5000 
     84 N          -1.6045  -26.8602  -48.8182 N.am      15 UNK        -0.5000 
     85 CA         -2.3059  -27.0602  -50.0874 C.3       15 UNK         0.1400 
     86 CB         -1.8377  -25.9868  -51.0841 C.3       15 UNK        -0.1800 
     87 C          -3.8411  -27.0149  -49.9499 C.2       15 UNK         0.5000 
     88 O          -4.5364  -27.4565  -50.8652 O.2       15 UNK        -0.5000 
     89 N          -4.3346  -26.4502  -48.8358 N.am      16 UNK        -0.5000 
     90 CA         -5.7360  -26.1401  -48.5282 C.3       16 UNK         0.1400 
     91 CB         -6.5712  -27.4291  -48.3871 C.3       16 UNK        -0.1800 
     92 C          -6.3520  -25.1225  -49.5138 C.2       16 UNK         0.5000 
     93 O          -7.5647  -25.1235  -49.7330 O.2       16 UNK        -0.5000 
     94 N          -5.4940  -24.2745  -50.0932 N.am      17 UNK        -0.5000 
     95 CA         -5.8519  -23.2381  -51.0550 C.3       17 UNK         0.1400 
     96 CB         -4.6551  -22.9925  -51.9896 C.3       17 UNK        -0.1800 
     97 C          -6.2530  -21.9362  -50.3471 C.2       17 UNK         0.5000 
     98 O          -7.1914  -21.2721  -50.7896 O.2       17 UNK        -0.5000 
     99 N          -5.5273  -21.6073  -49.2659 N.am      18 UNK        -0.5000 
    100 CA        -5.6021  -20.3616  -48.4963 C.3       18 UNK         0.1400 
    101 CB        -6.9147  -20.3112  -47.6849 C.3       18 UNK        -0.1800 
    102 C         -5.3599  -19.1006  -49.3615 C.2       18 UNK         0.5000 
    103 O         -4.7526  -19.1975  -50.4319 O.2       18 UNK        -0.5000 
    104 N         -5.8144  -17.9375  -48.8703 N.am      19 UNK        -0.5000 
    105 CA        -5.7328  -16.6192  -49.5095 C.3       19 UNK         0.1400 
    106 CB        -6.7670  -16.5318  -50.6553 C.3       19 UNK        -0.1800 
    107 C         -4.2888  -16.2601  -49.9287 C.2       19 UNK         0.5000 
    108 O         -3.4086  -16.2192  -49.0680 O.2       19 UNK        -0.5000 
    109 N         -4.0757  -16.0314  -51.2300 N.am      20 UNK        -0.5000 
    110 CA        -2.7774  -15.7616  -51.8471 C.3       20 UNK         0.1400 
    111 CB        -2.9055  -14.5052  -52.7265 C.3       20 UNK        -0.1800 
    112 C         -2.2552  -16.9681  -52.6559 C.2       20 UNK         0.5000 
    113 O         -1.3415  -16.7899  -53.4635 O.2       20 UNK        -0.5000 
    114 N         -2.8415  -18.1589  -52.4434 N.am      21 UNK        -0.5000 
    115 CA        -2.4988  -19.4526  -53.0427 C.3       21 UNK         0.1400 
    116 CB        -1.2292  -20.0175  -52.3836 C.3       21 UNK        -0.1800 
    117 C         -2.4141  -19.4098  -54.5815 C.2       21 UNK         0.5000 
    118 O         -3.4556  -19.4446  -55.2387 O.2       21 UNK        -0.5000 
    119 N         -1.1903  -19.3353  -55.1242 N.am      22 UNK        -0.5000 
    120 CA        -0.9206  -19.1988  -56.5621 C.3       22 UNK         0.1400 
    121 C         -1.3099  -17.8185  -57.1760 C.2       22 UNK         0.5000 
    122 N         -1.5473  -16.7792  -56.3833 N.am      22 UNK        -0.7600 
    123 O         -1.4101  -17.6955  -58.3940 O.2       22 UNK        -0.5000 
    124 C124        0.5297  -19.6246  -56.9195 C.3       23 UNK        -0.0398 
    125 S125        1.8321  -18.4437  -56.4088 S.3       23 UNK        -0.2404 
    126 C126        3.0330  -19.5027  -55.5402 C.3       23 UNK        -0.0205 
    127 H127        5.0767  -16.2967  -47.9693 H         1 UNK         0.0600 
    128 H128        5.2007  -15.4774  -46.4082 H         1 UNK         0.0600 
    129 H129        4.6085  -17.1398  -46.4894 H         1 UNK         0.0600 
    130 H130        3.3654  -15.4636  -49.1275 H         1 UNK         0.3000 
    131 H131        0.6587  -15.4397  -48.0777 H         1 UNK         0.0600 
    132 H132        1.7908  -14.8160  -50.8486 H         1 UNK         0.0800 
    133 H133        0.1007  -14.7217  -50.4520 H         1 UNK         0.0800 
    134 H134        2.9913  -17.8253  -50.0026 H         1 UNK         0.0800 
    135 H135        3.0094  -16.7462  -51.3776 H         1 UNK         0.0800 
    136 H136        2.9947  -17.6275  -53.5807 H         1 UNK         0.1150 
    137 H137        2.2919  -21.7996  -54.2525 H         1 UNK         0.1150 
    138 H138        1.7652  -20.1269  -50.3340 H         1 UNK         0.1150 
    139 H139        0.7309  -22.3617  -51.0347 H         1 UNK         0.0800 
    140 H140        1.1543  -23.0668  -52.5570 H         1 UNK         0.0800 
    141 H141        2.7679  -21.7344  -49.2763 H         1 UNK         0.0800 
    142 H142        4.0678  -22.8375  -48.9898 H         1 UNK         0.0800 
    143 H143        2.5096  -24.5859  -48.1749 H         1 UNK         0.0600 
    144 H144        2.9766  -22.1389  -46.8277 H         1 UNK         0.3000 
    145 H145        1.2774  -22.7217  -43.7909 H         1 UNK         0.0600 
    146 H146        3.5292  -22.3729  -42.8152 H         1 UNK         0.0600 
    147 H147        3.4091  -23.9945  -43.4792 H         1 UNK         0.0600 
    148 H148        4.2917  -22.7524  -44.3599 H         1 UNK         0.0600 
    149 H149        2.9748  -20.6026  -44.5093 H         1 UNK         0.3000 
    150 H150        2.4789  -18.8707  -45.9700 H         1 UNK         0.0600 
    151 H151        0.8262  -19.1099  -47.8006 H         1 UNK         0.0600 
    152 H152        0.8318  -17.4758  -47.1734 H         1 UNK         0.0600 
    153 H153       -0.4702  -18.5637  -46.7359 H         1 UNK         0.0600 
    154 H154        0.2369  -17.6173  -44.6108 H         1 UNK         0.3000 
    155 H155        2.0927  -17.0308  -41.5858 H         1 UNK         0.0600 
    156 H156        1.3676  -14.7533  -42.1192 H         1 UNK         0.0600 
    157 H157        2.6043  -15.2357  -43.2674 H         1 UNK         0.0600 
    158 H158        0.9154  -15.2230  -43.7596 H         1 UNK         0.0600 
    159 H159       -0.6211  -16.9918  -42.8578 H         1 UNK         0.3000 
    160 H160       -1.9456  -19.0630  -40.3649 H         1 UNK         0.0600 
    161 H161       -3.6483  -17.3130  -39.9303 H         1 UNK         0.0600 
    162 H162       -2.5611  -16.0711  -40.5455 H         1 UNK         0.0600 
    163 H163       -2.1575  -16.9461  -39.0754 H         1 UNK         0.0600 
    164 H164       -3.0933  -17.4833  -42.5043 H         1 UNK         0.3000 
    165 H165       -2.1931  -19.5792  -45.1450 H         1 UNK         0.0600 
    166 H166       -4.5782  -20.1727  -45.5018 H         1 UNK         0.0600 
    167 H167       -3.9015  -21.1550  -44.2187 H         1 UNK         0.0600 
    168 H168       -4.9485  -19.8003  -43.8202 H         1 UNK         0.0600 
    169 H169       -4.3117  -17.7528  -45.1031 H         1 UNK         0.3000 
    170 H170       -2.6683  -15.3066  -46.5102 H         1 UNK         0.0600 
    171 H171       -4.9129  -16.3744  -46.5351 H         1 UNK         0.0600 
    172 H172       -5.2480  -15.7814  -44.9085 H         1 UNK         0.0600 
    173 H173       -5.0494  -14.6533  -46.2436 H         1 UNK         0.0600 
    174 H174       -2.3212  -13.6241  -45.1509 H         1 UNK         0.3000 
    175 H175       -3.5738  -12.5451  -42.1208 H         1 UNK         0.0600 
    176 H176       -0.6885  -13.5739  -42.2398 H         1 UNK         0.0600 
    177 H177       -1.2635  -12.2736  -41.1966 H         1 UNK         0.0600 
    178 H178       -1.8484  -13.9091  -40.9606 H         1 UNK         0.0600 
    179 H179       -1.3059  -11.7028  -43.7012 H         1 UNK         0.3000 
    180 H180       -2.9806  -10.3243  -46.3929 H         1 UNK         0.0600 
    181 H181       -1.9529   -8.5975  -44.0763 H         1 UNK         0.0600 
    182 H182       -3.5493   -8.4745  -44.8058 H         1 UNK         0.0600 
    183 H183       -2.1256   -8.0852  -45.7560 H         1 UNK         0.0600 
    184 H184       -0.3490   -9.8251  -45.5313 H         1 UNK         0.3000 
    185 H185        1.3168  -11.0302  -47.0118 H         1 UNK         0.0600 
    186 H186        1.4808  -10.8503  -44.5229 H         1 UNK         0.0600 
    187 H187        1.2775  -12.5914  -44.3587 H         1 UNK         0.0600 
    188 H188        2.7221  -11.9340  -45.1214 H         1 UNK         0.0600 
    189 H189        1.5445  -13.8879  -46.4093 H         1 UNK         0.3000 
    190 H190        0.4989  -21.6134  -47.9173 H         1 UNK         0.3000 
    191 H191       -1.5562  -22.5070  -49.7011 H         1 UNK         0.0600 
    192 H192       -1.8099  -20.3411  -47.5545 H         1 UNK         0.0600 
    193 H193       -2.6742  -20.4718  -49.0787 H         1 UNK         0.0600 
    194 H194       -0.9695  -20.0697  -49.0781 H         1 UNK         0.0600 
    195 H195       -1.0812  -22.6432  -46.1925 H         1 UNK         0.3000 
    196 H196       -3.6322  -23.7344  -45.4826 H         1 UNK         0.0600 
    197 H197       -2.5180  -24.2493  -43.3335 H         1 UNK         0.0600 
    198 H198       -2.0771  -22.6310  -43.8560 H         1 UNK         0.0600 
    199 H199       -0.9344  -23.9533  -44.0375 H         1 UNK         0.0600 
    200 H200       -0.4208  -25.2760  -46.1067 H         1 UNK         0.3000 
    201 H201       -1.2456  -27.9504  -45.7195 H         1 UNK         0.0600 
    202 H202        1.1196  -27.2482  -45.6497 H         1 UNK         0.0600 
    203 H203        1.0791  -26.8064  -47.3558 H         1 UNK         0.0600 
    204 H204        0.9142  -28.4914  -46.8735 H         1 UNK         0.0600 
    205 H205       -1.1193  -25.9733  -48.7034 H         1 UNK         0.3000 
    206 H206       -2.0361  -28.0411  -50.4837 H         1 UNK         0.0600 
    207 H207       -0.7602  -26.0381  -51.2421 H         1 UNK         0.0600 
    208 H208       -2.3149  -26.1170  -52.0562 H         1 UNK         0.0600 
    209 H209       -2.0762  -24.9818  -50.7331 H         1 UNK         0.0600 
    210 H210       -3.6699  -26.1349  -48.1415 H         1 UNK         0.3000 
    211 H211       -5.7261  -25.6462  -47.5556 H         1 UNK         0.0600 
    212 H212       -6.6922  -27.9421  -49.3414 H         1 UNK         0.0600 
    213 H213       -7.5692  -27.2083  -48.0069 H         1 UNK         0.0600 
    214 H214       -6.1056  -28.1242  -47.6882 H         1 UNK         0.0600 
    215 H215       -4.5313  -24.3004  -49.7809 H         1 UNK         0.3000 
    216 H216       -6.6962  -23.5763  -51.6598 H         1 UNK         0.0600 
    217 H217       -4.8952  -22.2362  -52.7381 H         1 UNK         0.0600 
    218 H218       -4.3789  -23.9024  -52.5227 H         1 UNK         0.0600 
    219 H219       -3.7773  -22.6454  -51.4426 H         1 UNK         0.0600 
    220 H220       -4.7966  -22.2498  -48.9815 H         1 UNK         0.3000 
    221 H221       -4.7735  -20.4036  -47.7902 H         1 UNK         0.0600 
    222 H222       -7.7811  -20.1502  -48.3275 H         1 UNK         0.0600 
    223 H223       -7.0738  -21.2431  -47.1419 H         1 UNK         0.0600 
    224 H224       -6.8982  -19.5134  -46.9421 H         1 UNK         0.0600 
    225 H225       -6.2850  -17.9549  -47.9778 H         1 UNK         0.3000 
    226 H226       -6.0184  -15.8858  -48.7542 H         1 UNK         0.0600 
    227 H227       -7.7726  -16.7286  -50.2832 H         1 UNK         0.0600 
    228 H228       -6.7844  -15.5363  -51.1009 H         1 UNK         0.0600 
    229 H229       -6.5666  -17.2544  -51.4474 H         1 UNK         0.0600 
    230 H230       -4.8581  -16.1148  -51.8636 H         1 UNK         0.3000 
    231 H231       -2.0326  -15.5576  -51.0768 H         1 UNK         0.0600 
    232 H232       -3.2659  -13.6548  -52.1475 H         1 UNK         0.0600 
    233 H233       -1.9415  -14.2198  -53.1494 H         1 UNK         0.0600 
    234 H234       -3.5955  -14.6639  -53.5561 H         1 UNK         0.0600 
    235 H235       -3.5850  -18.2079  -51.7535 H         1 UNK         0.3000 
    236 H236       -3.3195  -20.1293  -52.8001 H         1 UNK         0.0600 
    237 H237       -0.9388  -20.9692  -52.8299 H         1 UNK         0.0600 
    238 H238       -0.3905  -19.3284  -52.4761 H         1 UNK         0.0600 
    239 H239       -1.3926  -20.1970  -51.3243 H         1 UNK         0.0600 
    240 H240       -0.3921  -19.2442  -54.5118 H         1 UNK         0.3000 
    241 H241       -1.5742  -19.9191  -57.0581 H         1 UNK         0.0600 
    242 H242       -1.4392  -16.8624  -55.3754 H         1 UNK         0.3800 
    243 H243       -1.8000  -15.8925  -56.7882 H         1 UNK         0.3800 
    244 H244        0.7367  -20.6054  -56.4894 H         1 UNK         0.0800 
    245 H245        0.6148  -19.7584  -57.9991 H         1 UNK         0.0800 
    246 H246        3.1258  -20.4604  -56.0547 H         1 UNK         0.0800 
    247 H247        4.0154  -19.0323  -55.6000 H         1 UNK         0.0800 
@<TRIPOS>BOND
     1    1    2 1    
     2    1  127 1    
     3    1  128 1    
     4    1  129 1    
     5    2    3 2    
     6    2    4 am   BACKBONE|DICT|INTERRES
     7    4    5 1    
     8    4  130 1    
     9    5    6 1    
    10    5   65 1    
    11    5  131 1    
    12    6    7 1    
    13    6  132 1    
    14    6  133 1    
    15    7    8 1    
    16    8    9 1    
    17    8  134 1    
    18    8  135 1    
    19    9   10 ar   
    20    9   14 ar   
    21   10   11 ar   
    22   10  136 1    
    23   11   12 ar   
    24   11  126 1    
    25   12   13 ar   
    26   12  137 1    
    27   13   14 ar   
    28   13   15 1    
    29   14  138 1    
    30   15   16 1    
    31   15  139 1    
    32   15  140 1    
    33   16   17 1    
    34   17   18 1    
    35   17  141 1    
    36   17  142 1    
    37   18   19 1    
    38   18   67 1    
    39   18  143 1    
    40   19   20 am   BACKBONE|DICT|INTERRES
    41   19  144 1    
    42   20   21 2    
    43   20   22 1    
    44   22   23 1    
    45   22   24 1    
    46   22  145 1    
    47   23  146 1    
    48   23  147 1    
    49   23  148 1    
    50   24   25 am   BACKBONE|DICT|INTERRES
    51   24  149 1    
    52   25   26 2    
    53   25   27 1    
    54   27   28 1    
    55   27   29 1    
    56   27  150 1    
    57   28  151 1    
    58   28  152 1    
    59   28  153 1    
    60   29   30 am   BACKBONE|DICT|INTERRES
    61   29  154 1    
    62   30   31 2    
    63   30   32 1    
    64   32   33 1    
    65   32   34 1    
    66   32  155 1    
    67   33  156 1    
    68   33  157 1    
    69   33  158 1    
    70   34   35 am   BACKBONE|DICT|INTERRES
    71   34  159 1    
    72   35   36 2    
    73   35   37 1    
    74   37   38 1    
    75   37   39 1    
    76   37  160 1    
    77   38  161 1    
    78   38  162 1    
    79   38  163 1    
    80   39   40 am   BACKBONE|DICT|INTERRES
    81   39  164 1    
    82   40   41 2    
    83   40   42 1    
    84   42   43 1    
    85   42   44 1    
    86   42  165 1    
    87   43  166 1    
    88   43  167 1    
    89   43  168 1    
    90   44   45 am   BACKBONE|DICT|INTERRES
    91   44  169 1    
    92   45   46 2    
    93   45   47 1    
    94   47   48 1    
    95   47   49 1    
    96   47  170 1    
    97   48  171 1    
    98   48  172 1    
    99   48  173 1    
   100   49   50 am   BACKBONE|DICT|INTERRES
   101   49  174 1    
   102   50   51 2    
   103   50   52 1    
   104   52   53 1    
   105   52   54 1    
   106   52  175 1    
   107   53  176 1    
   108   53  177 1    
   109   53  178 1    
   110   54   55 am   BACKBONE|DICT|INTERRES
   111   54  179 1    
   112   55   56 2    
   113   55   57 1    
   114   57   58 1    
   115   57   59 1    
   116   57  180 1    
   117   58  181 1    
   118   58  182 1    
   119   58  183 1    
   120   59   60 am   BACKBONE|DICT|INTERRES
   121   59  184 1    
   122   60   61 2    
   123   60   62 1    
   124   62   63 1    
   125   62   64 1    
   126   62  185 1    
   127   63  186 1    
   128   63  187 1    
   129   63  188 1    
   130   64   65 am   BACKBONE|DICT|INTERRES
   131   64  189 1    
   132   65   66 2    
   133   67   68 2    
   134   67   69 am   BACKBONE|DICT|INTERRES
   135   69   70 1    
   136   69  190 1    
   137   70   71 1    
   138   70   72 1    
   139   70  191 1    
   140   71  192 1    
   141   71  193 1    
   142   71  194 1    
   143   72   73 2    
   144   72   74 am   BACKBONE|DICT|INTERRES
   145   74   75 1    
   146   74  195 1    
   147   75   76 1    
   148   75   77 1    
   149   75  196 1    
   150   76  197 1    
   151   76  198 1    
   152   76  199 1    
   153   77   78 2    
   154   77   79 am   BACKBONE|DICT|INTERRES
   155   79   80 1    
   156   79  200 1    
   157   80   81 1    
   158   80   82 1    
   159   80  201 1    
   160   81  202 1    
   161   81  203 1    
   162   81  204 1    
   163   82   83 2    
   164   82   84 am   BACKBONE|DICT|INTERRES
   165   84   85 1    
   166   84  205 1    
   167   85   86 1    
   168   85   87 1    
   169   85  206 1    
   170   86  207 1    
   171   86  208 1    
   172   86  209 1    
   173   87   88 2    
   174   87   89 am   BACKBONE|DICT|INTERRES
   175   89   90 1    
   176   89  210 1    
   177   90   91 1    
   178   90   92 1    
   179   90  211 1    
   180   91  212 1    
   181   91  213 1    
   182   91  214 1    
   183   92   93 2    
   184   92   94 am   BACKBONE|DICT|INTERRES
   185   94   95 1    
   186   94  215 1    
   187   95   96 1    
   188   95   97 1    
   189   95  216 1    
   190   96  217 1    
   191   96  218 1    
   192   96  219 1    
   193   97   98 2    
   194   97   99 am   BACKBONE|DICT|INTERRES
   195   99  100 1    
   196   99  220 1    
   197  100  101 1    
   198  100  102 1    
   199  100  221 1    
   200  101  222 1    
   201  101  223 1    
   202  101  224 1    
   203  102  103 2    
   204  102  104 am   BACKBONE|DICT|INTERRES
   205  104  105 1    
   206  104  225 1    
   207  105  106 1    
   208  105  107 1    
   209  105  226 1    
   210  106  227 1    
   211  106  228 1    
   212  106  229 1    
   213  107  108 2    
   214  107  109 am   BACKBONE|DICT|INTERRES
   215  109  110 1    
   216  109  230 1    
   217  110  111 1    
   218  110  112 1    
   219  110  231 1    
   220  111  232 1    
   221  111  233 1    
   222  111  234 1    
   223  112  113 2    
   224  112  114 am   BACKBONE|DICT|INTERRES
   225  114  115 1    
   226  114  235 1    
   227  115  116 1    
   228  115  117 1    
   229  115  236 1    
   230  116  237 1    
   231  116  238 1    
   232  116  239 1    
   233  117  118 2    
   234  117  119 am   BACKBONE|DICT|INTERRES
   235  119  120 1    
   236  119  240 1    
   237  120  121 1    
   238  120  124 1    
   239  120  241 1    
   240  121  122 am   BACKBONE|DICT|INTERRES
   241  121  123 2    
   242  122  242 1    
   243  122  243 1    
   244  124  125 1    
   245  124  244 1    
   246  124  245 1    
   247  125  126 1    
   248  126  246 1    
   249  126  247 1    
@<TRIPOS>SUBSTRUCTURE
     1 UNK         1 GROUP             0       ****    0 ROOT    
