@<TRIPOS>MOLECULE
3R540
247   249    1
SMALL
USER_CHARGES


@<TRIPOS>ATOM
      1 CA         -2.8709  -12.5418  -43.5087 C.3       0 UNK        -0.1800 
      2 C          -2.3210  -12.2969  -44.9066 C.2       0 UNK         0.5000 
      3 O          -2.3478  -11.1645  -45.3877 O.2       0 UNK        -0.5000 
      4 N          -1.8210  -13.3557  -45.5563 N.am      1 UNK        -0.5000 
      5 CA         -1.2322  -13.3389  -46.9053 C.3       1 UNK         0.1400 
      6 C6         -0.9747  -14.7650  -47.4671 C.3       23 UNK        -0.0398 
      7 S7         -2.2867  -15.9829  -47.0946 S.3       23 UNK        -0.2404 
      8 C8         -2.9248  -16.4049  -48.7506 C.3       23 UNK        -0.0205 
      9 C9         -1.9858  -17.1845  -49.6764 C.ar      23 UNK        -0.0193 
     10 C10        -2.4524  -17.4847  -50.9596 C.ar      23 UNK        -0.1150 
     11 C11        -1.6463  -18.1590  -51.8788 C.ar      23 UNK        -0.0193 
     12 C12        -0.3551  -18.5403  -51.5099 C.ar      23 UNK        -0.1150 
     13 C13         0.1355  -18.2431  -50.2363 C.ar      23 UNK        -0.0193 
     14 C14        -0.6890  -17.5852  -49.3170 C.ar      23 UNK        -0.1150 
     15 C15         1.5803  -18.5752  -49.8910 C.3       23 UNK        -0.0205 
     16 S16         1.8028  -20.3137  -49.4066 S.3       23 UNK        -0.2404 
     17 C17         1.3978  -20.2391  -47.6312 C.3       23 UNK        -0.0398 
     18 CA          0.6560  -21.4981  -47.1275 C.3       11 UNK         0.1400 
     19 N           0.7289  -21.6146  -45.6694 N.am      11 UNK        -0.5000 
     20 C           0.3243  -22.6746  -44.9570 C.2       10 UNK         0.5000 
     21 O          -0.1225  -23.7051  -45.4582 O.2       10 UNK        -0.5000 
     22 CA          0.3830  -22.5447  -43.4239 C.3       10 UNK         0.1400 
     23 CB          1.8056  -22.7974  -42.9034 C.3       10 UNK        -0.1800 
     24 N          -0.0957  -21.2443  -42.9524 N.am      10 UNK        -0.5000 
     25 C          -1.3509  -20.8008  -43.1161 C.2       9 UNK         0.5000 
     26 O          -2.2484  -21.4645  -43.6349 O.2       9 UNK        -0.5000 
     27 CA         -1.6455  -19.3584  -42.6701 C.3       9 UNK         0.1400 
     28 CB         -1.8711  -19.2943  -41.1524 C.3       9 UNK        -0.1800 
     29 N          -0.5934  -18.4171  -43.0555 N.am      9 UNK        -0.5000 
     30 C          -0.2333  -18.1548  -44.3205 C.2       8 UNK         0.5000 
     31 O          -0.7645  -18.6658  -45.3055 O.2       8 UNK        -0.5000 
     32 CA          0.9626  -17.2070  -44.5169 C.3       8 UNK         0.1400 
     33 CB          0.5679  -15.7536  -44.2245 C.3       8 UNK        -0.1800 
     34 N           2.1067  -17.5705  -43.6852 N.am      8 UNK        -0.5000 
     35 C           2.7518  -18.7436  -43.7280 C.2       7 UNK         0.5000 
     36 O           2.4931  -19.6418  -44.5275 O.2       7 UNK        -0.5000 
     37 CA          3.8326  -18.9681  -42.6589 C.3       7 UNK         0.1400 
     38 CB          5.1564  -18.3055  -43.0681 C.3       7 UNK        -0.1800 
     39 N           3.4101  -18.4656  -41.3515 N.am      7 UNK        -0.5000 
     40 C           2.4424  -19.0192  -40.6070 C.2       6 UNK         0.5000 
     41 O           1.8241  -20.0338  -40.9312 O.2       6 UNK        -0.5000 
     42 CA          2.0825  -18.2922  -39.2985 C.3       6 UNK         0.1400 
     43 CB          3.0859  -18.6394  -38.1885 C.3       6 UNK        -0.1800 
     44 N           2.0191  -16.8382  -39.4617 N.am      6 UNK        -0.5000 
     45 C           1.0883  -16.2055  -40.1889 C.2       5 UNK         0.5000 
     46 O           0.1786  -16.7831  -40.7826 O.2       5 UNK        -0.5000 
     47 CA          1.2101  -14.6747  -40.3044 C.3       5 UNK         0.1400 
     48 CB          0.5256  -13.9880  -39.1136 C.3       5 UNK        -0.1800 
     49 N           2.5822  -14.1750  -40.4253 N.am      5 UNK        -0.5000 
     50 C           3.4711  -14.5405  -41.3581 C.2       4 UNK         0.5000 
     51 O           3.2781  -15.4436  -42.1729 O.2       4 UNK        -0.5000 
     52 CA          4.7666  -13.7097  -41.4184 C.3       4 UNK         0.1400 
     53 CB          5.8871  -14.4243  -42.1944 C.3       4 UNK        -0.1800 
     54 N           4.4896  -12.4280  -42.0625 N.am      4 UNK        -0.5000 
     55 C           3.8970  -11.3789  -41.4760 C.2       3 UNK         0.5000 
     56 O           3.6454  -11.3246  -40.2710 O.2       3 UNK        -0.5000 
     57 CA          3.4832  -10.2116  -42.3952 C.3       3 UNK         0.1400 
     58 CB          4.5784   -9.1346  -42.4234 C.3       3 UNK        -0.1800 
     59 N           3.1793  -10.6259  -43.7704 N.am      3 UNK        -0.5000 
     60 C           2.1629  -11.4258  -44.1210 C.2       2 UNK         0.5000 
     61 O           1.3517  -11.8986  -43.3187 O.2       2 UNK        -0.5000 
     62 CA          2.0527  -11.7742  -45.6136 C.3       2 UNK         0.1400 
     63 CB          3.2078  -12.6912  -46.0582 C.3       2 UNK        -0.1800 
     64 N           0.7830  -12.4537  -45.8264 N.am      2 UNK        -0.5000 
     65 C           0.0852  -12.5308  -46.9646 C.2       1 UNK         0.5000 
     66 O           0.4450  -12.0214  -48.0263 O.2       1 UNK        -0.5000 
     67 C          -0.7993  -21.5541  -47.6353 C.2       11 UNK         0.5000 
     68 O          -1.0932  -22.3255  -48.5491 O.2       11 UNK        -0.5000 
     69 N          -1.6922  -20.7844  -46.9967 N.am      12 UNK        -0.5000 
     70 CA         -3.1262  -20.7696  -47.2816 C.3       12 UNK         0.1400 
     71 CB         -3.8078  -19.6786  -46.4441 C.3       12 UNK        -0.1800 
     72 C          -3.7927  -22.1367  -47.0454 C.2       12 UNK         0.5000 
     73 O          -4.5765  -22.5774  -47.8853 O.2       12 UNK        -0.5000 
     74 N          -3.4409  -22.8008  -45.9352 N.am      13 UNK        -0.5000 
     75 CA         -3.9029  -24.1465  -45.5929 C.3       13 UNK         0.1400 
     76 CB         -3.4840  -24.4858  -44.1546 C.3       13 UNK        -0.1800 
     77 C          -3.4039  -25.2227  -46.5749 C.2       13 UNK         0.5000 
     78 O          -4.1746  -26.1137  -46.9327 O.2       13 UNK        -0.5000 
     79 N          -2.1385  -25.1138  -47.0044 N.am      14 UNK        -0.5000 
     80 CA         -1.5168  -25.9980  -47.9908 C.3       14 UNK         0.1400 
     81 CB          0.0007  -25.7593  -48.0193 C.3       14 UNK        -0.1800 
     82 C          -2.1219  -25.8370  -49.3966 C.2       14 UNK         0.5000 
     83 O          -2.3574  -26.8406  -50.0709 O.2       14 UNK        -0.5000 
     84 N          -2.3759  -24.5860  -49.8071 N.am      15 UNK        -0.5000 
     85 CA         -3.0357  -24.2509  -51.0692 C.3       15 UNK         0.1400 
     86 CB         -2.8764  -22.7494  -51.3481 C.3       15 UNK        -0.1800 
     87 C          -4.5231  -24.6484  -51.0771 C.2       15 UNK         0.5000 
     88 O          -5.0214  -25.1038  -52.1067 O.2       15 UNK        -0.5000 
     89 N          -5.1965  -24.4645  -49.9316 N.am      16 UNK        -0.5000 
     90 CA         -6.5888  -24.7880  -49.5991 C.3       16 UNK         0.1400 
     91 CB         -6.8590  -26.3004  -49.7171 C.3       16 UNK        -0.1800 
     92 C          -7.6257  -23.9595  -50.3805 C.2       16 UNK         0.5000 
     93 O          -8.4276  -23.2515  -49.7708 O.2       16 UNK        -0.5000 
     94 N          -7.5772  -24.0478  -51.7134 N.am      17 UNK        -0.5000 
     95 CA         -8.4170  -23.3000  -52.6500 C.3       17 UNK         0.1400 
     96 CB         -8.6308  -24.1661  -53.9024 C.3       17 UNK        -0.1800 
     97 C          -7.8021  -21.9414  -53.0405 C.2       17 UNK         0.5000 
     98 O          -8.4521  -21.1720  -53.7499 O.2       17 UNK        -0.5000 
     99 N          -6.5524  -21.6902  -52.6169 N.am      18 UNK        -0.5000 
    100 CA        -5.6772  -20.5528  -52.9321 C.3       18 UNK         0.1400 
    101 CB        -6.2993  -19.2051  -52.5181 C.3       18 UNK        -0.1800 
    102 C         -5.2171  -20.5497  -54.4011 C.2       18 UNK         0.5000 
    103 O         -4.0156  -20.6216  -54.6636 O.2       18 UNK        -0.5000 
    104 N         -6.1754  -20.5354  -55.3362 N.am      19 UNK        -0.5000 
    105 CA        -5.9719  -20.5538  -56.7882 C.3       19 UNK         0.1400 
    106 CB        -7.3378  -20.4436  -57.4825 C.3       19 UNK        -0.1800 
    107 C         -5.2031  -21.7876  -57.3038 C.2       19 UNK         0.5000 
    108 O         -4.5657  -21.7072  -58.3530 O.2       19 UNK        -0.5000 
    109 N         -5.2314  -22.8881  -56.5395 N.am      20 UNK        -0.5000 
    110 CA        -4.4492  -24.1012  -56.7846 C.3       20 UNK         0.1400 
    111 CB        -4.9033  -25.1909  -55.8019 C.3       20 UNK        -0.1800 
    112 C         -2.9232  -23.8866  -56.6839 C.2       20 UNK         0.5000 
    113 O         -2.1750  -24.6290  -57.3221 O.2       20 UNK        -0.5000 
    114 N         -2.4925  -22.8851  -55.9018 N.am      21 UNK        -0.5000 
    115 CA        -1.0909  -22.4941  -55.7484 C.3       21 UNK         0.1400 
    116 CB        -0.7467  -22.4136  -54.2530 C.3       21 UNK        -0.1800 
    117 C         -0.8036  -21.1540  -56.4470 C.2       21 UNK         0.5000 
    118 O          0.2317  -21.0291  -57.1029 O.2       21 UNK        -0.5000 
    119 N         -1.7122  -20.1797  -56.2987 N.am      22 UNK        -0.5000 
    120 CA        -1.5803  -18.8258  -56.8653 C.3       22 UNK         0.1400 
    121 C         -1.9435  -18.7087  -58.3747 C.2       22 UNK         0.5000 
    122 N         -2.5804  -19.6893  -59.0019 N.am      22 UNK        -0.7600 
    123 O         -1.6227  -17.7018  -59.0013 O.2       22 UNK        -0.5000 
    124 C124       -2.3507  -17.7794  -56.0165 C.3       23 UNK        -0.0398 
    125 S125       -1.4494  -17.3168  -54.4982 S.3       23 UNK        -0.2404 
    126 C126       -2.1616  -18.4561  -53.2760 C.3       23 UNK        -0.0205 
    127 H127       -3.9176  -12.2418  -43.4584 H         1 UNK         0.0600 
    128 H128       -2.8039  -13.5923  -43.2245 H         1 UNK         0.0600 
    129 H129       -2.3107  -11.9568  -42.7791 H         1 UNK         0.0600 
    130 H130       -1.8829  -14.2687  -45.1301 H         1 UNK         0.3000 
    131 H131       -1.9504  -12.8439  -47.5623 H         1 UNK         0.0600 
    132 H132       -0.0451  -15.1792  -47.0727 H         1 UNK         0.0800 
    133 H133       -0.8295  -14.7082  -48.5474 H         1 UNK         0.0800 
    134 H134       -3.8332  -16.9932  -48.6140 H         1 UNK         0.0800 
    135 H135       -3.2292  -15.4822  -49.2470 H         1 UNK         0.0800 
    136 H136       -3.4475  -17.1773  -51.2499 H         1 UNK         0.1150 
    137 H137        0.2784  -19.0454  -52.2258 H         1 UNK         0.1150 
    138 H138       -0.2994  -17.3674  -48.3345 H         1 UNK         0.1150 
    139 H139        2.2081  -18.3779  -50.7613 H         1 UNK         0.0800 
    140 H140        1.9516  -17.9180  -49.1030 H         1 UNK         0.0800 
    141 H141        0.8296  -19.3364  -47.4040 H         1 UNK         0.0800 
    142 H142        2.3474  -20.1342  -47.1057 H         1 UNK         0.0800 
    143 H143        1.1719  -22.3733  -47.5285 H         1 UNK         0.0600 
    144 H144        1.1277  -20.8214  -45.1744 H         1 UNK         0.3000 
    145 H145       -0.2707  -23.3111  -43.0025 H         1 UNK         0.0600 
    146 H146        1.8346  -22.7812  -41.8138 H         1 UNK         0.0600 
    147 H147        2.1706  -23.7737  -43.2245 H         1 UNK         0.0600 
    148 H148        2.5089  -22.0482  -43.2668 H         1 UNK         0.0600 
    149 H149        0.5786  -20.6520  -42.4797 H         1 UNK         0.3000 
    150 H150       -2.5668  -19.0425  -43.1635 H         1 UNK         0.0600 
    151 H151       -2.6507  -19.9911  -40.8424 H         1 UNK         0.0600 
    152 H152       -2.1852  -18.2972  -40.8436 H         1 UNK         0.0600 
    153 H153       -0.9651  -19.5452  -40.5997 H         1 UNK         0.0600 
    154 H154       -0.1286  -17.9251  -42.2971 H         1 UNK         0.3000 
    155 H155        1.2706  -17.2752  -45.5622 H         1 UNK         0.0600 
    156 H156        0.3683  -15.5948  -43.1671 H         1 UNK         0.0600 
    157 H157       -0.3378  -15.4844  -44.7611 H         1 UNK         0.0600 
    158 H158        1.3554  -15.0621  -44.5234 H         1 UNK         0.0600 
    159 H159        2.4281  -16.8690  -43.0221 H         1 UNK         0.3000 
    160 H160        4.0029  -20.0433  -42.5732 H         1 UNK         0.0600 
    161 H161        5.9340  -18.4834  -42.3252 H         1 UNK         0.0600 
    162 H162        5.0493  -17.2278  -43.1914 H         1 UNK         0.0600 
    163 H163        5.5142  -18.7081  -44.0165 H         1 UNK         0.0600 
    164 H164        3.8163  -17.5926  -41.0486 H         1 UNK         0.3000 
    165 H165        1.0962  -18.6422  -38.9859 H         1 UNK         0.0600 
    166 H166        2.7910  -18.1948  -37.2379 H         1 UNK         0.0600 
    167 H167        3.1421  -19.7184  -38.0378 H         1 UNK         0.0600 
    168 H168        4.0907  -18.2883  -38.4265 H         1 UNK         0.0600 
    169 H169        2.7360  -16.2895  -39.0102 H         1 UNK         0.3000 
    170 H170        0.6820  -14.3718  -41.2100 H         1 UNK         0.0600 
    171 H171       -0.5082  -14.3210  -39.0113 H         1 UNK         0.0600 
    172 H172        1.0364  -14.2060  -38.1750 H         1 UNK         0.0600 
    173 H173        0.5055  -12.9055  -39.2419 H         1 UNK         0.0600 
    174 H174        2.8181  -13.3778  -39.8477 H         1 UNK         0.3000 
    175 H175        5.1162  -13.5408  -40.3976 H         1 UNK         0.0600 
    176 H176        5.6104  -14.6058  -43.2339 H         1 UNK         0.0600 
    177 H177        6.8043  -13.8353  -42.1913 H         1 UNK         0.0600 
    178 H178        6.1198  -15.3890  -41.7420 H         1 UNK         0.0600 
    179 H179        4.6315  -12.3912  -43.0607 H         1 UNK         0.3000 
    180 H180        2.5792   -9.7685  -41.9719 H         1 UNK         0.0600 
    181 H181        5.5035   -9.5120  -42.8611 H         1 UNK         0.0600 
    182 H182        4.8100   -8.7866  -41.4158 H         1 UNK         0.0600 
    183 H183        4.2627   -8.2653  -43.0007 H         1 UNK         0.0600 
    184 H184        3.7976  -10.2771  -44.4889 H         1 UNK         0.3000 
    185 H185        2.0690  -10.8457  -46.1877 H         1 UNK         0.0600 
    186 H186        4.1731  -12.1979  -45.9411 H         1 UNK         0.0600 
    187 H187        3.2362  -13.6126  -45.4749 H         1 UNK         0.0600 
    188 H188        3.1139  -12.9652  -47.1092 H         1 UNK         0.0600 
    189 H189        0.3775  -12.8241  -44.9757 H         1 UNK         0.3000 
    190 H190       -1.3660  -20.1474  -46.2730 H         1 UNK         0.3000 
    191 H191       -3.2488  -20.5153  -48.3365 H         1 UNK         0.0600 
    192 H192       -3.7059  -19.8669  -45.3752 H         1 UNK         0.0600 
    193 H193       -4.8731  -19.6199  -46.6699 H         1 UNK         0.0600 
    194 H194       -3.3761  -18.7005  -46.6506 H         1 UNK         0.0600 
    195 H195       -2.8240  -22.3479  -45.2663 H         1 UNK         0.3000 
    196 H196       -4.9941  -24.1429  -45.6344 H         1 UNK         0.0600 
    197 H197       -2.4002  -24.4693  -44.0363 H         1 UNK         0.0600 
    198 H198       -3.8313  -25.4797  -43.8699 H         1 UNK         0.0600 
    199 H199       -3.9082  -23.7768  -43.4434 H         1 UNK         0.0600 
    200 H200       -1.5475  -24.3867  -46.6117 H         1 UNK         0.3000 
    201 H201       -1.6889  -27.0282  -47.6722 H         1 UNK         0.0600 
    202 H202        0.4489  -25.9614  -47.0464 H         1 UNK         0.0600 
    203 H203        0.2427  -24.7317  -48.2915 H         1 UNK         0.0600 
    204 H204        0.4862  -26.4146  -48.7434 H         1 UNK         0.0600 
    205 H205       -2.0851  -23.8075  -49.2201 H         1 UNK         0.3000 
    206 H206       -2.5365  -24.7998  -51.8705 H         1 UNK         0.0600 
    207 H207       -1.8261  -22.4570  -51.3446 H         1 UNK         0.0600 
    208 H208       -3.2806  -22.4959  -52.3281 H         1 UNK         0.0600 
    209 H209       -3.3908  -22.1411  -50.6029 H         1 UNK         0.0600 
    210 H210       -4.7048  -23.9878  -49.1799 H         1 UNK         0.3000 
    211 H211       -6.7036  -24.5214  -48.5468 H         1 UNK         0.0600 
    212 H212       -6.7551  -26.6603  -50.7411 H         1 UNK         0.0600 
    213 H213       -7.8705  -26.5409  -49.3881 H         1 UNK         0.0600 
    214 H214       -6.1698  -26.8692  -49.0921 H         1 UNK         0.0600 
    215 H215       -6.8393  -24.6241  -52.1122 H         1 UNK         0.3000 
    216 H216       -9.3906  -23.1039  -52.1959 H         1 UNK         0.0600 
    217 H217       -9.2786  -23.6647  -54.6232 H         1 UNK         0.0600 
    218 H218       -9.1043  -25.1146  -53.6483 H         1 UNK         0.0600 
    219 H219       -7.6883  -24.3868  -54.4045 H         1 UNK         0.0600 
    220 H220       -6.1281  -22.4096  -52.0500 H         1 UNK         0.3000 
    221 H221       -4.7820  -20.6833  -52.3234 H         1 UNK         0.0600 
    222 H222       -7.1932  -18.9646  -53.0942 H         1 UNK         0.0600 
    223 H223       -6.5731  -19.2083  -51.4628 H         1 UNK         0.0600 
    224 H224       -5.5928  -18.3880  -52.6659 H         1 UNK         0.0600 
    225 H225       -7.1378  -20.5423  -55.0086 H         1 UNK         0.3000 
    226 H226       -5.3807  -19.6732  -57.0482 H         1 UNK         0.0600 
    227 H227       -7.8518  -19.5247  -57.1977 H         1 UNK         0.0600 
    228 H228       -7.2267  -20.4298  -58.5679 H         1 UNK         0.0600 
    229 H229       -7.9859  -21.2835  -57.2282 H         1 UNK         0.0600 
    230 H230       -5.7829  -22.8652  -55.6957 H         1 UNK         0.3000 
    231 H231       -4.6666  -24.4420  -57.7994 H         1 UNK         0.0600 
    232 H232       -5.9611  -25.4220  -55.9285 H         1 UNK         0.0600 
    233 H233       -4.7448  -24.8868  -54.7669 H         1 UNK         0.0600 
    234 H234       -4.3491  -26.1173  -55.9597 H         1 UNK         0.0600 
    235 H235       -3.1767  -22.2997  -55.4365 H         1 UNK         0.3000 
    236 H236       -0.4325  -23.2418  -56.1963 H         1 UNK         0.0600 
    237 H237        0.2882  -22.1011  -54.1036 H         1 UNK         0.0600 
    238 H238       -1.3840  -21.7013  -53.7304 H         1 UNK         0.0600 
    239 H239       -0.8667  -23.3843  -53.7709 H         1 UNK         0.0600 
    240 H240       -2.5377  -20.3487  -55.7311 H         1 UNK         0.3000 
    241 H241       -0.5226  -18.5562  -56.8228 H         1 UNK         0.0600 
    242 H242       -2.7894  -19.5832  -59.9817 H         1 UNK         0.3800 
    243 H243       -2.9187  -20.5119  -58.5176 H         1 UNK         0.3800 
    244 H244       -2.4909  -16.8507  -56.5729 H         1 UNK         0.0800 
    245 H245       -3.3547  -18.1309  -55.7737 H         1 UNK         0.0800 
    246 H246       -3.2483  -18.3816  -53.3036 H         1 UNK         0.0800 
    247 H247       -1.9065  -19.4800  -53.5426 H         1 UNK         0.0800 
@<TRIPOS>BOND
     1    1    2 1    
     2    1  127 1    
     3    1  128 1    
     4    1  129 1    
     5    2    3 2    
     6    2    4 am   BACKBONE|DICT|INTERRES
     7    4    5 1    
     8    4  130 1    
     9    5    6 1    
    10    5   65 1    
    11    5  131 1    
    12    6    7 1    
    13    6  132 1    
    14    6  133 1    
    15    7    8 1    
    16    8    9 1    
    17    8  134 1    
    18    8  135 1    
    19    9   10 ar   
    20    9   14 ar   
    21   10   11 ar   
    22   10  136 1    
    23   11   12 ar   
    24   11  126 1    
    25   12   13 ar   
    26   12  137 1    
    27   13   14 ar   
    28   13   15 1    
    29   14  138 1    
    30   15   16 1    
    31   15  139 1    
    32   15  140 1    
    33   16   17 1    
    34   17   18 1    
    35   17  141 1    
    36   17  142 1    
    37   18   19 1    
    38   18   67 1    
    39   18  143 1    
    40   19   20 am   BACKBONE|DICT|INTERRES
    41   19  144 1    
    42   20   21 2    
    43   20   22 1    
    44   22   23 1    
    45   22   24 1    
    46   22  145 1    
    47   23  146 1    
    48   23  147 1    
    49   23  148 1    
    50   24   25 am   BACKBONE|DICT|INTERRES
    51   24  149 1    
    52   25   26 2    
    53   25   27 1    
    54   27   28 1    
    55   27   29 1    
    56   27  150 1    
    57   28  151 1    
    58   28  152 1    
    59   28  153 1    
    60   29   30 am   BACKBONE|DICT|INTERRES
    61   29  154 1    
    62   30   31 2    
    63   30   32 1    
    64   32   33 1    
    65   32   34 1    
    66   32  155 1    
    67   33  156 1    
    68   33  157 1    
    69   33  158 1    
    70   34   35 am   BACKBONE|DICT|INTERRES
    71   34  159 1    
    72   35   36 2    
    73   35   37 1    
    74   37   38 1    
    75   37   39 1    
    76   37  160 1    
    77   38  161 1    
    78   38  162 1    
    79   38  163 1    
    80   39   40 am   BACKBONE|DICT|INTERRES
    81   39  164 1    
    82   40   41 2    
    83   40   42 1    
    84   42   43 1    
    85   42   44 1    
    86   42  165 1    
    87   43  166 1    
    88   43  167 1    
    89   43  168 1    
    90   44   45 am   BACKBONE|DICT|INTERRES
    91   44  169 1    
    92   45   46 2    
    93   45   47 1    
    94   47   48 1    
    95   47   49 1    
    96   47  170 1    
    97   48  171 1    
    98   48  172 1    
    99   48  173 1    
   100   49   50 am   BACKBONE|DICT|INTERRES
   101   49  174 1    
   102   50   51 2    
   103   50   52 1    
   104   52   53 1    
   105   52   54 1    
   106   52  175 1    
   107   53  176 1    
   108   53  177 1    
   109   53  178 1    
   110   54   55 am   BACKBONE|DICT|INTERRES
   111   54  179 1    
   112   55   56 2    
   113   55   57 1    
   114   57   58 1    
   115   57   59 1    
   116   57  180 1    
   117   58  181 1    
   118   58  182 1    
   119   58  183 1    
   120   59   60 am   BACKBONE|DICT|INTERRES
   121   59  184 1    
   122   60   61 2    
   123   60   62 1    
   124   62   63 1    
   125   62   64 1    
   126   62  185 1    
   127   63  186 1    
   128   63  187 1    
   129   63  188 1    
   130   64   65 am   BACKBONE|DICT|INTERRES
   131   64  189 1    
   132   65   66 2    
   133   67   68 2    
   134   67   69 am   BACKBONE|DICT|INTERRES
   135   69   70 1    
   136   69  190 1    
   137   70   71 1    
   138   70   72 1    
   139   70  191 1    
   140   71  192 1    
   141   71  193 1    
   142   71  194 1    
   143   72   73 2    
   144   72   74 am   BACKBONE|DICT|INTERRES
   145   74   75 1    
   146   74  195 1    
   147   75   76 1    
   148   75   77 1    
   149   75  196 1    
   150   76  197 1    
   151   76  198 1    
   152   76  199 1    
   153   77   78 2    
   154   77   79 am   BACKBONE|DICT|INTERRES
   155   79   80 1    
   156   79  200 1    
   157   80   81 1    
   158   80   82 1    
   159   80  201 1    
   160   81  202 1    
   161   81  203 1    
   162   81  204 1    
   163   82   83 2    
   164   82   84 am   BACKBONE|DICT|INTERRES
   165   84   85 1    
   166   84  205 1    
   167   85   86 1    
   168   85   87 1    
   169   85  206 1    
   170   86  207 1    
   171   86  208 1    
   172   86  209 1    
   173   87   88 2    
   174   87   89 am   BACKBONE|DICT|INTERRES
   175   89   90 1    
   176   89  210 1    
   177   90   91 1    
   178   90   92 1    
   179   90  211 1    
   180   91  212 1    
   181   91  213 1    
   182   91  214 1    
   183   92   93 2    
   184   92   94 am   BACKBONE|DICT|INTERRES
   185   94   95 1    
   186   94  215 1    
   187   95   96 1    
   188   95   97 1    
   189   95  216 1    
   190   96  217 1    
   191   96  218 1    
   192   96  219 1    
   193   97   98 2    
   194   97   99 am   BACKBONE|DICT|INTERRES
   195   99  100 1    
   196   99  220 1    
   197  100  101 1    
   198  100  102 1    
   199  100  221 1    
   200  101  222 1    
   201  101  223 1    
   202  101  224 1    
   203  102  103 2    
   204  102  104 am   BACKBONE|DICT|INTERRES
   205  104  105 1    
   206  104  225 1    
   207  105  106 1    
   208  105  107 1    
   209  105  226 1    
   210  106  227 1    
   211  106  228 1    
   212  106  229 1    
   213  107  108 2    
   214  107  109 am   BACKBONE|DICT|INTERRES
   215  109  110 1    
   216  109  230 1    
   217  110  111 1    
   218  110  112 1    
   219  110  231 1    
   220  111  232 1    
   221  111  233 1    
   222  111  234 1    
   223  112  113 2    
   224  112  114 am   BACKBONE|DICT|INTERRES
   225  114  115 1    
   226  114  235 1    
   227  115  116 1    
   228  115  117 1    
   229  115  236 1    
   230  116  237 1    
   231  116  238 1    
   232  116  239 1    
   233  117  118 2    
   234  117  119 am   BACKBONE|DICT|INTERRES
   235  119  120 1    
   236  119  240 1    
   237  120  121 1    
   238  120  124 1    
   239  120  241 1    
   240  121  122 am   BACKBONE|DICT|INTERRES
   241  121  123 2    
   242  122  242 1    
   243  122  243 1    
   244  124  125 1    
   245  124  244 1    
   246  124  245 1    
   247  125  126 1    
   248  126  246 1    
   249  126  247 1    
@<TRIPOS>SUBSTRUCTURE
     1 UNK         1 GROUP             0       ****    0 ROOT    
