@<TRIPOS>MOLECULE
3R540
247   249    1
SMALL
USER_CHARGES


@<TRIPOS>ATOM
      1 CA         -2.8930  -16.7735  -50.2744 C.3       0 UNK        -0.1800 
      2 C          -2.5834  -15.4852  -49.5245 C.2       0 UNK         0.5000 
      3 O          -3.3627  -14.5340  -49.5803 O.2       0 UNK        -0.5000 
      4 N          -1.4396  -15.4515  -48.8328 N.am      1 UNK        -0.5000 
      5 CA         -0.9851  -14.3383  -47.9939 C.3       1 UNK         0.1400 
      6 C6          0.5198  -14.4882  -47.6324 C.3       23 UNK        -0.0398 
      7 S7          1.7168  -13.7929  -48.8278 S.3       23 UNK        -0.2404 
      8 C8          1.1117  -14.2833  -50.4809 C.3       23 UNK        -0.0205 
      9 C9          1.1789  -15.7728  -50.8250 C.ar      23 UNK        -0.0193 
     10 C10         0.6287  -16.1817  -52.0424 C.ar      23 UNK        -0.1150 
     11 C11         0.6344  -17.5261  -52.4199 C.ar      23 UNK        -0.0193 
     12 C12         1.2195  -18.4717  -51.5749 C.ar      23 UNK        -0.1150 
     13 C13         1.7700  -18.0866  -50.3485 C.ar      23 UNK        -0.0193 
     14 C14         1.7575  -16.7364  -49.9870 C.ar      23 UNK        -0.1150 
     15 C15         2.3736  -19.1196  -49.4009 C.3       23 UNK        -0.0205 
     16 S16         1.2944  -20.5616  -49.1105 S.3       23 UNK        -0.2404 
     17 C17        -0.2954  -19.7597  -48.7219 C.3       23 UNK        -0.0398 
     18 CA         -1.2809  -20.7512  -48.0684 C.3       11 UNK         0.1400 
     19 N          -0.9701  -21.0040  -46.6581 N.am      11 UNK        -0.5000 
     20 C          -1.5834  -21.9274  -45.9064 C.2       10 UNK         0.5000 
     21 O          -2.4374  -22.6979  -46.3461 O.2       10 UNK        -0.5000 
     22 CA         -1.2292  -21.9777  -44.4113 C.3       10 UNK         0.1400 
     23 CB         -0.0795  -22.9656  -44.1709 C.3       10 UNK        -0.1800 
     24 N          -0.8962  -20.6736  -43.8315 N.am      10 UNK        -0.5000 
     25 C          -1.7112  -19.6073  -43.8064 C.2       9 UNK         0.5000 
     26 O          -2.8299  -19.5879  -44.3180 O.2       9 UNK        -0.5000 
     27 CA         -1.1751  -18.3394  -43.1229 C.3       9 UNK         0.1400 
     28 CB         -1.1660  -18.5265  -41.5959 C.3       9 UNK        -0.1800 
     29 N           0.1641  -17.9876  -43.5901 N.am      9 UNK        -0.5000 
     30 C           0.4819  -17.6661  -44.8539 C.2       8 UNK         0.5000 
     31 O          -0.3323  -17.5694  -45.7711 O.2       8 UNK        -0.5000 
     32 CA          1.9809  -17.4983  -45.1591 C.3       8 UNK         0.1400 
     33 CB          2.4964  -16.1176  -44.7257 C.3       8 UNK        -0.1800 
     34 N           2.7860  -18.5391  -44.5218 N.am      8 UNK        -0.5000 
     35 C           2.7241  -19.8436  -44.8254 C.2       7 UNK         0.5000 
     36 O           2.0006  -20.3112  -45.7039 O.2       7 UNK        -0.5000 
     37 CA          3.5921  -20.7833  -43.9695 C.3       7 UNK         0.1400 
     38 CB          5.0317  -20.8272  -44.5030 C.3       7 UNK        -0.1800 
     39 N           3.6070  -20.3958  -42.5568 N.am      7 UNK        -0.5000 
     40 C           2.5446  -20.4822  -41.7438 C.2       6 UNK         0.5000 
     41 O           1.4502  -20.9210  -42.0951 O.2       6 UNK        -0.5000 
     42 CA          2.7216  -19.9401  -40.3131 C.3       6 UNK         0.1400 
     43 CB          3.4058  -20.9835  -39.4174 C.3       6 UNK        -0.1800 
     44 N           3.4694  -18.6794  -40.2574 N.am      6 UNK        -0.5000 
     45 C           3.0670  -17.5399  -40.8333 C.2       5 UNK         0.5000 
     46 O           2.0359  -17.4425  -41.5055 O.2       5 UNK        -0.5000 
     47 CA          3.9730  -16.3131  -40.6599 C.3       5 UNK         0.1400 
     48 CB          5.2172  -16.4111  -41.5601 C.3       5 UNK        -0.1800 
     49 N           3.1912  -15.1411  -41.0269 N.am      5 UNK        -0.5000 
     50 C           3.3771  -13.8804  -40.6260 C.2       4 UNK         0.5000 
     51 O           4.3058  -13.5216  -39.9011 O.2       4 UNK        -0.5000 
     52 CA          2.3450  -12.8444  -41.1189 C.3       4 UNK         0.1400 
     53 CB          2.9153  -12.0374  -42.2954 C.3       4 UNK        -0.1800 
     54 N           1.0850  -13.4591  -41.5445 N.am      4 UNK        -0.5000 
     55 C           0.1386  -13.9404  -40.7308 C.2       3 UNK         0.5000 
     56 O           0.1835  -13.8309  -39.5045 O.2       3 UNK        -0.5000 
     57 CA         -1.0399  -14.6764  -41.4096 C.3       3 UNK         0.1400 
     58 CB         -2.1020  -15.1579  -40.4047 C.3       3 UNK        -0.1800 
     59 N          -1.7053  -13.8977  -42.4579 N.am      3 UNK        -0.5000 
     60 C          -1.2141  -13.6617  -43.6797 C.2       2 UNK         0.5000 
     61 O          -0.0859  -14.0146  -44.0354 O.2       2 UNK        -0.5000 
     62 CA         -2.1180  -12.8703  -44.6468 C.3       2 UNK         0.1400 
     63 CB         -2.0622  -11.3685  -44.3257 C.3       2 UNK        -0.1800 
     64 N          -1.6983  -13.0684  -46.0339 N.am      2 UNK        -0.5000 
     65 C          -1.8292  -14.2216  -46.7031 C.2       1 UNK         0.5000 
     66 O          -2.5248  -15.1608  -46.3085 O.2       1 UNK        -0.5000 
     67 C          -2.7428  -20.3153  -48.3002 C.2       11 UNK         0.5000 
     68 O          -3.2955  -20.6452  -49.3495 O.2       11 UNK        -0.5000 
     69 N          -3.3469  -19.6296  -47.3214 N.am      12 UNK        -0.5000 
     70 CA         -4.7565  -19.2509  -47.3360 C.3       12 UNK         0.1400 
     71 CB         -4.9075  -17.8469  -46.7287 C.3       12 UNK        -0.1800 
     72 C          -5.6163  -20.2717  -46.5705 C.2       12 UNK         0.5000 
     73 O          -6.6338  -20.7236  -47.0952 O.2       12 UNK        -0.5000 
     74 N          -5.2058  -20.6018  -45.3385 N.am      13 UNK        -0.5000 
     75 CA         -5.9956  -21.3671  -44.3726 C.3       13 UNK         0.1400 
     76 CB         -5.4079  -21.1590  -42.9679 C.3       13 UNK        -0.1800 
     77 C          -6.0982  -22.8682  -44.6892 C.2       13 UNK         0.5000 
     78 O          -7.1609  -23.4547  -44.4806 O.2       13 UNK        -0.5000 
     79 N          -5.0000  -23.4621  -45.1706 N.am      14 UNK        -0.5000 
     80 CA         -4.8945  -24.8882  -45.4933 C.3       14 UNK         0.1400 
     81 CB         -3.6598  -25.4633  -44.7764 C.3       14 UNK        -0.1800 
     82 C          -4.8076  -25.1305  -47.0117 C.2       14 UNK         0.5000 
     83 O          -4.7196  -26.2852  -47.4307 O.2       14 UNK        -0.5000 
     84 N          -4.8150  -24.0454  -47.8018 N.am      15 UNK        -0.5000 
     85 CA         -4.6299  -23.9975  -49.2545 C.3       15 UNK         0.1400 
     86 CB         -5.8083  -24.6712  -49.9877 C.3       15 UNK        -0.1800 
     87 C          -3.2533  -24.5357  -49.7005 C.2       15 UNK         0.5000 
     88 O          -3.1407  -25.1226  -50.7788 O.2       15 UNK        -0.5000 
     89 N          -2.2139  -24.3015  -48.8812 N.am      16 UNK        -0.5000 
     90 CA         -0.8357  -24.7651  -49.1052 C.3       16 UNK         0.1400 
     91 CB          0.0062  -24.5090  -47.8456 C.3       16 UNK        -0.1800 
     92 C          -0.1488  -24.1720  -50.3557 C.2       16 UNK         0.5000 
     93 O           0.9051  -24.6654  -50.7578 O.2       16 UNK        -0.5000 
     94 N          -0.7758  -23.1600  -50.9721 N.am      17 UNK        -0.5000 
     95 CA         -0.4373  -22.6188  -52.2873 C.3       17 UNK         0.1400 
     96 CB         -1.2770  -21.3537  -52.5171 C.3       17 UNK        -0.1800 
     97 C          -0.6644  -23.6206  -53.4412 C.2       17 UNK         0.5000 
     98 O          -0.0970  -23.4286  -54.5173 O.2       17 UNK        -0.5000 
     99 N          -1.4948  -24.6506  -53.2074 N.am      18 UNK        -0.5000 
    100 CA        -1.8592  -25.7718  -54.0822 C.3       18 UNK         0.1400 
    101 CB        -0.6257  -26.5993  -54.4920 C.3       18 UNK        -0.1800 
    102 C         -2.7053  -25.3655  -55.3021 C.2       18 UNK         0.5000 
    103 O         -3.8100  -25.8830  -55.4710 O.2       18 UNK        -0.5000 
    104 N         -2.1891  -24.4382  -56.1176 N.am      19 UNK        -0.5000 
    105 CA        -2.8977  -23.8343  -57.2471 C.3       19 UNK         0.1400 
    106 CB        -1.8872  -23.1199  -58.1576 C.3       19 UNK        -0.1800 
    107 C         -3.9891  -22.8562  -56.7764 C.2       19 UNK         0.5000 
    108 O         -5.0533  -22.7880  -57.3913 O.2       19 UNK        -0.5000 
    109 N         -3.6936  -22.1319  -55.6847 N.am      20 UNK        -0.5000 
    110 CA        -4.5673  -21.2025  -54.9579 C.3       20 UNK         0.1400 
    111 CB        -5.7231  -21.9677  -54.2816 C.3       20 UNK        -0.1800 
    112 C         -5.0572  -19.9915  -55.7827 C.2       20 UNK         0.5000 
    113 O         -6.0355  -19.3486  -55.3983 O.2       20 UNK        -0.5000 
    114 N         -4.3460  -19.6581  -56.8710 N.am      21 UNK        -0.5000 
    115 CA        -4.6221  -18.5104  -57.7461 C.3       21 UNK         0.1400 
    116 CB        -3.6966  -18.5831  -58.9700 C.3       21 UNK        -0.1800 
    117 C         -4.4757  -17.1500  -57.0325 C.2       21 UNK         0.5000 
    118 O         -5.1224  -16.1764  -57.4198 O.2       21 UNK        -0.5000 
    119 N         -3.6496  -17.1322  -55.9822 N.am      22 UNK        -0.5000 
    120 CA        -3.5074  -16.0584  -54.9919 C.3       22 UNK         0.1400 
    121 C         -4.7213  -15.8819  -54.0290 C.2       22 UNK         0.5000 
    122 N         -5.7008  -16.7787  -53.9945 N.am      22 UNK        -0.7600 
    123 O         -4.7847  -14.8913  -53.3070 O.2       22 UNK        -0.5000 
    124 C124       -2.1704  -16.1955  -54.2123 C.3       23 UNK        -0.0398 
    125 S125       -1.8189  -17.9027  -53.6419 S.3       23 UNK        -0.2404 
    126 C126        0.0005  -17.9586  -53.7326 C.3       23 UNK        -0.0205 
    127 H127       -3.3397  -16.5489  -51.2426 H         1 UNK         0.0600 
    128 H128       -1.9923  -17.3625  -50.4496 H         1 UNK         0.0600 
    129 H129       -3.5975  -17.3821  -49.7082 H         1 UNK         0.0600 
    130 H130       -0.8561  -16.2737  -48.8105 H         1 UNK         0.3000 
    131 H131       -1.1265  -13.4091  -48.5497 H         1 UNK         0.0600 
    132 H132        0.7523  -13.9732  -46.6989 H         1 UNK         0.0800 
    133 H133        0.7647  -15.5333  -47.4416 H         1 UNK         0.0800 
    134 H134        1.7120  -13.7471  -51.2170 H         1 UNK         0.0800 
    135 H135        0.0911  -13.9230  -50.6125 H         1 UNK         0.0800 
    136 H136        0.1837  -15.4473  -52.6979 H         1 UNK         0.1150 
    137 H137        1.2295  -19.5141  -51.8603 H         1 UNK         0.1150 
    138 H138        2.2039  -16.4492  -49.0475 H         1 UNK         0.1150 
    139 H139        2.6042  -18.6697  -48.4343 H         1 UNK         0.0800 
    140 H140        3.3216  -19.4662  -49.8135 H         1 UNK         0.0800 
    141 H141       -0.6952  -19.3739  -49.6612 H         1 UNK         0.0800 
    142 H142       -0.1279  -18.8941  -48.0799 H         1 UNK         0.0800 
    143 H143       -1.1828  -21.7042  -48.5868 H         1 UNK         0.0600 
    144 H144       -0.2365  -20.4429  -46.2417 H         1 UNK         0.3000 
    145 H145       -2.1095  -22.3508  -43.8845 H         1 UNK         0.0600 
    146 H146        0.1163  -23.0918  -43.1062 H         1 UNK         0.0600 
    147 H147       -0.3182  -23.9507  -44.5736 H         1 UNK         0.0600 
    148 H148        0.8431  -22.6310  -44.6457 H         1 UNK         0.0600 
    149 H149       -0.0002  -20.6123  -43.3558 H         1 UNK         0.3000 
    150 H150       -1.8407  -17.5090  -43.3682 H         1 UNK         0.0600 
    151 H151       -0.5940  -19.4044  -41.2963 H         1 UNK         0.0600 
    152 H152       -2.1803  -18.6541  -41.2162 H         1 UNK         0.0600 
    153 H153       -0.7308  -17.6720  -41.0821 H         1 UNK         0.0600 
    154 H154        0.9040  -18.0036  -42.8932 H         1 UNK         0.3000 
    155 H155        2.1135  -17.5858  -46.2393 H         1 UNK         0.0600 
    156 H156        2.3591  -15.9475  -43.6593 H         1 UNK         0.0600 
    157 H157        1.9662  -15.3224  -45.2458 H         1 UNK         0.0600 
    158 H158        3.5560  -16.0000  -44.9523 H         1 UNK         0.0600 
    159 H159        3.3767  -18.2523  -43.7571 H         1 UNK         0.3000 
    160 H160        3.1703  -21.7879  -44.0445 H         1 UNK         0.0600 
    161 H161        5.5199  -19.8544  -44.4316 H         1 UNK         0.0600 
    162 H162        5.0492  -21.1274  -45.5516 H         1 UNK         0.0600 
    163 H163        5.6350  -21.5473  -43.9499 H         1 UNK         0.0600 
    164 H164        4.4700  -20.0230  -42.1896 H         1 UNK         0.3000 
    165 H165        1.7239  -19.7508  -39.9109 H         1 UNK         0.0600 
    166 H166        3.4462  -20.6476  -38.3811 H         1 UNK         0.0600 
    167 H167        4.4257  -21.1903  -39.7437 H         1 UNK         0.0600 
    168 H168        2.8590  -21.9274  -39.4303 H         1 UNK         0.0600 
    169 H169        4.3287  -18.6870  -39.7267 H         1 UNK         0.3000 
    170 H170        4.2700  -16.2422  -39.6116 H         1 UNK         0.0600 
    171 H171        5.8178  -17.2864  -41.3105 H         1 UNK         0.0600 
    172 H172        4.9464  -16.4856  -42.6140 H         1 UNK         0.0600 
    173 H173        5.8581  -15.5371  -41.4429 H         1 UNK         0.0600 
    174 H174        2.3663  -15.3632  -41.5690 H         1 UNK         0.3000 
    175 H175        2.1410  -12.1580  -40.2946 H         1 UNK         0.0600 
    176 H176        3.1281  -12.6756  -43.1543 H         1 UNK         0.0600 
    177 H177        2.2179  -11.2638  -42.6175 H         1 UNK         0.0600 
    178 H178        3.8452  -11.5407  -42.0156 H         1 UNK         0.0600 
    179 H179        0.9421  -13.5803  -42.5446 H         1 UNK         0.3000 
    180 H180       -0.6072  -15.5589  -41.8826 H         1 UNK         0.0600 
    181 H181       -2.5921  -14.3210  -39.9060 H         1 UNK         0.0600 
    182 H182       -1.6576  -15.7869  -39.6322 H         1 UNK         0.0600 
    183 H183       -2.8706  -15.7527  -40.8988 H         1 UNK         0.0600 
    184 H184       -2.6171  -13.5326  -42.2233 H         1 UNK         0.3000 
    185 H185       -3.1460  -13.2218  -44.5354 H         1 UNK         0.0600 
    186 H186       -2.7013  -10.7971  -44.9991 H         1 UNK         0.0600 
    187 H187       -2.4055  -11.1701  -43.3096 H         1 UNK         0.0600 
    188 H188       -1.0480  -10.9757  -44.4109 H         1 UNK         0.0600 
    189 H189       -1.0965  -12.3527  -46.4140 H         1 UNK         0.3000 
    190 H190       -2.8371  -19.4371  -46.4670 H         1 UNK         0.3000 
    191 H191       -5.1242  -19.2065  -48.3635 H         1 UNK         0.0600 
    192 H192       -5.9531  -17.5373  -46.7128 H         1 UNK         0.0600 
    193 H193       -4.3585  -17.1062  -47.3101 H         1 UNK         0.0600 
    194 H194       -4.5347  -17.8027  -45.7047 H         1 UNK         0.0600 
    195 H195       -4.3443  -20.1893  -44.9826 H         1 UNK         0.3000 
    196 H196       -7.0098  -20.9618  -44.3735 H         1 UNK         0.0600 
    197 H197       -4.3853  -21.5321  -42.8994 H         1 UNK         0.0600 
    198 H198       -5.3961  -20.1028  -42.6980 H         1 UNK         0.0600 
    199 H199       -5.9993  -21.6807  -42.2144 H         1 UNK         0.0600 
    200 H200       -4.1702  -22.9088  -45.3537 H         1 UNK         0.3000 
    201 H201       -5.7719  -25.4303  -45.1357 H         1 UNK         0.0600 
    202 H202       -2.7329  -25.0239  -45.1448 H         1 UNK         0.0600 
    203 H203       -3.5892  -26.5415  -44.9239 H         1 UNK         0.0600 
    204 H204       -3.7103  -25.2869  -43.7019 H         1 UNK         0.0600 
    205 H205       -4.8883  -23.1491  -47.3428 H         1 UNK         0.3000 
    206 H206       -4.6433  -22.9418  -49.5260 H         1 UNK         0.0600 
    207 H207       -6.7634  -24.2670  -49.6525 H         1 UNK         0.0600 
    208 H208       -5.7461  -24.5029  -51.0636 H         1 UNK         0.0600 
    209 H209       -5.8244  -25.7494  -49.8272 H         1 UNK         0.0600 
    210 H210       -2.3892  -23.8145  -48.0073 H         1 UNK         0.3000 
    211 H211       -0.8856  -25.8452  -49.2569 H         1 UNK         0.0600 
    212 H212        0.9770  -24.9999  -47.9231 H         1 UNK         0.0600 
    213 H213       -0.4831  -24.8993  -46.9531 H         1 UNK         0.0600 
    214 H214        0.1972  -23.4474  -47.6936 H         1 UNK         0.0600 
    215 H215       -1.6366  -22.8283  -50.5643 H         1 UNK         0.3000 
    216 H216        0.6194  -22.3441  -52.2861 H         1 UNK         0.0600 
    217 H217       -2.3453  -21.5625  -52.4523 H         1 UNK         0.0600 
    218 H218       -1.0843  -20.9288  -53.5024 H         1 UNK         0.0600 
    219 H219       -1.0450  -20.5848  -51.7807 H         1 UNK         0.0600 
    220 H220       -1.9485  -24.6838  -52.2988 H         1 UNK         0.3000 
    221 H221       -2.4892  -26.4189  -53.4695 H         1 UNK         0.0600 
    222 H222       -0.0754  -26.9425  -53.6158 H         1 UNK         0.0600 
    223 H223        0.0632  -26.0318  -55.1180 H         1 UNK         0.0600 
    224 H224       -0.9228  -27.4839  -55.0565 H         1 UNK         0.0600 
    225 H225       -1.2824  -24.0516  -55.8686 H         1 UNK         0.3000 
    226 H226       -3.3794  -24.6273  -57.8232 H         1 UNK         0.0600 
    227 H227       -1.3517  -22.3310  -57.6277 H         1 UNK         0.0600 
    228 H228       -1.1488  -23.8197  -58.5495 H         1 UNK         0.0600 
    229 H229       -2.3867  -22.6624  -59.0128 H         1 UNK         0.0600 
    230 H230       -2.7779  -22.2689  -55.2826 H         1 UNK         0.3000 
    231 H231       -3.9537  -20.7768  -54.1629 H         1 UNK         0.0600 
    232 H232       -6.4194  -22.3768  -55.0142 H         1 UNK         0.0600 
    233 H233       -6.2920  -21.3162  -53.6172 H         1 UNK         0.0600 
    234 H234       -5.3477  -22.7941  -53.6775 H         1 UNK         0.0600 
    235 H235       -3.5577  -20.2370  -57.1189 H         1 UNK         0.3000 
    236 H236       -5.6555  -18.5917  -58.0894 H         1 UNK         0.0600 
    237 H237       -3.8464  -19.5103  -59.5236 H         1 UNK         0.0600 
    238 H238       -3.8935  -17.7597  -59.6579 H         1 UNK         0.0600 
    239 H239       -2.6455  -18.5278  -58.6837 H         1 UNK         0.0600 
    240 H240       -3.1638  -17.9857  -55.7492 H         1 UNK         0.3000 
    241 H241       -3.4560  -15.1217  -55.5500 H         1 UNK         0.0600 
    242 H242       -6.4755  -16.6291  -53.3686 H         1 UNK         0.3800 
    243 H243       -5.6937  -17.6050  -54.5831 H         1 UNK         0.3800 
    244 H244       -2.1351  -15.5186  -53.3570 H         1 UNK         0.0800 
    245 H245       -1.3610  -15.8752  -54.8687 H         1 UNK         0.0800 
    246 H246        0.3033  -18.9775  -53.9769 H         1 UNK         0.0800 
    247 H247        0.3696  -17.3368  -54.5488 H         1 UNK         0.0800 
@<TRIPOS>BOND
     1    1    2 1    
     2    1  127 1    
     3    1  128 1    
     4    1  129 1    
     5    2    3 2    
     6    2    4 am   BACKBONE|DICT|INTERRES
     7    4    5 1    
     8    4  130 1    
     9    5    6 1    
    10    5   65 1    
    11    5  131 1    
    12    6    7 1    
    13    6  132 1    
    14    6  133 1    
    15    7    8 1    
    16    8    9 1    
    17    8  134 1    
    18    8  135 1    
    19    9   10 ar   
    20    9   14 ar   
    21   10   11 ar   
    22   10  136 1    
    23   11   12 ar   
    24   11  126 1    
    25   12   13 ar   
    26   12  137 1    
    27   13   14 ar   
    28   13   15 1    
    29   14  138 1    
    30   15   16 1    
    31   15  139 1    
    32   15  140 1    
    33   16   17 1    
    34   17   18 1    
    35   17  141 1    
    36   17  142 1    
    37   18   19 1    
    38   18   67 1    
    39   18  143 1    
    40   19   20 am   BACKBONE|DICT|INTERRES
    41   19  144 1    
    42   20   21 2    
    43   20   22 1    
    44   22   23 1    
    45   22   24 1    
    46   22  145 1    
    47   23  146 1    
    48   23  147 1    
    49   23  148 1    
    50   24   25 am   BACKBONE|DICT|INTERRES
    51   24  149 1    
    52   25   26 2    
    53   25   27 1    
    54   27   28 1    
    55   27   29 1    
    56   27  150 1    
    57   28  151 1    
    58   28  152 1    
    59   28  153 1    
    60   29   30 am   BACKBONE|DICT|INTERRES
    61   29  154 1    
    62   30   31 2    
    63   30   32 1    
    64   32   33 1    
    65   32   34 1    
    66   32  155 1    
    67   33  156 1    
    68   33  157 1    
    69   33  158 1    
    70   34   35 am   BACKBONE|DICT|INTERRES
    71   34  159 1    
    72   35   36 2    
    73   35   37 1    
    74   37   38 1    
    75   37   39 1    
    76   37  160 1    
    77   38  161 1    
    78   38  162 1    
    79   38  163 1    
    80   39   40 am   BACKBONE|DICT|INTERRES
    81   39  164 1    
    82   40   41 2    
    83   40   42 1    
    84   42   43 1    
    85   42   44 1    
    86   42  165 1    
    87   43  166 1    
    88   43  167 1    
    89   43  168 1    
    90   44   45 am   BACKBONE|DICT|INTERRES
    91   44  169 1    
    92   45   46 2    
    93   45   47 1    
    94   47   48 1    
    95   47   49 1    
    96   47  170 1    
    97   48  171 1    
    98   48  172 1    
    99   48  173 1    
   100   49   50 am   BACKBONE|DICT|INTERRES
   101   49  174 1    
   102   50   51 2    
   103   50   52 1    
   104   52   53 1    
   105   52   54 1    
   106   52  175 1    
   107   53  176 1    
   108   53  177 1    
   109   53  178 1    
   110   54   55 am   BACKBONE|DICT|INTERRES
   111   54  179 1    
   112   55   56 2    
   113   55   57 1    
   114   57   58 1    
   115   57   59 1    
   116   57  180 1    
   117   58  181 1    
   118   58  182 1    
   119   58  183 1    
   120   59   60 am   BACKBONE|DICT|INTERRES
   121   59  184 1    
   122   60   61 2    
   123   60   62 1    
   124   62   63 1    
   125   62   64 1    
   126   62  185 1    
   127   63  186 1    
   128   63  187 1    
   129   63  188 1    
   130   64   65 am   BACKBONE|DICT|INTERRES
   131   64  189 1    
   132   65   66 2    
   133   67   68 2    
   134   67   69 am   BACKBONE|DICT|INTERRES
   135   69   70 1    
   136   69  190 1    
   137   70   71 1    
   138   70   72 1    
   139   70  191 1    
   140   71  192 1    
   141   71  193 1    
   142   71  194 1    
   143   72   73 2    
   144   72   74 am   BACKBONE|DICT|INTERRES
   145   74   75 1    
   146   74  195 1    
   147   75   76 1    
   148   75   77 1    
   149   75  196 1    
   150   76  197 1    
   151   76  198 1    
   152   76  199 1    
   153   77   78 2    
   154   77   79 am   BACKBONE|DICT|INTERRES
   155   79   80 1    
   156   79  200 1    
   157   80   81 1    
   158   80   82 1    
   159   80  201 1    
   160   81  202 1    
   161   81  203 1    
   162   81  204 1    
   163   82   83 2    
   164   82   84 am   BACKBONE|DICT|INTERRES
   165   84   85 1    
   166   84  205 1    
   167   85   86 1    
   168   85   87 1    
   169   85  206 1    
   170   86  207 1    
   171   86  208 1    
   172   86  209 1    
   173   87   88 2    
   174   87   89 am   BACKBONE|DICT|INTERRES
   175   89   90 1    
   176   89  210 1    
   177   90   91 1    
   178   90   92 1    
   179   90  211 1    
   180   91  212 1    
   181   91  213 1    
   182   91  214 1    
   183   92   93 2    
   184   92   94 am   BACKBONE|DICT|INTERRES
   185   94   95 1    
   186   94  215 1    
   187   95   96 1    
   188   95   97 1    
   189   95  216 1    
   190   96  217 1    
   191   96  218 1    
   192   96  219 1    
   193   97   98 2    
   194   97   99 am   BACKBONE|DICT|INTERRES
   195   99  100 1    
   196   99  220 1    
   197  100  101 1    
   198  100  102 1    
   199  100  221 1    
   200  101  222 1    
   201  101  223 1    
   202  101  224 1    
   203  102  103 2    
   204  102  104 am   BACKBONE|DICT|INTERRES
   205  104  105 1    
   206  104  225 1    
   207  105  106 1    
   208  105  107 1    
   209  105  226 1    
   210  106  227 1    
   211  106  228 1    
   212  106  229 1    
   213  107  108 2    
   214  107  109 am   BACKBONE|DICT|INTERRES
   215  109  110 1    
   216  109  230 1    
   217  110  111 1    
   218  110  112 1    
   219  110  231 1    
   220  111  232 1    
   221  111  233 1    
   222  111  234 1    
   223  112  113 2    
   224  112  114 am   BACKBONE|DICT|INTERRES
   225  114  115 1    
   226  114  235 1    
   227  115  116 1    
   228  115  117 1    
   229  115  236 1    
   230  116  237 1    
   231  116  238 1    
   232  116  239 1    
   233  117  118 2    
   234  117  119 am   BACKBONE|DICT|INTERRES
   235  119  120 1    
   236  119  240 1    
   237  120  121 1    
   238  120  124 1    
   239  120  241 1    
   240  121  122 am   BACKBONE|DICT|INTERRES
   241  121  123 2    
   242  122  242 1    
   243  122  243 1    
   244  124  125 1    
   245  124  244 1    
   246  124  245 1    
   247  125  126 1    
   248  126  246 1    
   249  126  247 1    
@<TRIPOS>SUBSTRUCTURE
     1 UNK         1 GROUP             0       ****    0 ROOT    
