@<TRIPOS>MOLECULE
3R540
247   249    1
SMALL
USER_CHARGES


@<TRIPOS>ATOM
      1 CA         -1.6584  -13.8354  -41.7084 C.3       0 UNK        -0.1800 
      2 C          -2.2630  -12.8417  -42.6912 C.2       0 UNK         0.5000 
      3 O          -2.3253  -11.6474  -42.4011 O.2       0 UNK        -0.5000 
      4 N          -2.7038  -13.3310  -43.8563 N.am      1 UNK        -0.5000 
      5 CA         -3.2808  -12.5413  -44.9546 C.3       1 UNK         0.1400 
      6 C6         -4.1955  -13.4068  -45.8577 C.3       23 UNK        -0.0398 
      7 S7         -3.4108  -14.9404  -46.4667 S.3       23 UNK        -0.2404 
      8 C8         -3.0670  -14.5162  -48.2004 C.3       23 UNK        -0.0205 
      9 C9         -2.5777  -15.7318  -48.9722 C.ar      23 UNK        -0.0193 
     10 C10        -3.4793  -16.5154  -49.6989 C.ar      23 UNK        -0.1150 
     11 C11        -3.0358  -17.6354  -50.4089 C.ar      23 UNK        -0.0193 
     12 C12        -1.6788  -17.9671  -50.3920 C.ar      23 UNK        -0.1150 
     13 C13        -0.7688  -17.1936  -49.6675 C.ar      23 UNK        -0.0193 
     14 C14        -1.2233  -16.0760  -48.9604 C.ar      23 UNK        -0.1150 
     15 C15         0.7074  -17.5529  -49.6549 C.3       23 UNK        -0.0205 
     16 S16         1.1507  -18.5333  -48.1886 S.3       23 UNK        -0.2404 
     17 C17         0.8736  -20.2517  -48.7306 C.3       23 UNK        -0.0398 
     18 CA         -0.1442  -21.0683  -47.8945 C.3       11 UNK         0.1400 
     19 N           0.1285  -21.0837  -46.4502 N.am      11 UNK        -0.5000 
     20 C          -0.1831  -22.1238  -45.6602 C.2       10 UNK         0.5000 
     21 O          -0.6511  -23.1803  -46.0842 O.2       10 UNK        -0.5000 
     22 CA          0.0314  -21.9699  -44.1425 C.3       10 UNK         0.1400 
     23 CB          1.4818  -22.2896  -43.7501 C.3       10 UNK        -0.1800 
     24 N          -0.3455  -20.6525  -43.6330 N.am      10 UNK        -0.5000 
     25 C          -1.5942  -20.1653  -43.6380 C.2       9 UNK         0.5000 
     26 O          -2.5651  -20.7820  -44.0755 O.2       9 UNK        -0.5000 
     27 CA         -1.7855  -18.7348  -43.1012 C.3       9 UNK         0.1400 
     28 CB         -1.9564  -18.7308  -41.5748 C.3       9 UNK        -0.1800 
     29 N          -0.6808  -17.8538  -43.4775 N.am      9 UNK        -0.5000 
     30 C          -0.4448  -17.4535  -44.7347 C.2       8 UNK         0.5000 
     31 O          -1.1638  -17.7478  -45.6861 O.2       8 UNK        -0.5000 
     32 CA          0.8297  -16.6237  -44.9670 C.3       8 UNK         0.1400 
     33 CB          0.5702  -15.1444  -44.6521 C.3       8 UNK        -0.1800 
     34 N           1.9702  -17.1052  -44.1844 N.am      8 UNK        -0.5000 
     35 C           2.5200  -18.3230  -44.3090 C.2       7 UNK         0.5000 
     36 O           2.1394  -19.1683  -45.1176 O.2       7 UNK        -0.5000 
     37 CA          3.6457  -18.6862  -43.3248 C.3       7 UNK         0.1400 
     38 CB          4.9883  -18.1018  -43.7832 C.3       7 UNK        -0.1800 
     39 N           3.3726  -18.2539  -41.9551 N.am      7 UNK        -0.5000 
     40 C           2.3449  -18.6573  -41.1993 C.2       6 UNK         0.5000 
     41 O           1.4959  -19.4592  -41.5883 O.2       6 UNK        -0.5000 
     42 CA          2.2125  -18.0455  -39.7888 C.3       6 UNK         0.1400 
     43 CB          3.0403  -18.8362  -38.7583 C.3       6 UNK        -0.1800 
     44 N           2.4919  -16.6024  -39.7232 N.am      6 UNK        -0.5000 
     45 C           3.6519  -15.9586  -39.9144 C.2       5 UNK         0.5000 
     46 O           4.7321  -16.5165  -40.1216 O.2       5 UNK        -0.5000 
     47 CA          3.5779  -14.4197  -39.9264 C.3       5 UNK         0.1400 
     48 CB          4.1991  -13.8377  -38.6476 C.3       5 UNK        -0.1800 
     49 N           4.2367  -13.8283  -41.0954 N.am      5 UNK        -0.5000 
     50 C           3.9806  -14.1395  -42.3735 C.2       4 UNK         0.5000 
     51 O           3.1412  -14.9707  -42.7233 O.2       4 UNK        -0.5000 
     52 CA          4.7333  -13.3260  -43.4331 C.3       4 UNK         0.1400 
     53 CB          4.9696  -14.1080  -44.7396 C.3       4 UNK        -0.1800 
     54 N           3.9245  -12.1481  -43.7062 N.am      4 UNK        -0.5000 
     55 C           4.3675  -10.9582  -44.1169 C.2       3 UNK         0.5000 
     56 O           5.5552  -10.7173  -44.3423 O.2       3 UNK        -0.5000 
     57 CA          3.2933   -9.8632  -44.3126 C.3       3 UNK         0.1400 
     58 CB          3.8890   -8.5268  -44.7920 C.3       3 UNK        -0.1800 
     59 N           2.2290  -10.2597  -45.2414 N.am      3 UNK        -0.5000 
     60 C           1.2409  -11.1238  -44.9801 C.2       2 UNK         0.5000 
     61 O           1.1324  -11.7356  -43.9122 O.2       2 UNK        -0.5000 
     62 CA          0.2140  -11.3499  -46.0998 C.3       2 UNK         0.1400 
     63 CB          0.7934  -12.2128  -47.2341 C.3       2 UNK        -0.1800 
     64 N          -0.9394  -12.0267  -45.5233 N.am      2 UNK        -0.5000 
     65 C          -2.2247  -11.7701  -45.7819 C.2       1 UNK         0.5000 
     66 O          -2.5965  -10.9589  -46.6313 O.2       1 UNK        -0.5000 
     67 C          -1.6116  -20.7281  -48.2275 C.2       11 UNK         0.5000 
     68 O          -2.0757  -21.1091  -49.3015 O.2       11 UNK        -0.5000 
     69 N          -2.3358  -20.0606  -47.3180 N.am      12 UNK        -0.5000 
     70 CA         -3.7739  -19.8249  -47.4530 C.3       12 UNK         0.1400 
     71 CB         -4.2222  -18.7164  -46.4940 C.3       12 UNK        -0.1800 
     72 C          -4.5996  -21.1038  -47.2335 C.2       12 UNK         0.5000 
     73 O          -5.5696  -21.3253  -47.9605 O.2       12 UNK        -0.5000 
     74 N          -4.1950  -21.9248  -46.2519 N.am      13 UNK        -0.5000 
     75 CA         -4.8084  -23.2038  -45.8881 C.3       13 UNK         0.1400 
     76 CB         -4.0307  -23.8263  -44.7182 C.3       13 UNK        -0.1800 
     77 C          -4.8824  -24.1716  -47.0838 C.2       13 UNK         0.5000 
     78 O          -3.8441  -24.6137  -47.5816 O.2       13 UNK        -0.5000 
     79 N          -6.1122  -24.4171  -47.5622 N.am      14 UNK        -0.5000 
     80 CA         -6.4653  -25.2013  -48.7550 C.3       14 UNK         0.1400 
     81 CB         -6.1813  -26.6989  -48.5134 C.3       14 UNK        -0.1800 
     82 C          -5.8068  -24.6867  -50.0559 C.2       14 UNK         0.5000 
     83 O          -5.6114  -25.4663  -50.9902 O.2       14 UNK        -0.5000 
     84 N          -5.4215  -23.4005  -50.0749 N.am      15 UNK        -0.5000 
     85 CA         -4.5964  -22.7439  -51.0923 C.3       15 UNK         0.1400 
     86 CB         -5.4099  -22.5177  -52.3827 C.3       15 UNK        -0.1800 
     87 C          -3.2591  -23.4774  -51.3385 C.2       15 UNK         0.5000 
     88 O          -2.8446  -23.6203  -52.4891 O.2       15 UNK        -0.5000 
     89 N          -2.6377  -23.9711  -50.2554 N.am      16 UNK        -0.5000 
     90 CA         -1.4129  -24.7770  -50.2284 C.3       16 UNK         0.1400 
     91 CB         -0.2141  -23.9792  -50.7876 C.3       16 UNK        -0.1800 
     92 C          -1.6070  -26.1367  -50.9311 C.2       16 UNK         0.5000 
     93 O          -0.7271  -26.5828  -51.6666 O.2       16 UNK        -0.5000 
     94 N          -2.7856  -26.7452  -50.7265 N.am      17 UNK        -0.5000 
     95 CA         -3.3070  -27.9184  -51.4395 C.3       17 UNK         0.1400 
     96 CB         -2.4809  -29.1819  -51.1209 C.3       17 UNK        -0.1800 
     97 C          -3.4457  -27.6349  -52.9511 C.2       17 UNK         0.5000 
     98 O          -2.9693  -28.4076  -53.7838 O.2       17 UNK        -0.5000 
     99 N          -4.0667  -26.4864  -53.2541 N.am      18 UNK        -0.5000 
    100 CA        -4.2980  -25.8790  -54.5695 C.3       18 UNK         0.1400 
    101 CB        -5.1446  -26.8050  -55.4659 C.3       18 UNK        -0.1800 
    102 C         -3.0367  -25.3676  -55.3015 C.2       18 UNK         0.5000 
    103 O         -3.1738  -24.8240  -56.3984 O.2       18 UNK        -0.5000 
    104 N         -1.8429  -25.5039  -54.7058 N.am      19 UNK        -0.5000 
    105 CA        -0.5686  -25.0943  -55.3024 C.3       19 UNK         0.1400 
    106 CB         0.5936  -25.7287  -54.5256 C.3       19 UNK        -0.1800 
    107 C         -0.3819  -23.5675  -55.3993 C.2       19 UNK         0.5000 
    108 O          0.3354  -23.1120  -56.2912 O.2       19 UNK        -0.5000 
    109 N         -1.0254  -22.8000  -54.5066 N.am      20 UNK        -0.5000 
    110 CA        -1.0133  -21.3336  -54.5324 C.3       20 UNK         0.1400 
    111 CB        -1.3666  -20.7876  -53.1398 C.3       20 UNK        -0.1800 
    112 C         -1.9711  -20.7540  -55.5917 C.2       20 UNK         0.5000 
    113 O         -1.8094  -19.5968  -55.9793 O.2       20 UNK        -0.5000 
    114 N         -2.9457  -21.5661  -56.0319 N.am      21 UNK        -0.5000 
    115 CA        -3.9644  -21.2783  -57.0485 C.3       21 UNK         0.1400 
    116 CB        -3.3110  -21.0863  -58.4331 C.3       21 UNK        -0.1800 
    117 C         -4.9282  -20.1288  -56.6754 C.2       21 UNK         0.5000 
    118 O         -5.5067  -19.5021  -57.5655 O.2       21 UNK        -0.5000 
    119 N         -5.0966  -19.8792  -55.3703 N.am      22 UNK        -0.5000 
    120 CA        -6.0486  -18.9074  -54.8117 C.3       22 UNK         0.1400 
    121 C         -7.5281  -19.3055  -55.0776 C.2       22 UNK         0.5000 
    122 N         -8.3982  -18.3417  -55.3465 N.am      22 UNK        -0.7600 
    123 O         -7.9017  -20.4738  -54.9980 O.2       22 UNK        -0.5000 
    124 C124       -5.8242  -18.6915  -53.2944 C.3       23 UNK        -0.0398 
    125 S125       -4.1882  -17.9887  -52.9007 S.3       23 UNK        -0.2404 
    126 C126       -4.0286  -18.5036  -51.1646 C.3       23 UNK        -0.0205 
    127 H127       -0.6033  -13.6101  -41.5514 H         1 UNK         0.0600 
    128 H128       -1.7382  -14.8619  -42.0678 H         1 UNK         0.0600 
    129 H129       -2.1690  -13.7723  -40.7476 H         1 UNK         0.0600 
    130 H130       -2.6378  -14.3222  -44.0417 H         1 UNK         0.3000 
    131 H131       -3.9169  -11.7745  -44.5070 H         1 UNK         0.0600 
    132 H132       -4.5883  -12.8259  -46.6941 H         1 UNK         0.0800 
    133 H133       -5.0734  -13.7056  -45.2836 H         1 UNK         0.0800 
    134 H134       -3.9695  -14.1185  -48.6669 H         1 UNK         0.0800 
    135 H135       -2.3200  -13.7219  -48.2401 H         1 UNK         0.0800 
    136 H136       -4.5291  -16.2580  -49.7048 H         1 UNK         0.1150 
    137 H137       -1.3342  -18.8385  -50.9288 H         1 UNK         0.1150 
    138 H138       -0.5240  -15.4796  -48.3912 H         1 UNK         0.1150 
    139 H139        0.9884  -18.0814  -50.5669 H         1 UNK         0.0800 
    140 H140        1.2987  -16.6361  -49.6473 H         1 UNK         0.0800 
    141 H141        1.8416  -20.7520  -48.6835 H         1 UNK         0.0800 
    142 H142        0.5961  -20.2695  -49.7858 H         1 UNK         0.0800 
    143 H143       -0.0208  -22.0948  -48.2435 H         1 UNK         0.0600 
    144 H144        0.5597  -20.2557  -46.0510 H         1 UNK         0.3000 
    145 H145       -0.6121  -22.7011  -43.6484 H         1 UNK         0.0600 
    146 H146        1.6264  -22.2113  -42.6724 H         1 UNK         0.0600 
    147 H147        1.7464  -23.3067  -44.0414 H         1 UNK         0.0600 
    148 H148        2.1913  -21.6190  -44.2329 H         1 UNK         0.0600 
    149 H149        0.3930  -20.0946  -43.2186 H         1 UNK         0.3000 
    150 H150       -2.7012  -18.3336  -43.5402 H         1 UNK         0.0600 
    151 H151       -2.8094  -19.3431  -41.2797 H         1 UNK         0.0600 
    152 H152       -2.1354  -17.7227  -41.2004 H         1 UNK         0.0600 
    153 H153       -1.0789  -19.1279  -41.0650 H         1 UNK         0.0600 
    154 H154       -0.0127  -17.6182  -42.7593 H         1 UNK         0.3000 
    155 H155        1.0930  -16.6961  -46.0220 H         1 UNK         0.0600 
    156 H156       -0.2723  -14.7693  -45.2338 H         1 UNK         0.0600 
    157 H157        1.4377  -14.5326  -44.8985 H         1 UNK         0.0600 
    158 H158        0.3458  -14.9891  -43.5970 H         1 UNK         0.0600 
    159 H159        2.3728  -16.4472  -43.5194 H         1 UNK         0.3000 
    160 H160        3.7351  -19.7742  -43.3152 H         1 UNK         0.0600 
    161 H161        5.8079  -18.4647  -43.1628 H         1 UNK         0.0600 
    162 H162        4.9850  -17.0143  -43.7286 H         1 UNK         0.0600 
    163 H163        5.2090  -18.3826  -44.8139 H         1 UNK         0.0600 
    164 H164        4.0187  -17.5880  -41.5421 H         1 UNK         0.3000 
    165 H165        1.1634  -18.1507  -39.5076 H         1 UNK         0.0600 
    166 H166        4.1060  -18.8198  -38.9872 H         1 UNK         0.0600 
    167 H167        2.9060  -18.4356  -37.7535 H         1 UNK         0.0600 
    168 H168        2.7313  -19.8820  -38.7354 H         1 UNK         0.0600 
    169 H169        1.6694  -16.0313  -39.5870 H         1 UNK         0.3000 
    170 H170        2.5288  -14.1191  -39.9639 H         1 UNK         0.0600 
    171 H171        3.7152  -14.2437  -37.7583 H         1 UNK         0.0600 
    172 H172        5.2628  -14.0689  -38.5769 H         1 UNK         0.0600 
    173 H173        4.0871  -12.7539  -38.6108 H         1 UNK         0.0600 
    174 H174        4.9350  -13.1259  -40.9013 H         1 UNK         0.3000 
    175 H175        5.6998  -13.0267  -43.0222 H         1 UNK         0.0600 
    176 H176        4.0368  -14.4693  -45.1745 H         1 UNK         0.0600 
    177 H177        5.4641  -13.4870  -45.4865 H         1 UNK         0.0600 
    178 H178        5.6130  -14.9693  -44.5646 H         1 UNK         0.0600 
    179 H179        2.9230  -12.2537  -43.5569 H         1 UNK         0.3000 
    180 H180        2.8433   -9.6872  -43.3332 H         1 UNK         0.0600 
    181 H181        4.3533   -8.6221  -45.7744 H         1 UNK         0.0600 
    182 H182        4.6517   -8.1664  -44.1005 H         1 UNK         0.0600 
    183 H183        3.1230   -7.7538  -44.8563 H         1 UNK         0.0600 
    184 H184        2.2652   -9.8313  -46.1551 H         1 UNK         0.3000 
    185 H185       -0.0786  -10.3741  -46.4931 H         1 UNK         0.0600 
    186 H186        1.6461  -11.7231  -47.7056 H         1 UNK         0.0600 
    187 H187        1.1316  -13.1841  -46.8735 H         1 UNK         0.0600 
    188 H188        0.0503  -12.3882  -48.0123 H         1 UNK         0.0600 
    189 H189       -0.7170  -12.6280  -44.7411 H         1 UNK         0.3000 
    190 H190       -1.8816  -19.6889  -46.4932 H         1 UNK         0.3000 
    191 H191       -3.9701  -19.4796  -48.4682 H         1 UNK         0.0600 
    192 H192       -4.0616  -18.9889  -45.4517 H         1 UNK         0.0600 
    193 H193       -3.6746  -17.7967  -46.6903 H         1 UNK         0.0600 
    194 H194       -5.2829  -18.4958  -46.6186 H         1 UNK         0.0600 
    195 H195       -3.4111  -21.6304  -45.6783 H         1 UNK         0.3000 
    196 H196       -5.8216  -22.9924  -45.5411 H         1 UNK         0.0600 
    197 H197       -4.0404  -23.1734  -43.8453 H         1 UNK         0.0600 
    198 H198       -2.9898  -24.0153  -44.9822 H         1 UNK         0.0600 
    199 H199       -4.4713  -24.7777  -44.4181 H         1 UNK         0.0600 
    200 H200       -6.8925  -23.9653  -47.1053 H         1 UNK         0.3000 
    201 H201       -7.5406  -25.0843  -48.8952 H         1 UNK         0.0600 
    202 H202       -6.5599  -27.3093  -49.3341 H         1 UNK         0.0600 
    203 H203       -6.6667  -27.0492  -47.6025 H         1 UNK         0.0600 
    204 H204       -5.1136  -26.9002  -48.4216 H         1 UNK         0.0600 
    205 H205       -5.6180  -22.8331  -49.2550 H         1 UNK         0.3000 
    206 H206       -4.3350  -21.7664  -50.6881 H         1 UNK         0.0600 
    207 H207       -6.3145  -21.9450  -52.1797 H         1 UNK         0.0600 
    208 H208       -5.7141  -23.4586  -52.8388 H         1 UNK         0.0600 
    209 H209       -4.8315  -21.9644  -53.1225 H         1 UNK         0.0600 
    210 H210       -3.0794  -23.8405  -49.3514 H         1 UNK         0.3000 
    211 H211       -1.2115  -24.9913  -49.1778 H         1 UNK         0.0600 
    212 H212       -0.1463  -22.9910  -50.3374 H         1 UNK         0.0600 
    213 H213        0.7248  -24.4966  -50.5886 H         1 UNK         0.0600 
    214 H214       -0.2856  -23.8396  -51.8657 H         1 UNK         0.0600 
    215 H215       -3.4527  -26.2698  -50.1347 H         1 UNK         0.3000 
    216 H216       -4.3178  -28.0838  -51.0636 H         1 UNK         0.0600 
    217 H217       -2.9443  -30.0676  -51.5569 H         1 UNK         0.0600 
    218 H218       -1.4665  -29.1192  -51.5153 H         1 UNK         0.0600 
    219 H219       -2.4132  -29.3469  -50.0457 H         1 UNK         0.0600 
    220 H220       -4.4367  -25.9512  -52.4729 H         1 UNK         0.3000 
    221 H221       -4.8960  -24.9894  -54.3741 H         1 UNK         0.0600 
    222 H222       -4.5920  -27.6943  -55.7693 H         1 UNK         0.0600 
    223 H223       -6.0506  -27.1293  -54.9539 H         1 UNK         0.0600 
    224 H224       -5.4553  -26.2911  -56.3764 H         1 UNK         0.0600 
    225 H225       -1.8031  -25.9230  -53.7866 H         1 UNK         0.3000 
    226 H226       -0.5411  -25.4895  -56.3200 H         1 UNK         0.0600 
    227 H227        0.4730  -26.8090  -54.4411 H         1 UNK         0.0600 
    228 H228        1.5434  -25.5449  -55.0292 H         1 UNK         0.0600 
    229 H229        0.6764  -25.3194  -53.5192 H         1 UNK         0.0600 
    230 H230       -1.6130  -23.2390  -53.7990 H         1 UNK         0.3000 
    231 H231       -0.0039  -20.9964  -54.7770 H         1 UNK         0.0600 
    232 H232       -0.7229  -21.2085  -52.3673 H         1 UNK         0.0600 
    233 H233       -2.4006  -21.0011  -52.8706 H         1 UNK         0.0600 
    234 H234       -1.2453  -19.7043  -53.1134 H         1 UNK         0.0600 
    235 H235       -2.9590  -22.5086  -55.6661 H         1 UNK         0.3000 
    236 H236       -4.5843  -22.1742  -57.1053 H         1 UNK         0.0600 
    237 H237       -2.6509  -21.9195  -58.6749 H         1 UNK         0.0600 
    238 H238       -4.0648  -21.0338  -59.2194 H         1 UNK         0.0600 
    239 H239       -2.7248  -20.1683  -58.4807 H         1 UNK         0.0600 
    240 H240       -4.5750  -20.4292  -54.7069 H         1 UNK         0.3000 
    241 H241       -5.8655  -17.9563  -55.3160 H         1 UNK         0.0600 
    242 H242       -9.3638  -18.5850  -55.5061 H         1 UNK         0.3800 
    243 H243       -8.1165  -17.3753  -55.4113 H         1 UNK         0.3800 
    244 H244       -6.5729  -18.0061  -52.8925 H         1 UNK         0.0800 
    245 H245       -5.9528  -19.6306  -52.7555 H         1 UNK         0.0800 
    246 H246       -3.7125  -19.5463  -51.1277 H         1 UNK         0.0800 
    247 H247       -5.0019  -18.4577  -50.6735 H         1 UNK         0.0800 
@<TRIPOS>BOND
     1    1    2 1    
     2    1  127 1    
     3    1  128 1    
     4    1  129 1    
     5    2    3 2    
     6    2    4 am   BACKBONE|DICT|INTERRES
     7    4    5 1    
     8    4  130 1    
     9    5    6 1    
    10    5   65 1    
    11    5  131 1    
    12    6    7 1    
    13    6  132 1    
    14    6  133 1    
    15    7    8 1    
    16    8    9 1    
    17    8  134 1    
    18    8  135 1    
    19    9   10 ar   
    20    9   14 ar   
    21   10   11 ar   
    22   10  136 1    
    23   11   12 ar   
    24   11  126 1    
    25   12   13 ar   
    26   12  137 1    
    27   13   14 ar   
    28   13   15 1    
    29   14  138 1    
    30   15   16 1    
    31   15  139 1    
    32   15  140 1    
    33   16   17 1    
    34   17   18 1    
    35   17  141 1    
    36   17  142 1    
    37   18   19 1    
    38   18   67 1    
    39   18  143 1    
    40   19   20 am   BACKBONE|DICT|INTERRES
    41   19  144 1    
    42   20   21 2    
    43   20   22 1    
    44   22   23 1    
    45   22   24 1    
    46   22  145 1    
    47   23  146 1    
    48   23  147 1    
    49   23  148 1    
    50   24   25 am   BACKBONE|DICT|INTERRES
    51   24  149 1    
    52   25   26 2    
    53   25   27 1    
    54   27   28 1    
    55   27   29 1    
    56   27  150 1    
    57   28  151 1    
    58   28  152 1    
    59   28  153 1    
    60   29   30 am   BACKBONE|DICT|INTERRES
    61   29  154 1    
    62   30   31 2    
    63   30   32 1    
    64   32   33 1    
    65   32   34 1    
    66   32  155 1    
    67   33  156 1    
    68   33  157 1    
    69   33  158 1    
    70   34   35 am   BACKBONE|DICT|INTERRES
    71   34  159 1    
    72   35   36 2    
    73   35   37 1    
    74   37   38 1    
    75   37   39 1    
    76   37  160 1    
    77   38  161 1    
    78   38  162 1    
    79   38  163 1    
    80   39   40 am   BACKBONE|DICT|INTERRES
    81   39  164 1    
    82   40   41 2    
    83   40   42 1    
    84   42   43 1    
    85   42   44 1    
    86   42  165 1    
    87   43  166 1    
    88   43  167 1    
    89   43  168 1    
    90   44   45 am   BACKBONE|DICT|INTERRES
    91   44  169 1    
    92   45   46 2    
    93   45   47 1    
    94   47   48 1    
    95   47   49 1    
    96   47  170 1    
    97   48  171 1    
    98   48  172 1    
    99   48  173 1    
   100   49   50 am   BACKBONE|DICT|INTERRES
   101   49  174 1    
   102   50   51 2    
   103   50   52 1    
   104   52   53 1    
   105   52   54 1    
   106   52  175 1    
   107   53  176 1    
   108   53  177 1    
   109   53  178 1    
   110   54   55 am   BACKBONE|DICT|INTERRES
   111   54  179 1    
   112   55   56 2    
   113   55   57 1    
   114   57   58 1    
   115   57   59 1    
   116   57  180 1    
   117   58  181 1    
   118   58  182 1    
   119   58  183 1    
   120   59   60 am   BACKBONE|DICT|INTERRES
   121   59  184 1    
   122   60   61 2    
   123   60   62 1    
   124   62   63 1    
   125   62   64 1    
   126   62  185 1    
   127   63  186 1    
   128   63  187 1    
   129   63  188 1    
   130   64   65 am   BACKBONE|DICT|INTERRES
   131   64  189 1    
   132   65   66 2    
   133   67   68 2    
   134   67   69 am   BACKBONE|DICT|INTERRES
   135   69   70 1    
   136   69  190 1    
   137   70   71 1    
   138   70   72 1    
   139   70  191 1    
   140   71  192 1    
   141   71  193 1    
   142   71  194 1    
   143   72   73 2    
   144   72   74 am   BACKBONE|DICT|INTERRES
   145   74   75 1    
   146   74  195 1    
   147   75   76 1    
   148   75   77 1    
   149   75  196 1    
   150   76  197 1    
   151   76  198 1    
   152   76  199 1    
   153   77   78 2    
   154   77   79 am   BACKBONE|DICT|INTERRES
   155   79   80 1    
   156   79  200 1    
   157   80   81 1    
   158   80   82 1    
   159   80  201 1    
   160   81  202 1    
   161   81  203 1    
   162   81  204 1    
   163   82   83 2    
   164   82   84 am   BACKBONE|DICT|INTERRES
   165   84   85 1    
   166   84  205 1    
   167   85   86 1    
   168   85   87 1    
   169   85  206 1    
   170   86  207 1    
   171   86  208 1    
   172   86  209 1    
   173   87   88 2    
   174   87   89 am   BACKBONE|DICT|INTERRES
   175   89   90 1    
   176   89  210 1    
   177   90   91 1    
   178   90   92 1    
   179   90  211 1    
   180   91  212 1    
   181   91  213 1    
   182   91  214 1    
   183   92   93 2    
   184   92   94 am   BACKBONE|DICT|INTERRES
   185   94   95 1    
   186   94  215 1    
   187   95   96 1    
   188   95   97 1    
   189   95  216 1    
   190   96  217 1    
   191   96  218 1    
   192   96  219 1    
   193   97   98 2    
   194   97   99 am   BACKBONE|DICT|INTERRES
   195   99  100 1    
   196   99  220 1    
   197  100  101 1    
   198  100  102 1    
   199  100  221 1    
   200  101  222 1    
   201  101  223 1    
   202  101  224 1    
   203  102  103 2    
   204  102  104 am   BACKBONE|DICT|INTERRES
   205  104  105 1    
   206  104  225 1    
   207  105  106 1    
   208  105  107 1    
   209  105  226 1    
   210  106  227 1    
   211  106  228 1    
   212  106  229 1    
   213  107  108 2    
   214  107  109 am   BACKBONE|DICT|INTERRES
   215  109  110 1    
   216  109  230 1    
   217  110  111 1    
   218  110  112 1    
   219  110  231 1    
   220  111  232 1    
   221  111  233 1    
   222  111  234 1    
   223  112  113 2    
   224  112  114 am   BACKBONE|DICT|INTERRES
   225  114  115 1    
   226  114  235 1    
   227  115  116 1    
   228  115  117 1    
   229  115  236 1    
   230  116  237 1    
   231  116  238 1    
   232  116  239 1    
   233  117  118 2    
   234  117  119 am   BACKBONE|DICT|INTERRES
   235  119  120 1    
   236  119  240 1    
   237  120  121 1    
   238  120  124 1    
   239  120  241 1    
   240  121  122 am   BACKBONE|DICT|INTERRES
   241  121  123 2    
   242  122  242 1    
   243  122  243 1    
   244  124  125 1    
   245  124  244 1    
   246  124  245 1    
   247  125  126 1    
   248  126  246 1    
   249  126  247 1    
@<TRIPOS>SUBSTRUCTURE
     1 UNK         1 GROUP             0       ****    0 ROOT    
