@<TRIPOS>MOLECULE
3R540
247   249    1
SMALL
USER_CHARGES


@<TRIPOS>ATOM
      1 CA         -3.3913  -14.1258  -48.7177 C.3       0 UNK        -0.1800 
      2 C          -2.1650  -13.3786  -49.2162 C.2       0 UNK         0.5000 
      3 O          -1.7985  -12.3532  -48.6417 O.2       0 UNK        -0.5000 
      4 N          -1.5161  -13.8909  -50.2716 N.am      1 UNK        -0.5000 
      5 CA         -0.3446  -13.2770  -50.9176 C.3       1 UNK         0.1400 
      6 C6         -0.0269  -13.9121  -52.2956 C.3       23 UNK        -0.0398 
      7 S7          0.1995  -15.7246  -52.2651 S.3       23 UNK        -0.2404 
      8 C8          2.0134  -15.8518  -52.1707 C.3       23 UNK        -0.0205 
      9 C9          2.4425  -17.3066  -52.1263 C.ar      23 UNK        -0.0193 
     10 C10         2.6785  -17.9976  -53.3148 C.ar      23 UNK        -0.1150 
     11 C11         2.9989  -19.3569  -53.2919 C.ar      23 UNK        -0.0193 
     12 C12         3.1220  -20.0141  -52.0641 C.ar      23 UNK        -0.1150 
     13 C13         2.9142  -19.3302  -50.8617 C.ar      23 UNK        -0.0193 
     14 C14         2.5763  -17.9708  -50.9037 C.ar      23 UNK        -0.1150 
     15 C15         3.1080  -20.0803  -49.5438 C.3       23 UNK        -0.0205 
     16 S16         2.1010  -19.4767  -48.1468 S.3       23 UNK        -0.2404 
     17 C17         0.4762  -20.2406  -48.4699 C.3       23 UNK        -0.0398 
     18 CA          0.2944  -21.5940  -47.7362 C.3       11 UNK         0.1400 
     19 N           0.4539  -21.5028  -46.2776 N.am      11 UNK        -0.5000 
     20 C           0.5098  -22.5614  -45.4546 C.2       10 UNK         0.5000 
     21 O           0.4764  -23.7286  -45.8431 O.2       10 UNK        -0.5000 
     22 CA          0.5573  -22.2837  -43.9409 C.3       10 UNK         0.1400 
     23 CB          1.9798  -21.9346  -43.4782 C.3       10 UNK        -0.1800 
     24 N          -0.3816  -21.2386  -43.5326 N.am      10 UNK        -0.5000 
     25 C          -1.7151  -21.3625  -43.6021 C.2       9 UNK         0.5000 
     26 O          -2.2847  -22.3876  -43.9744 O.2       9 UNK        -0.5000 
     27 CA         -2.5591  -20.1290  -43.2327 C.3       9 UNK         0.1400 
     28 CB         -2.7577  -20.0434  -41.7123 C.3       9 UNK        -0.1800 
     29 N          -1.9901  -18.8758  -43.7270 N.am      9 UNK        -0.5000 
     30 C          -1.7889  -18.5891  -45.0214 C.2       8 UNK         0.5000 
     31 O          -2.1024  -19.3364  -45.9484 O.2       8 UNK        -0.5000 
     32 CA         -1.0444  -17.2778  -45.3270 C.3       8 UNK         0.1400 
     33 CB         -1.9698  -16.0596  -45.1790 C.3       8 UNK        -0.1800 
     34 N           0.1342  -17.0920  -44.4807 N.am      8 UNK        -0.5000 
     35 C           1.1684  -17.9406  -44.4007 C.2       7 UNK         0.5000 
     36 O           1.2559  -18.9742  -45.0584 O.2       7 UNK        -0.5000 
     37 CA          2.2522  -17.6153  -43.3612 C.3       7 UNK         0.1400 
     38 CB          3.2000  -16.5174  -43.8632 C.3       7 UNK        -0.1800 
     39 N           1.6619  -17.2137  -42.0866 N.am      7 UNK        -0.5000 
     40 C           1.0279  -18.0523  -41.2556 C.2       6 UNK         0.5000 
     41 O           0.9113  -19.2611  -41.4586 O.2       6 UNK        -0.5000 
     42 CA          0.3893  -17.4241  -40.0040 C.3       6 UNK         0.1400 
     43 CB          1.4269  -17.2768  -38.8811 C.3       6 UNK        -0.1800 
     44 N          -0.2194  -16.1207  -40.2772 N.am      6 UNK        -0.5000 
     45 C          -1.3028  -15.9443  -41.0458 C.2       5 UNK         0.5000 
     46 O          -1.9065  -16.8629  -41.5992 O.2       5 UNK        -0.5000 
     47 CA         -1.7667  -14.4931  -41.2635 C.3       5 UNK         0.1400 
     48 CB         -2.6315  -14.0203  -40.0853 C.3       5 UNK        -0.1800 
     49 N          -0.6718  -13.5413  -41.4771 N.am      5 UNK        -0.5000 
     50 C           0.2096  -13.6045  -42.4835 C.2       4 UNK         0.5000 
     51 O           0.2761  -14.5411  -43.2814 O.2       4 UNK        -0.5000 
     52 CA          1.1931  -12.4318  -42.6216 C.3       4 UNK         0.1400 
     53 CB          2.6008  -12.8430  -42.1650 C.3       4 UNK        -0.1800 
     54 N           1.2477  -11.9813  -44.0106 N.am      4 UNK        -0.5000 
     55 C           0.2762  -11.3030  -44.6318 C.2       3 UNK         0.5000 
     56 O          -0.7362  -10.8941  -44.0611 O.2       3 UNK        -0.5000 
     57 CA          0.4477  -11.0352  -46.1395 C.3       3 UNK         0.1400 
     58 CB          1.4309   -9.8774  -46.3974 C.3       3 UNK        -0.1800 
     59 N           0.7841  -12.2187  -46.9414 N.am      3 UNK        -0.5000 
     60 C           1.9115  -12.9485  -46.9536 C.2       2 UNK         0.5000 
     61 O           2.8705  -12.7388  -46.2096 O.2       2 UNK        -0.5000 
     62 CA          1.9879  -14.1208  -47.9566 C.3       2 UNK         0.1400 
     63 CB          1.8879  -15.4621  -47.2200 C.3       2 UNK        -0.1800 
     64 N           0.9478  -14.0818  -48.9841 N.am      2 UNK        -0.5000 
     65 C           0.9057  -13.2215  -50.0108 C.2       1 UNK         0.5000 
     66 O           1.7898  -12.3972  -50.2456 O.2       1 UNK        -0.5000 
     67 C          -1.0509  -22.2491  -48.1116 C.2       11 UNK         0.5000 
     68 O          -1.0662  -23.1779  -48.9195 O.2       11 UNK        -0.5000 
     69 N          -2.1393  -21.8061  -47.4632 N.am      12 UNK        -0.5000 
     70 CA         -3.4846  -22.3658  -47.6049 C.3       12 UNK         0.1400 
     71 CB         -4.4694  -21.5550  -46.7498 C.3       12 UNK        -0.1800 
     72 C          -3.5586  -23.8599  -47.2452 C.2       12 UNK         0.5000 
     73 O          -4.1392  -24.6367  -48.0037 O.2       12 UNK        -0.5000 
     74 N          -2.9394  -24.2410  -46.1188 N.am      13 UNK        -0.5000 
     75 CA         -2.8411  -25.6234  -45.6514 C.3       13 UNK         0.1400 
     76 CB         -2.2746  -25.6481  -44.2240 C.3       13 UNK        -0.1800 
     77 C          -2.0038  -26.5168  -46.5838 C.2       13 UNK         0.5000 
     78 O          -2.3987  -27.6550  -46.8372 O.2       13 UNK        -0.5000 
     79 N          -0.8819  -25.9863  -47.0918 N.am      14 UNK        -0.5000 
     80 CA          0.0045  -26.6672  -48.0375 C.3       14 UNK         0.1400 
     81 CB          1.3065  -25.8671  -48.1972 C.3       14 UNK        -0.1800 
     82 C          -0.6589  -26.9108  -49.4049 C.2       14 UNK         0.5000 
     83 O          -0.5137  -27.9986  -49.9645 O.2       14 UNK        -0.5000 
     84 N          -1.3910  -25.9072  -49.9063 N.am      15 UNK        -0.5000 
     85 CA         -2.1693  -25.9927  -51.1431 C.3       15 UNK         0.1400 
     86 CB         -2.5295  -24.5730  -51.6047 C.3       15 UNK        -0.1800 
     87 C          -3.4491  -26.8370  -50.9990 C.2       15 UNK         0.5000 
     88 O          -3.9364  -27.3617  -52.0010 O.2       15 UNK        -0.5000 
     89 N          -3.9775  -26.9195  -49.7683 N.am      16 UNK        -0.5000 
     90 CA         -5.2915  -27.4497  -49.3910 C.3       16 UNK         0.1400 
     91 CB         -5.3733  -28.9705  -49.6365 C.3       16 UNK        -0.1800 
     92 C          -6.4242  -26.6493  -50.0684 C.2       16 UNK         0.5000 
     93 O          -7.3584  -27.2302  -50.6251 O.2       16 UNK        -0.5000 
     94 N          -6.2848  -25.3189  -50.0426 N.am      17 UNK        -0.5000 
     95 CA         -7.1196  -24.3590  -50.7577 C.3       17 UNK         0.1400 
     96 CB         -6.7004  -24.3151  -52.2446 C.3       17 UNK        -0.1800 
     97 C          -7.0383  -22.9893  -50.0589 C.2       17 UNK         0.5000 
     98 O          -6.8230  -22.9337  -48.8470 O.2       17 UNK        -0.5000 
     99 N          -7.2261  -21.9071  -50.8238 N.am      18 UNK        -0.5000 
    100 CA        -7.0675  -20.5238  -50.3751 C.3       18 UNK         0.1400 
    101 CB        -7.7324  -19.5980  -51.4075 C.3       18 UNK        -0.1800 
    102 C         -5.5851  -20.1432  -50.1940 C.2       18 UNK         0.5000 
    103 O         -4.7013  -20.8236  -50.7191 O.2       18 UNK        -0.5000 
    104 N         -5.3467  -19.0386  -49.4762 N.am      19 UNK        -0.5000 
    105 CA        -4.0155  -18.4636  -49.2622 C.3       19 UNK         0.1400 
    106 CB        -4.0417  -17.6290  -47.9753 C.3       19 UNK        -0.1800 
    107 C         -3.5415  -17.5783  -50.4309 C.2       19 UNK         0.5000 
    108 O         -2.3436  -17.3242  -50.5487 O.2       19 UNK        -0.5000 
    109 N         -4.4837  -17.0800  -51.2421 N.am      20 UNK        -0.5000 
    110 CA        -4.2139  -16.2804  -52.4356 C.3       20 UNK         0.1400 
    111 CB        -5.4535  -15.4327  -52.7568 C.3       20 UNK        -0.1800 
    112 C         -3.8599  -17.1943  -53.6193 C.2       20 UNK         0.5000 
    113 O         -4.3945  -18.3023  -53.7073 O.2       20 UNK        -0.5000 
    114 N         -2.9721  -16.7167  -54.5047 N.am      21 UNK        -0.5000 
    115 CA        -2.4510  -17.4249  -55.6852 C.3       21 UNK         0.1400 
    116 CB        -3.5427  -17.5435  -56.7692 C.3       21 UNK        -0.1800 
    117 C         -1.8113  -18.7825  -55.3170 C.2       21 UNK         0.5000 
    118 O         -2.1130  -19.8067  -55.9315 O.2       21 UNK        -0.5000 
    119 N         -0.9790  -18.7460  -54.2701 N.am      22 UNK        -0.5000 
    120 CA        -0.3695  -19.8862  -53.5642 C.3       22 UNK         0.1400 
    121 C         -1.3205  -20.6383  -52.5904 C.2       22 UNK         0.5000 
    122 N         -2.6129  -20.3447  -52.5477 N.am      22 UNK        -0.7600 
    123 O         -0.8589  -21.4740  -51.8218 O.2       22 UNK        -0.5000 
    124 C124        0.4271  -20.8789  -54.4655 C.3       23 UNK        -0.0398 
    125 S125        1.6298  -20.0844  -55.5912 S.3       23 UNK        -0.2404 
    126 C126        3.1580  -20.1219  -54.5968 C.3       23 UNK        -0.0205 
    127 H127       -3.7676  -14.8209  -49.4665 H         1 UNK         0.0600 
    128 H128       -4.1907  -13.4230  -48.4832 H         1 UNK         0.0600 
    129 H129       -3.1489  -14.6815  -47.8128 H         1 UNK         0.0600 
    130 H130       -1.8120  -14.7760  -50.6621 H         1 UNK         0.3000 
    131 H131       -0.6104  -12.2350  -51.1090 H         1 UNK         0.0600 
    132 H132        0.8444  -13.4383  -52.7516 H         1 UNK         0.0800 
    133 H133       -0.8524  -13.7036  -52.9772 H         1 UNK         0.0800 
    134 H134        2.4612  -15.3545  -53.0325 H         1 UNK         0.0800 
    135 H135        2.3829  -15.3331  -51.2860 H         1 UNK         0.0800 
    136 H136        2.5649  -17.4903  -54.2628 H         1 UNK         0.1150 
    137 H137        3.3749  -21.0650  -52.0441 H         1 UNK         0.1150 
    138 H138        2.4079  -17.4233  -49.9883 H         1 UNK         0.1150 
    139 H139        2.9121  -21.1451  -49.6794 H         1 UNK         0.0800 
    140 H140        4.1585  -19.9959  -49.2639 H         1 UNK         0.0800 
    141 H141        0.3549  -20.3653  -49.5478 H         1 UNK         0.0800 
    142 H142       -0.2936  -19.5325  -48.1581 H         1 UNK         0.0800 
    143 H143        1.0791  -22.2632  -48.0956 H         1 UNK         0.0600 
    144 H144        0.5447  -20.5691  -45.8843 H         1 UNK         0.3000 
    145 H145        0.2636  -23.2035  -43.4307 H         1 UNK         0.0600 
    146 H146        2.0163  -21.7781  -42.4000 H         1 UNK         0.0600 
    147 H147        2.6722  -22.7436  -43.7136 H         1 UNK         0.0600 
    148 H148        2.3580  -21.0338  -43.9595 H         1 UNK         0.0600 
    149 H149        0.0168  -20.3674  -43.2048 H         1 UNK         0.3000 
    150 H150       -3.5404  -20.2494  -43.6954 H         1 UNK         0.0600 
    151 H151       -3.1882  -20.9661  -41.3213 H         1 UNK         0.0600 
    152 H152       -3.4357  -19.2315  -41.4492 H         1 UNK         0.0600 
    153 H153       -1.8146  -19.8733  -41.1922 H         1 UNK         0.0600 
    154 H154       -1.7372  -18.1854  -43.0258 H         1 UNK         0.3000 
    155 H155       -0.7060  -17.3294  -46.3639 H         1 UNK         0.0600 
    156 H156       -2.2497  -15.8951  -44.1394 H         1 UNK         0.0600 
    157 H157       -2.8940  -16.1840  -45.7412 H         1 UNK         0.0600 
    158 H158       -1.4855  -15.1518  -45.5400 H         1 UNK         0.0600 
    159 H159        0.1585  -16.2404  -43.9230 H         1 UNK         0.3000 
    160 H160        2.8424  -18.5192  -43.1951 H         1 UNK         0.0600 
    161 H161        2.6644  -15.5997  -44.1067 H         1 UNK         0.0600 
    162 H162        3.7232  -16.8435  -44.7626 H         1 UNK         0.0600 
    163 H163        3.9580  -16.2769  -43.1177 H         1 UNK         0.0600 
    164 H164        1.6607  -16.2272  -41.8749 H         1 UNK         0.3000 
    165 H165       -0.3953  -18.1001  -39.6571 H         1 UNK         0.0600 
    166 H166        0.9666  -16.9049  -37.9655 H         1 UNK         0.0600 
    167 H167        1.8853  -18.2383  -38.6457 H         1 UNK         0.0600 
    168 H168        2.2278  -16.5901  -39.1579 H         1 UNK         0.0600 
    169 H169        0.2191  -15.3106  -39.8646 H         1 UNK         0.3000 
    170 H170       -2.3878  -14.4809  -42.1611 H         1 UNK         0.0600 
    171 H171       -3.4655  -14.7025  -39.9145 H         1 UNK         0.0600 
    172 H172       -2.0576  -13.9651  -39.1595 H         1 UNK         0.0600 
    173 H173       -3.0552  -13.0344  -40.2775 H         1 UNK         0.0600 
    174 H174       -0.6510  -12.7410  -40.8617 H         1 UNK         0.3000 
    175 H175        0.8557  -11.6018  -41.9972 H         1 UNK         0.0600 
    176 H176        2.5906  -13.1996  -41.1343 H         1 UNK         0.0600 
    177 H177        3.0109  -13.6395  -42.7858 H         1 UNK         0.0600 
    178 H178        3.2894  -11.9992  -42.2103 H         1 UNK         0.0600 
    179 H179        2.0185  -12.3189  -44.5804 H         1 UNK         0.3000 
    180 H180       -0.5279  -10.7131  -46.5073 H         1 UNK         0.0600 
    181 H181        2.4366  -10.1061  -46.0443 H         1 UNK         0.0600 
    182 H182        1.1057   -8.9715  -45.8844 H         1 UNK         0.0600 
    183 H183        1.4935   -9.6444  -47.4605 H         1 UNK         0.0600 
    184 H184        0.0500  -12.4953  -47.5836 H         1 UNK         0.3000 
    185 H185        2.9602  -14.0717  -48.4510 H         1 UNK         0.0600 
    186 H186        2.7311  -15.5901  -46.5432 H         1 UNK         0.0600 
    187 H187        0.9749  -15.5218  -46.6288 H         1 UNK         0.0600 
    188 H188        1.8994  -16.3045  -47.9110 H         1 UNK         0.0600 
    189 H189        0.1824  -14.7318  -48.8815 H         1 UNK         0.3000 
    190 H190       -2.0416  -21.0268  -46.8166 H         1 UNK         0.3000 
    191 H191       -3.7748  -22.2672  -48.6521 H         1 UNK         0.0600 
    192 H192       -4.1838  -21.5502  -45.6987 H         1 UNK         0.0600 
    193 H193       -5.4770  -21.9658  -46.8101 H         1 UNK         0.0600 
    194 H194       -4.5212  -20.5220  -47.0858 H         1 UNK         0.0600 
    195 H195       -2.5244  -23.5310  -45.5216 H         1 UNK         0.3000 
    196 H196       -3.8521  -26.0351  -45.6204 H         1 UNK         0.0600 
    197 H197       -2.1982  -26.6699  -43.8502 H         1 UNK         0.0600 
    198 H198       -2.9168  -25.0978  -43.5362 H         1 UNK         0.0600 
    199 H199       -1.2791  -25.2052  -44.1786 H         1 UNK         0.0600 
    200 H200       -0.5979  -25.0573  -46.7931 H         1 UNK         0.3000 
    201 H201        0.2581  -27.6414  -47.6146 H         1 UNK         0.0600 
    202 H202        1.8285  -25.7713  -47.2451 H         1 UNK         0.0600 
    203 H203        1.1186  -24.8627  -48.5775 H         1 UNK         0.0600 
    204 H204        1.9864  -26.3607  -48.8926 H         1 UNK         0.0600 
    205 H205       -1.4069  -25.0150  -49.4172 H         1 UNK         0.3000 
    206 H206       -1.5494  -26.4557  -51.9136 H         1 UNK         0.0600 
    207 H207       -1.6304  -23.9889  -51.7967 H         1 UNK         0.0600 
    208 H208       -3.1079  -24.5920  -52.5291 H         1 UNK         0.0600 
    209 H209       -3.1199  -24.0413  -50.8567 H         1 UNK         0.0600 
    210 H210       -3.5155  -26.3908  -49.0383 H         1 UNK         0.3000 
    211 H211       -5.3928  -27.2820  -48.3178 H         1 UNK         0.0600 
    212 H212       -5.3383  -29.2164  -50.6980 H         1 UNK         0.0600 
    213 H213       -6.3030  -29.3783  -49.2383 H         1 UNK         0.0600 
    214 H214       -4.5524  -29.4917  -49.1437 H         1 UNK         0.0600 
    215 H215       -5.5420  -24.9166  -49.4765 H         1 UNK         0.3000 
    216 H216       -8.1604  -24.6821  -50.6934 H         1 UNK         0.0600 
    217 H217       -5.6950  -23.9086  -52.3636 H         1 UNK         0.0600 
    218 H218       -7.3824  -23.7043  -52.8366 H         1 UNK         0.0600 
    219 H219       -6.7071  -25.3102  -52.6897 H         1 UNK         0.0600 
    220 H220       -7.3597  -22.0388  -51.8152 H         1 UNK         0.3000 
    221 H221       -7.5761  -20.4076  -49.4156 H         1 UNK         0.0600 
    222 H222       -8.7808  -19.8586  -51.5543 H         1 UNK         0.0600 
    223 H223       -7.2337  -19.6528  -52.3765 H         1 UNK         0.0600 
    224 H224       -7.7032  -18.5573  -51.0832 H         1 UNK         0.0600 
    225 H225       -6.1229  -18.5401  -49.0653 H         1 UNK         0.3000 
    226 H226       -3.2887  -19.2697  -49.1352 H         1 UNK         0.0600 
    227 H227       -4.3301  -18.2254  -47.1110 H         1 UNK         0.0600 
    228 H228       -3.0507  -17.2227  -47.7741 H         1 UNK         0.0600 
    229 H229       -4.7364  -16.7916  -48.0478 H         1 UNK         0.0600 
    230 H230       -5.4382  -17.3735  -51.1045 H         1 UNK         0.3000 
    231 H231       -3.3751  -15.6092  -52.2390 H         1 UNK         0.0600 
    232 H232       -6.3250  -16.0553  -52.9639 H         1 UNK         0.0600 
    233 H233       -5.2822  -14.8059  -53.6329 H         1 UNK         0.0600 
    234 H234       -5.7031  -14.7703  -51.9276 H         1 UNK         0.0600 
    235 H235       -2.5851  -15.7966  -54.3488 H         1 UNK         0.3000 
    236 H236       -1.6480  -16.8082  -56.0918 H         1 UNK         0.0600 
    237 H237       -3.1376  -17.9745  -57.6854 H         1 UNK         0.0600 
    238 H238       -4.3683  -18.1784  -56.4464 H         1 UNK         0.0600 
    239 H239       -3.9520  -16.5661  -57.0244 H         1 UNK         0.0600 
    240 H240       -0.8250  -17.8519  -53.8255 H         1 UNK         0.3000 
    241 H241        0.3426  -19.4162  -52.8897 H         1 UNK         0.0600 
    242 H242       -3.2167  -20.7934  -51.8649 H         1 UNK         0.3800 
    243 H243       -3.0215  -19.6545  -53.1654 H         1 UNK         0.3800 
    244 H244       -0.2603  -21.4672  -55.0744 H         1 UNK         0.0800 
    245 H245        0.9613  -21.6027  -53.8477 H         1 UNK         0.0800 
    246 H246        3.4410  -21.1595  -54.4126 H         1 UNK         0.0800 
    247 H247        3.9695  -19.6773  -55.1742 H         1 UNK         0.0800 
@<TRIPOS>BOND
     1    1    2 1    
     2    1  127 1    
     3    1  128 1    
     4    1  129 1    
     5    2    3 2    
     6    2    4 am   BACKBONE|DICT|INTERRES
     7    4    5 1    
     8    4  130 1    
     9    5    6 1    
    10    5   65 1    
    11    5  131 1    
    12    6    7 1    
    13    6  132 1    
    14    6  133 1    
    15    7    8 1    
    16    8    9 1    
    17    8  134 1    
    18    8  135 1    
    19    9   10 ar   
    20    9   14 ar   
    21   10   11 ar   
    22   10  136 1    
    23   11   12 ar   
    24   11  126 1    
    25   12   13 ar   
    26   12  137 1    
    27   13   14 ar   
    28   13   15 1    
    29   14  138 1    
    30   15   16 1    
    31   15  139 1    
    32   15  140 1    
    33   16   17 1    
    34   17   18 1    
    35   17  141 1    
    36   17  142 1    
    37   18   19 1    
    38   18   67 1    
    39   18  143 1    
    40   19   20 am   BACKBONE|DICT|INTERRES
    41   19  144 1    
    42   20   21 2    
    43   20   22 1    
    44   22   23 1    
    45   22   24 1    
    46   22  145 1    
    47   23  146 1    
    48   23  147 1    
    49   23  148 1    
    50   24   25 am   BACKBONE|DICT|INTERRES
    51   24  149 1    
    52   25   26 2    
    53   25   27 1    
    54   27   28 1    
    55   27   29 1    
    56   27  150 1    
    57   28  151 1    
    58   28  152 1    
    59   28  153 1    
    60   29   30 am   BACKBONE|DICT|INTERRES
    61   29  154 1    
    62   30   31 2    
    63   30   32 1    
    64   32   33 1    
    65   32   34 1    
    66   32  155 1    
    67   33  156 1    
    68   33  157 1    
    69   33  158 1    
    70   34   35 am   BACKBONE|DICT|INTERRES
    71   34  159 1    
    72   35   36 2    
    73   35   37 1    
    74   37   38 1    
    75   37   39 1    
    76   37  160 1    
    77   38  161 1    
    78   38  162 1    
    79   38  163 1    
    80   39   40 am   BACKBONE|DICT|INTERRES
    81   39  164 1    
    82   40   41 2    
    83   40   42 1    
    84   42   43 1    
    85   42   44 1    
    86   42  165 1    
    87   43  166 1    
    88   43  167 1    
    89   43  168 1    
    90   44   45 am   BACKBONE|DICT|INTERRES
    91   44  169 1    
    92   45   46 2    
    93   45   47 1    
    94   47   48 1    
    95   47   49 1    
    96   47  170 1    
    97   48  171 1    
    98   48  172 1    
    99   48  173 1    
   100   49   50 am   BACKBONE|DICT|INTERRES
   101   49  174 1    
   102   50   51 2    
   103   50   52 1    
   104   52   53 1    
   105   52   54 1    
   106   52  175 1    
   107   53  176 1    
   108   53  177 1    
   109   53  178 1    
   110   54   55 am   BACKBONE|DICT|INTERRES
   111   54  179 1    
   112   55   56 2    
   113   55   57 1    
   114   57   58 1    
   115   57   59 1    
   116   57  180 1    
   117   58  181 1    
   118   58  182 1    
   119   58  183 1    
   120   59   60 am   BACKBONE|DICT|INTERRES
   121   59  184 1    
   122   60   61 2    
   123   60   62 1    
   124   62   63 1    
   125   62   64 1    
   126   62  185 1    
   127   63  186 1    
   128   63  187 1    
   129   63  188 1    
   130   64   65 am   BACKBONE|DICT|INTERRES
   131   64  189 1    
   132   65   66 2    
   133   67   68 2    
   134   67   69 am   BACKBONE|DICT|INTERRES
   135   69   70 1    
   136   69  190 1    
   137   70   71 1    
   138   70   72 1    
   139   70  191 1    
   140   71  192 1    
   141   71  193 1    
   142   71  194 1    
   143   72   73 2    
   144   72   74 am   BACKBONE|DICT|INTERRES
   145   74   75 1    
   146   74  195 1    
   147   75   76 1    
   148   75   77 1    
   149   75  196 1    
   150   76  197 1    
   151   76  198 1    
   152   76  199 1    
   153   77   78 2    
   154   77   79 am   BACKBONE|DICT|INTERRES
   155   79   80 1    
   156   79  200 1    
   157   80   81 1    
   158   80   82 1    
   159   80  201 1    
   160   81  202 1    
   161   81  203 1    
   162   81  204 1    
   163   82   83 2    
   164   82   84 am   BACKBONE|DICT|INTERRES
   165   84   85 1    
   166   84  205 1    
   167   85   86 1    
   168   85   87 1    
   169   85  206 1    
   170   86  207 1    
   171   86  208 1    
   172   86  209 1    
   173   87   88 2    
   174   87   89 am   BACKBONE|DICT|INTERRES
   175   89   90 1    
   176   89  210 1    
   177   90   91 1    
   178   90   92 1    
   179   90  211 1    
   180   91  212 1    
   181   91  213 1    
   182   91  214 1    
   183   92   93 2    
   184   92   94 am   BACKBONE|DICT|INTERRES
   185   94   95 1    
   186   94  215 1    
   187   95   96 1    
   188   95   97 1    
   189   95  216 1    
   190   96  217 1    
   191   96  218 1    
   192   96  219 1    
   193   97   98 2    
   194   97   99 am   BACKBONE|DICT|INTERRES
   195   99  100 1    
   196   99  220 1    
   197  100  101 1    
   198  100  102 1    
   199  100  221 1    
   200  101  222 1    
   201  101  223 1    
   202  101  224 1    
   203  102  103 2    
   204  102  104 am   BACKBONE|DICT|INTERRES
   205  104  105 1    
   206  104  225 1    
   207  105  106 1    
   208  105  107 1    
   209  105  226 1    
   210  106  227 1    
   211  106  228 1    
   212  106  229 1    
   213  107  108 2    
   214  107  109 am   BACKBONE|DICT|INTERRES
   215  109  110 1    
   216  109  230 1    
   217  110  111 1    
   218  110  112 1    
   219  110  231 1    
   220  111  232 1    
   221  111  233 1    
   222  111  234 1    
   223  112  113 2    
   224  112  114 am   BACKBONE|DICT|INTERRES
   225  114  115 1    
   226  114  235 1    
   227  115  116 1    
   228  115  117 1    
   229  115  236 1    
   230  116  237 1    
   231  116  238 1    
   232  116  239 1    
   233  117  118 2    
   234  117  119 am   BACKBONE|DICT|INTERRES
   235  119  120 1    
   236  119  240 1    
   237  120  121 1    
   238  120  124 1    
   239  120  241 1    
   240  121  122 am   BACKBONE|DICT|INTERRES
   241  121  123 2    
   242  122  242 1    
   243  122  243 1    
   244  124  125 1    
   245  124  244 1    
   246  124  245 1    
   247  125  126 1    
   248  126  246 1    
   249  126  247 1    
@<TRIPOS>SUBSTRUCTURE
     1 UNK         1 GROUP             0       ****    0 ROOT    
