@<TRIPOS>MOLECULE
3R540
247   249    1
SMALL
USER_CHARGES


@<TRIPOS>ATOM
      1 CA         -2.2253  -11.2697  -44.2145 C.3       0 UNK        -0.1800 
      2 C          -1.4112  -12.4381  -43.6641 C.2       0 UNK         0.5000 
      3 O          -1.6494  -12.8587  -42.5343 O.2       0 UNK        -0.5000 
      4 N          -0.4555  -12.9980  -44.4168 N.am      1 UNK        -0.5000 
      5 CA          0.0148  -12.5475  -45.7282 C.3       1 UNK         0.1400 
      6 C6          0.4612  -13.7678  -46.5828 C.3       23 UNK        -0.0398 
      7 S7          0.7510  -13.4058  -48.3489 S.3       23 UNK        -0.2404 
      8 C8         -0.9465  -13.2648  -48.9910 C.3       23 UNK        -0.0205 
      9 C9         -1.4517  -14.5534  -49.6227 C.ar      23 UNK        -0.0193 
     10 C10        -1.2848  -14.7649  -50.9949 C.ar      23 UNK        -0.1150 
     11 C11        -1.8510  -15.8813  -51.6158 C.ar      23 UNK        -0.0193 
     12 C12        -2.5733  -16.7979  -50.8485 C.ar      23 UNK        -0.1150 
     13 C13        -2.7217  -16.6197  -49.4676 C.ar      23 UNK        -0.0193 
     14 C14        -2.1569  -15.4919  -48.8617 C.ar      23 UNK        -0.1150 
     15 C15        -3.5630  -17.5857  -48.6379 C.3       23 UNK        -0.0205 
     16 S16        -3.3571  -19.3343  -49.1099 S.3       23 UNK        -0.2404 
     17 C17        -1.7601  -19.7683  -48.3197 C.3       23 UNK        -0.0398 
     18 CA         -1.5379  -21.2658  -47.9379 C.3       11 UNK         0.1400 
     19 N          -0.5806  -21.4247  -46.8398 N.am      11 UNK        -0.5000 
     20 C          -0.1418  -22.5966  -46.3537 C.2       10 UNK         0.5000 
     21 O          -0.4055  -23.6910  -46.8519 O.2       10 UNK        -0.5000 
     22 CA          0.6832  -22.5452  -45.0565 C.3       10 UNK         0.1400 
     23 CB          2.1550  -22.2342  -45.3619 C.3       10 UNK        -0.1800 
     24 N           0.1574  -21.5779  -44.0907 N.am      10 UNK        -0.5000 
     25 C          -1.0517  -21.6535  -43.5141 C.2       9 UNK         0.5000 
     26 O          -1.8409  -22.5797  -43.6989 O.2       9 UNK        -0.5000 
     27 CA         -1.4747  -20.4716  -42.6219 C.3       9 UNK         0.1400 
     28 CB         -0.8155  -20.5578  -41.2378 C.3       9 UNK        -0.1800 
     29 N          -1.1801  -19.1755  -43.2347 N.am      9 UNK        -0.5000 
     30 C          -1.7359  -18.7369  -44.3733 C.2       8 UNK         0.5000 
     31 O          -2.5970  -19.3564  -44.9985 O.2       8 UNK        -0.5000 
     32 CA         -1.2038  -17.4072  -44.9366 C.3       8 UNK         0.1400 
     33 CB         -1.8937  -16.2126  -44.2646 C.3       8 UNK        -0.1800 
     34 N           0.2542  -17.2994  -44.8262 N.am      8 UNK        -0.5000 
     35 C           1.1091  -18.0821  -45.5042 C.2       7 UNK         0.5000 
     36 O           0.7554  -18.8993  -46.3529 O.2       7 UNK        -0.5000 
     37 CA          2.5988  -17.9914  -45.1302 C.3       7 UNK         0.1400 
     38 CB          3.3096  -16.8825  -45.9185 C.3       7 UNK        -0.1800 
     39 N           2.7918  -17.7917  -43.6940 N.am      7 UNK        -0.5000 
     40 C           2.5746  -18.7431  -42.7734 C.2       6 UNK         0.5000 
     41 O           2.2255  -19.8885  -43.0521 O.2       6 UNK        -0.5000 
     42 CA          2.7332  -18.3461  -41.2937 C.3       6 UNK         0.1400 
     43 CB          4.1761  -18.5867  -40.8266 C.3       6 UNK        -0.1800 
     44 N           2.3702  -16.9540  -41.0335 N.am      6 UNK        -0.5000 
     45 C           1.1459  -16.4318  -41.1980 C.2       5 UNK         0.5000 
     46 O           0.1620  -17.0931  -41.5302 O.2       5 UNK        -0.5000 
     47 CA          1.0313  -14.9023  -41.0354 C.3       5 UNK         0.1400 
     48 CB          0.7197  -14.5317  -39.5787 C.3       5 UNK        -0.1800 
     49 N           2.2529  -14.2117  -41.4679 N.am      5 UNK        -0.5000 
     50 C           2.6827  -14.1894  -42.7359 C.2       4 UNK         0.5000 
     51 O           2.0205  -14.6286  -43.6812 O.2       4 UNK        -0.5000 
     52 CA          4.1200  -13.6985  -42.9663 C.3       4 UNK         0.1400 
     53 CB          5.1073  -14.8123  -42.5509 C.3       4 UNK        -0.1800 
     54 N           4.2835  -13.3554  -44.3773 N.am      4 UNK        -0.5000 
     55 C           5.3803  -12.8580  -44.9648 C.2       3 UNK         0.5000 
     56 O           6.4336  -12.6169  -44.3743 O.2       3 UNK        -0.5000 
     57 CA          5.2704  -12.5480  -46.4701 C.3       3 UNK         0.1400 
     58 CB          5.2138  -13.8392  -47.3019 C.3       3 UNK        -0.1800 
     59 N           4.1007  -11.7256  -46.7724 N.am      3 UNK        -0.5000 
     60 C           3.9564  -10.4415  -46.4123 C.2       2 UNK         0.5000 
     61 O           4.8482   -9.7692  -45.8933 O.2       2 UNK        -0.5000 
     62 CA          2.5710   -9.8067  -46.6518 C.3       2 UNK         0.1400 
     63 CB          2.5382   -9.0760  -48.0028 C.3       2 UNK        -0.1800 
     64 N           1.4737  -10.7779  -46.6071 N.am      2 UNK        -0.5000 
     65 C           1.1356  -11.5018  -45.5321 C.2       1 UNK         0.5000 
     66 O           1.6820  -11.3730  -44.4338 O.2       1 UNK        -0.5000 
     67 C          -2.8364  -22.0396  -47.6307 C.2       11 UNK         0.5000 
     68 O          -3.2106  -22.9211  -48.4038 O.2       11 UNK        -0.5000 
     69 N          -3.4830  -21.6927  -46.5113 N.am      12 UNK        -0.5000 
     70 CA         -4.7748  -22.2268  -46.0965 C.3       12 UNK         0.1400 
     71 CB         -5.2797  -21.4403  -44.8767 C.3       12 UNK        -0.1800 
     72 C          -4.7539  -23.7375  -45.8111 C.2       12 UNK         0.5000 
     73 O          -5.5455  -24.4728  -46.4018 O.2       12 UNK        -0.5000 
     74 N          -3.8707  -24.1652  -44.9013 N.am      13 UNK        -0.5000 
     75 CA         -3.8505  -25.5240  -44.3687 C.3       13 UNK         0.1400 
     76 CB         -3.2455  -25.5148  -42.9545 C.3       13 UNK        -0.1800 
     77 C          -3.1069  -26.5058  -45.2848 C.2       13 UNK         0.5000 
     78 O          -3.7012  -27.4877  -45.7312 O.2       13 UNK        -0.5000 
     79 N          -1.8137  -26.2480  -45.5186 N.am      14 UNK        -0.5000 
     80 CA         -0.9121  -27.1852  -46.1901 C.3       14 UNK         0.1400 
     81 CB          0.5459  -26.8548  -45.8316 C.3       14 UNK        -0.1800 
     82 C          -1.1167  -27.2208  -47.7121 C.2       14 UNK         0.5000 
     83 O          -1.1660  -28.3063  -48.2921 O.2       14 UNK        -0.5000 
     84 N          -1.2383  -26.0391  -48.3279 N.am      15 UNK        -0.5000 
     85 CA         -1.3710  -25.8764  -49.7765 C.3       15 UNK         0.1400 
     86 CB         -0.5886  -24.6284  -50.2070 C.3       15 UNK        -0.1800 
     87 C          -2.8352  -25.8252  -50.2585 C.2       15 UNK         0.5000 
     88 O          -3.0554  -25.6390  -51.4557 O.2       15 UNK        -0.5000 
     89 N          -3.8012  -25.9949  -49.3419 N.am      16 UNK        -0.5000 
     90 CA         -5.2479  -26.0840  -49.5805 C.3       16 UNK         0.1400 
     91 CB         -5.5860  -27.4056  -50.3015 C.3       16 UNK        -0.1800 
     92 C          -5.8175  -24.8437  -50.3023 C.2       16 UNK         0.5000 
     93 O          -6.3983  -24.9608  -51.3827 O.2       16 UNK        -0.5000 
     94 N          -5.6005  -23.6747  -49.6868 N.am      17 UNK        -0.5000 
     95 CA         -5.8822  -22.3265  -50.1910 C.3       17 UNK         0.1400 
     96 CB         -7.3881  -22.1137  -50.4513 C.3       17 UNK        -0.1800 
     97 C          -4.9899  -21.9716  -51.3964 C.2       17 UNK         0.5000 
     98 O          -5.4756  -21.4186  -52.3848 O.2       17 UNK        -0.5000 
     99 N          -3.6964  -22.3147  -51.2794 N.am      18 UNK        -0.5000 
    100 CA        -2.6225  -22.1123  -52.2601 C.3       18 UNK         0.1400 
    101 CB        -2.1768  -20.6383  -52.2759 C.3       18 UNK        -0.1800 
    102 C         -2.9806  -22.6490  -53.6591 C.2       18 UNK         0.5000 
    103 O         -2.8811  -21.9167  -54.6475 O.2       18 UNK        -0.5000 
    104 N         -3.4522  -23.9038  -53.6916 N.am      19 UNK        -0.5000 
    105 CA        -4.0055  -24.6658  -54.8173 C.3       19 UNK         0.1400 
    106 CB        -2.9496  -24.8887  -55.9169 C.3       19 UNK        -0.1800 
    107 C         -5.3068  -24.0755  -55.3976 C.2       19 UNK         0.5000 
    108 O         -6.3071  -24.7864  -55.5010 O.2       19 UNK        -0.5000 
    109 N         -5.2658  -22.7921  -55.7601 N.am      20 UNK        -0.5000 
    110 CA        -6.3554  -21.9929  -56.3016 C.3       20 UNK         0.1400 
    111 CB        -6.6384  -22.3884  -57.7659 C.3       20 UNK        -0.1800 
    112 C         -5.9863  -20.5098  -56.1366 C.2       20 UNK         0.5000 
    113 O         -5.8809  -19.7854  -57.1284 O.2       20 UNK        -0.5000 
    114 N         -5.7397  -20.0969  -54.8838 N.am      21 UNK        -0.5000 
    115 CA        -5.3857  -18.7395  -54.4509 C.3       21 UNK         0.1400 
    116 CB        -6.6066  -17.8045  -54.5708 C.3       21 UNK        -0.1800 
    117 C         -4.1298  -18.1882  -55.1572 C.2       21 UNK         0.5000 
    118 O         -4.1326  -17.0514  -55.6327 O.2       21 UNK        -0.5000 
    119 N         -3.0900  -19.0281  -55.2324 N.am      22 UNK        -0.5000 
    120 CA        -1.8083  -18.7862  -55.9171 C.3       22 UNK         0.1400 
    121 C         -1.8929  -18.8142  -57.4751 C.2       22 UNK         0.5000 
    122 N         -3.0275  -19.1338  -58.0885 N.am      22 UNK        -0.7600 
    123 O         -0.8957  -18.5721  -58.1500 O.2       22 UNK        -0.5000 
    124 C124       -1.0283  -17.5388  -55.4007 C.3       23 UNK        -0.0398 
    125 S125       -0.7632  -17.5153  -53.5912 S.3       23 UNK        -0.2404 
    126 C126       -1.7536  -16.0607  -53.1235 C.3       23 UNK        -0.0205 
    127 H127       -1.5765  -10.4468  -44.5141 H         1 UNK         0.0600 
    128 H128       -2.9113  -10.8912  -43.4564 H         1 UNK         0.0600 
    129 H129       -2.8185  -11.5847  -45.0729 H         1 UNK         0.0600 
    130 H130        0.1321  -13.7067  -43.9949 H         1 UNK         0.3000 
    131 H131       -0.8035  -12.0535  -46.2514 H         1 UNK         0.0600 
    132 H132        1.3714  -14.2066  -46.1767 H         1 UNK         0.0800 
    133 H133       -0.2891  -14.5567  -46.5331 H         1 UNK         0.0800 
    134 H134       -0.9631  -12.4671  -49.7353 H         1 UNK         0.0800 
    135 H135       -1.6322  -12.9452  -48.2062 H         1 UNK         0.0800 
    136 H136       -0.7488  -14.0359  -51.5864 H         1 UNK         0.1150 
    137 H137       -3.0330  -17.6447  -51.3379 H         1 UNK         0.1150 
    138 H138       -2.3002  -15.3225  -47.8039 H         1 UNK         0.1150 
    139 H139       -3.3573  -17.4725  -47.5727 H         1 UNK         0.0800 
    140 H140       -4.6114  -17.3187  -48.7745 H         1 UNK         0.0800 
    141 H141       -1.6798  -19.1566  -47.4254 H         1 UNK         0.0800 
    142 H142       -0.9511  -19.4303  -48.9686 H         1 UNK         0.0800 
    143 H143       -1.0916  -21.7419  -48.8108 H         1 UNK         0.0600 
    144 H144       -0.2535  -20.5679  -46.4043 H         1 UNK         0.3000 
    145 H145        0.6346  -23.5336  -44.5949 H         1 UNK         0.0600 
    146 H146        2.7617  -22.2710  -44.4570 H         1 UNK         0.0600 
    147 H147        2.5703  -22.9607  -46.0616 H         1 UNK         0.0600 
    148 H148        2.2737  -21.2455  -45.8052 H         1 UNK         0.0600 
    149 H149        0.7771  -20.8143  -43.8332 H         1 UNK         0.3000 
    150 H150       -2.5562  -20.5323  -42.4834 H         1 UNK         0.0600 
    151 H151       -1.0879  -21.4870  -40.7359 H         1 UNK         0.0600 
    152 H152       -1.1334  -19.7352  -40.5969 H         1 UNK         0.0600 
    153 H153        0.2715  -20.5297  -41.3039 H         1 UNK         0.0600 
    154 H154       -0.5211  -18.5746  -42.7509 H         1 UNK         0.3000 
    155 H155       -1.4611  -17.3730  -45.9960 H         1 UNK         0.0600 
    156 H156       -1.5391  -16.0472  -43.2479 H         1 UNK         0.0600 
    157 H157       -2.9734  -16.3602  -44.2144 H         1 UNK         0.0600 
    158 H158       -1.7308  -15.3015  -44.8343 H         1 UNK         0.0600 
    159 H159        0.6218  -16.6629  -44.1329 H         1 UNK         0.3000 
    160 H160        3.0658  -18.9394  -45.4055 H         1 UNK         0.0600 
    161 H161        2.8889  -15.9020  -45.7100 H         1 UNK         0.0600 
    162 H162        3.2211  -17.0518  -46.9924 H         1 UNK         0.0600 
    163 H163        4.3730  -16.8475  -45.6813 H         1 UNK         0.0600 
    164 H164        3.0296  -16.8595  -43.3915 H         1 UNK         0.3000 
    165 H165        2.0705  -18.9823  -40.7040 H         1 UNK         0.0600 
    166 H166        4.2864  -18.3789  -39.7621 H         1 UNK         0.0600 
    167 H167        4.4692  -19.6254  -40.9854 H         1 UNK         0.0600 
    168 H168        4.8858  -17.9592  -41.3674 H         1 UNK         0.0600 
    169 H169        3.1157  -16.3405  -40.7422 H         1 UNK         0.3000 
    170 H170        0.2031  -14.5656  -41.6607 H         1 UNK         0.0600 
    171 H171       -0.1944  -15.0213  -39.2398 H         1 UNK         0.0600 
    172 H172        1.5227  -14.8302  -38.9038 H         1 UNK         0.0600 
    173 H173        0.5700  -13.4573  -39.4704 H         1 UNK         0.0600 
    174 H174        2.8356  -13.8233  -40.7400 H         1 UNK         0.3000 
    175 H175        4.2867  -12.8029  -42.3652 H         1 UNK         0.0600 
    176 H176        5.0183  -15.6884  -43.1942 H         1 UNK         0.0600 
    177 H177        6.1419  -14.4743  -42.5940 H         1 UNK         0.0600 
    178 H178        4.9340  -15.1378  -41.5248 H         1 UNK         0.0600 
    179 H179        3.4436  -13.4931  -44.9222 H         1 UNK         0.3000 
    180 H180        6.1654  -11.9955  -46.7645 H         1 UNK         0.0600 
    181 H181        4.2940  -14.3965  -47.1247 H         1 UNK         0.0600 
    182 H182        6.0500  -14.4973  -47.0622 H         1 UNK         0.0600 
    183 H183        5.2685  -13.6205  -48.3684 H         1 UNK         0.0600 
    184 H184        3.3214  -12.1859  -47.2182 H         1 UNK         0.3000 
    185 H185        2.4035   -9.0736  -45.8600 H         1 UNK         0.0600 
    186 H186        3.3299   -8.3279  -48.0616 H         1 UNK         0.0600 
    187 H187        2.6752   -9.7655  -48.8368 H         1 UNK         0.0600 
    188 H188        1.5909   -8.5564  -48.1478 H         1 UNK         0.0600 
    189 H189        0.9939  -10.9481  -47.4801 H         1 UNK         0.3000 
    190 H190       -3.0980  -20.9475  -45.9363 H         1 UNK         0.3000 
    191 H191       -5.4782  -22.0572  -46.9140 H         1 UNK         0.0600 
    192 H192       -4.5865  -21.5077  -44.0373 H         1 UNK         0.0600 
    193 H193       -6.2461  -21.8166  -44.5390 H         1 UNK         0.0600 
    194 H194       -5.4070  -20.3844  -45.1167 H         1 UNK         0.0600 
    195 H195       -3.2099  -23.5047  -44.4954 H         1 UNK         0.3000 
    196 H196       -4.8802  -25.8770  -44.2752 H         1 UNK         0.0600 
    197 H197       -3.2468  -26.5167  -42.5235 H         1 UNK         0.0600 
    198 H198       -3.8203  -24.8731  -42.2865 H         1 UNK         0.0600 
    199 H199       -2.2150  -25.1583  -42.9509 H         1 UNK         0.0600 
    200 H200       -1.4121  -25.3868  -45.1768 H         1 UNK         0.3000 
    201 H201       -1.1198  -28.1877  -45.8089 H         1 UNK         0.0600 
    202 H202        0.7024  -26.8813  -44.7531 H         1 UNK         0.0600 
    203 H203        0.8444  -25.8699  -46.1891 H         1 UNK         0.0600 
    204 H204        1.2276  -27.5811  -46.2758 H         1 UNK         0.0600 
    205 H205       -1.1473  -25.1870  -47.7783 H         1 UNK         0.3000 
    206 H206       -0.9097  -26.7300  -50.2774 H         1 UNK         0.0600 
    207 H207        0.4315  -24.6476  -49.8230 H         1 UNK         0.0600 
    208 H208       -0.5225  -24.5668  -51.2934 H         1 UNK         0.0600 
    209 H209       -1.0641  -23.7197  -49.8466 H         1 UNK         0.0600 
    210 H210       -3.5080  -26.0991  -48.3809 H         1 UNK         0.3000 
    211 H211       -5.7229  -26.1174  -48.5991 H         1 UNK         0.0600 
    212 H212       -5.1537  -27.4451  -51.3019 H         1 UNK         0.0600 
    213 H213       -6.6647  -27.5278  -50.4060 H         1 UNK         0.0600 
    214 H214       -5.2150  -28.2645  -49.7422 H         1 UNK         0.0600 
    215 H215       -5.0204  -23.6974  -48.8543 H         1 UNK         0.3000 
    216 H216       -5.5940  -21.6393  -49.3946 H         1 UNK         0.0600 
    217 H217       -7.5968  -21.0675  -50.6778 H         1 UNK         0.0600 
    218 H218       -7.9812  -22.3814  -49.5770 H         1 UNK         0.0600 
    219 H219       -7.7455  -22.7041  -51.2952 H         1 UNK         0.0600 
    220 H220       -3.4246  -22.7611  -50.4099 H         1 UNK         0.3000 
    221 H221       -1.7706  -22.7009  -51.9263 H         1 UNK         0.0600 
    222 H222       -3.0051  -19.9637  -52.4906 H         1 UNK         0.0600 
    223 H223       -1.7487  -20.3495  -51.3178 H         1 UNK         0.0600 
    224 H224       -1.4043  -20.4669  -53.0262 H         1 UNK         0.0600 
    225 H225       -3.4759  -24.4092  -52.8077 H         1 UNK         0.3000 
    226 H226       -4.2610  -25.6440  -54.4065 H         1 UNK         0.0600 
    227 H227       -2.0625  -25.3783  -55.5153 H         1 UNK         0.0600 
    228 H228       -3.3436  -25.5271  -56.7085 H         1 UNK         0.0600 
    229 H229       -2.6349  -23.9535  -56.3806 H         1 UNK         0.0600 
    230 H230       -4.3961  -22.2940  -55.5790 H         1 UNK         0.3000 
    231 H231       -7.2546  -22.1718  -55.7086 H         1 UNK         0.0600 
    232 H232       -6.9585  -23.4272  -57.8448 H         1 UNK         0.0600 
    233 H233       -5.7545  -22.2626  -58.3923 H         1 UNK         0.0600 
    234 H234       -7.4341  -21.7745  -58.1895 H         1 UNK         0.0600 
    235 H235       -5.7833  -20.7750  -54.1248 H         1 UNK         0.3000 
    236 H236       -5.1307  -18.8106  -53.3925 H         1 UNK         0.0600 
    237 H237       -6.9055  -17.6606  -55.6096 H         1 UNK         0.0600 
    238 H238       -7.4627  -18.2045  -54.0274 H         1 UNK         0.0600 
    239 H239       -6.3887  -16.8212  -54.1524 H         1 UNK         0.0600 
    240 H240       -3.1943  -19.9672  -54.8618 H         1 UNK         0.3000 
    241 H241       -1.2027  -19.6580  -55.6676 H         1 UNK         0.0600 
    242 H242       -3.0509  -19.1561  -59.0955 H         1 UNK         0.3800 
    243 H243       -3.8777  -19.3126  -57.5680 H         1 UNK         0.3800 
    244 H244       -1.5276  -16.6209  -55.7134 H         1 UNK         0.0800 
    245 H245       -0.0398  -17.5029  -55.8612 H         1 UNK         0.0800 
    246 H246       -2.7620  -16.1576  -53.5241 H         1 UNK         0.0800 
    247 H247       -1.3221  -15.1740  -53.5902 H         1 UNK         0.0800 
@<TRIPOS>BOND
     1    1    2 1    
     2    1  127 1    
     3    1  128 1    
     4    1  129 1    
     5    2    3 2    
     6    2    4 am   BACKBONE|DICT|INTERRES
     7    4    5 1    
     8    4  130 1    
     9    5    6 1    
    10    5   65 1    
    11    5  131 1    
    12    6    7 1    
    13    6  132 1    
    14    6  133 1    
    15    7    8 1    
    16    8    9 1    
    17    8  134 1    
    18    8  135 1    
    19    9   10 ar   
    20    9   14 ar   
    21   10   11 ar   
    22   10  136 1    
    23   11   12 ar   
    24   11  126 1    
    25   12   13 ar   
    26   12  137 1    
    27   13   14 ar   
    28   13   15 1    
    29   14  138 1    
    30   15   16 1    
    31   15  139 1    
    32   15  140 1    
    33   16   17 1    
    34   17   18 1    
    35   17  141 1    
    36   17  142 1    
    37   18   19 1    
    38   18   67 1    
    39   18  143 1    
    40   19   20 am   BACKBONE|DICT|INTERRES
    41   19  144 1    
    42   20   21 2    
    43   20   22 1    
    44   22   23 1    
    45   22   24 1    
    46   22  145 1    
    47   23  146 1    
    48   23  147 1    
    49   23  148 1    
    50   24   25 am   BACKBONE|DICT|INTERRES
    51   24  149 1    
    52   25   26 2    
    53   25   27 1    
    54   27   28 1    
    55   27   29 1    
    56   27  150 1    
    57   28  151 1    
    58   28  152 1    
    59   28  153 1    
    60   29   30 am   BACKBONE|DICT|INTERRES
    61   29  154 1    
    62   30   31 2    
    63   30   32 1    
    64   32   33 1    
    65   32   34 1    
    66   32  155 1    
    67   33  156 1    
    68   33  157 1    
    69   33  158 1    
    70   34   35 am   BACKBONE|DICT|INTERRES
    71   34  159 1    
    72   35   36 2    
    73   35   37 1    
    74   37   38 1    
    75   37   39 1    
    76   37  160 1    
    77   38  161 1    
    78   38  162 1    
    79   38  163 1    
    80   39   40 am   BACKBONE|DICT|INTERRES
    81   39  164 1    
    82   40   41 2    
    83   40   42 1    
    84   42   43 1    
    85   42   44 1    
    86   42  165 1    
    87   43  166 1    
    88   43  167 1    
    89   43  168 1    
    90   44   45 am   BACKBONE|DICT|INTERRES
    91   44  169 1    
    92   45   46 2    
    93   45   47 1    
    94   47   48 1    
    95   47   49 1    
    96   47  170 1    
    97   48  171 1    
    98   48  172 1    
    99   48  173 1    
   100   49   50 am   BACKBONE|DICT|INTERRES
   101   49  174 1    
   102   50   51 2    
   103   50   52 1    
   104   52   53 1    
   105   52   54 1    
   106   52  175 1    
   107   53  176 1    
   108   53  177 1    
   109   53  178 1    
   110   54   55 am   BACKBONE|DICT|INTERRES
   111   54  179 1    
   112   55   56 2    
   113   55   57 1    
   114   57   58 1    
   115   57   59 1    
   116   57  180 1    
   117   58  181 1    
   118   58  182 1    
   119   58  183 1    
   120   59   60 am   BACKBONE|DICT|INTERRES
   121   59  184 1    
   122   60   61 2    
   123   60   62 1    
   124   62   63 1    
   125   62   64 1    
   126   62  185 1    
   127   63  186 1    
   128   63  187 1    
   129   63  188 1    
   130   64   65 am   BACKBONE|DICT|INTERRES
   131   64  189 1    
   132   65   66 2    
   133   67   68 2    
   134   67   69 am   BACKBONE|DICT|INTERRES
   135   69   70 1    
   136   69  190 1    
   137   70   71 1    
   138   70   72 1    
   139   70  191 1    
   140   71  192 1    
   141   71  193 1    
   142   71  194 1    
   143   72   73 2    
   144   72   74 am   BACKBONE|DICT|INTERRES
   145   74   75 1    
   146   74  195 1    
   147   75   76 1    
   148   75   77 1    
   149   75  196 1    
   150   76  197 1    
   151   76  198 1    
   152   76  199 1    
   153   77   78 2    
   154   77   79 am   BACKBONE|DICT|INTERRES
   155   79   80 1    
   156   79  200 1    
   157   80   81 1    
   158   80   82 1    
   159   80  201 1    
   160   81  202 1    
   161   81  203 1    
   162   81  204 1    
   163   82   83 2    
   164   82   84 am   BACKBONE|DICT|INTERRES
   165   84   85 1    
   166   84  205 1    
   167   85   86 1    
   168   85   87 1    
   169   85  206 1    
   170   86  207 1    
   171   86  208 1    
   172   86  209 1    
   173   87   88 2    
   174   87   89 am   BACKBONE|DICT|INTERRES
   175   89   90 1    
   176   89  210 1    
   177   90   91 1    
   178   90   92 1    
   179   90  211 1    
   180   91  212 1    
   181   91  213 1    
   182   91  214 1    
   183   92   93 2    
   184   92   94 am   BACKBONE|DICT|INTERRES
   185   94   95 1    
   186   94  215 1    
   187   95   96 1    
   188   95   97 1    
   189   95  216 1    
   190   96  217 1    
   191   96  218 1    
   192   96  219 1    
   193   97   98 2    
   194   97   99 am   BACKBONE|DICT|INTERRES
   195   99  100 1    
   196   99  220 1    
   197  100  101 1    
   198  100  102 1    
   199  100  221 1    
   200  101  222 1    
   201  101  223 1    
   202  101  224 1    
   203  102  103 2    
   204  102  104 am   BACKBONE|DICT|INTERRES
   205  104  105 1    
   206  104  225 1    
   207  105  106 1    
   208  105  107 1    
   209  105  226 1    
   210  106  227 1    
   211  106  228 1    
   212  106  229 1    
   213  107  108 2    
   214  107  109 am   BACKBONE|DICT|INTERRES
   215  109  110 1    
   216  109  230 1    
   217  110  111 1    
   218  110  112 1    
   219  110  231 1    
   220  111  232 1    
   221  111  233 1    
   222  111  234 1    
   223  112  113 2    
   224  112  114 am   BACKBONE|DICT|INTERRES
   225  114  115 1    
   226  114  235 1    
   227  115  116 1    
   228  115  117 1    
   229  115  236 1    
   230  116  237 1    
   231  116  238 1    
   232  116  239 1    
   233  117  118 2    
   234  117  119 am   BACKBONE|DICT|INTERRES
   235  119  120 1    
   236  119  240 1    
   237  120  121 1    
   238  120  124 1    
   239  120  241 1    
   240  121  122 am   BACKBONE|DICT|INTERRES
   241  121  123 2    
   242  122  242 1    
   243  122  243 1    
   244  124  125 1    
   245  124  244 1    
   246  124  245 1    
   247  125  126 1    
   248  126  246 1    
   249  126  247 1    
@<TRIPOS>SUBSTRUCTURE
     1 UNK         1 GROUP             0       ****    0 ROOT    
