@<TRIPOS>MOLECULE
3R540
247   249    1
SMALL
USER_CHARGES


@<TRIPOS>ATOM
      1 CA         -1.3753  -14.6087  -50.0402 C.3       0 UNK        -0.1800 
      2 C          -0.3926  -13.4982  -49.7078 C.2       0 UNK         0.5000 
      3 O          -0.6081  -12.3487  -50.0923 O.2       0 UNK        -0.5000 
      4 N           0.6895  -13.8455  -49.0026 N.am      1 UNK        -0.5000 
      5 CA          1.7313  -12.9301  -48.5291 C.3       1 UNK         0.1400 
      6 C6          2.9373  -13.6867  -47.9194 C.3       23 UNK        -0.0398 
      7 S7          3.6367  -14.9533  -49.0324 S.3       23 UNK        -0.2404 
      8 C8          2.9048  -16.4697  -48.3234 C.3       23 UNK        -0.0205 
      9 C9          2.6095  -17.5491  -49.3593 C.ar      23 UNK        -0.0193 
     10 C10         2.0218  -17.2337  -50.5903 C.ar      23 UNK        -0.1150 
     11 C11         1.7325  -18.2343  -51.5233 C.ar      23 UNK        -0.0193 
     12 C12         2.0159  -19.5670  -51.2073 C.ar      23 UNK        -0.1150 
     13 C13         2.5996  -19.9004  -49.9805 C.ar      23 UNK        -0.0193 
     14 C14         2.8966  -18.8849  -49.0651 C.ar      23 UNK        -0.1150 
     15 C15         2.9546  -21.3516  -49.6716 C.3       23 UNK        -0.0205 
     16 S16         2.3259  -21.9226  -48.0588 S.3       23 UNK        -0.2404 
     17 C17         0.5261  -21.8630  -48.3347 C.3       23 UNK        -0.0398 
     18 CA         -0.2215  -22.8617  -47.4204 C.3       11 UNK         0.1400 
     19 N          -0.2095  -22.4545  -46.0084 N.am      11 UNK        -0.5000 
     20 C          -0.7106  -23.1618  -44.9838 C.2       10 UNK         0.5000 
     21 O          -1.2822  -24.2443  -45.1132 O.2       10 UNK        -0.5000 
     22 CA         -0.6107  -22.5317  -43.5852 C.3       10 UNK         0.1400 
     23 CB          0.8373  -22.5292  -43.0718 C.3       10 UNK        -0.1800 
     24 N          -1.1593  -21.1772  -43.5692 N.am      10 UNK        -0.5000 
     25 C          -2.4634  -20.8955  -43.7011 C.2       9 UNK         0.5000 
     26 O          -3.3435  -21.7549  -43.7479 O.2       9 UNK        -0.5000 
     27 CA         -2.8557  -19.4110  -43.8251 C.3       9 UNK         0.1400 
     28 CB         -3.0798  -18.7918  -42.4377 C.3       9 UNK        -0.1800 
     29 N          -1.8737  -18.6133  -44.5598 N.am      9 UNK        -0.5000 
     30 C          -1.5628  -18.7823  -45.8533 C.2       8 UNK         0.5000 
     31 O          -2.1042  -19.6133  -46.5847 O.2       8 UNK        -0.5000 
     32 CA         -0.4170  -17.9061  -46.3979 C.3       8 UNK         0.1400 
     33 CB         -0.9199  -16.4838  -46.6950 C.3       8 UNK        -0.1800 
     34 N           0.7262  -17.8547  -45.4812 N.am      8 UNK        -0.5000 
     35 C           1.4350  -18.9324  -45.1107 C.2       7 UNK         0.5000 
     36 O           1.2299  -20.0646  -45.5399 O.2       7 UNK        -0.5000 
     37 CA          2.5026  -18.7334  -44.0251 C.3       7 UNK         0.1400 
     38 CB          3.8210  -18.2298  -44.6303 C.3       7 UNK        -0.1800 
     39 N           2.0339  -17.8240  -42.9797 N.am      7 UNK        -0.5000 
     40 C           1.1082  -18.1549  -42.0662 C.2       6 UNK         0.5000 
     41 O           0.6065  -19.2753  -41.9823 O.2       6 UNK        -0.5000 
     42 CA          0.6344  -17.0442  -41.1093 C.3       6 UNK         0.1400 
     43 CB          1.5383  -16.9784  -39.8695 C.3       6 UNK        -0.1800 
     44 N           0.5913  -15.7279  -41.7458 N.am      6 UNK        -0.5000 
     45 C          -0.2412  -15.3896  -42.7408 C.2       5 UNK         0.5000 
     46 O          -1.1144  -16.1366  -43.1811 O.2       5 UNK        -0.5000 
     47 CA         -0.0164  -14.0100  -43.3905 C.3       5 UNK         0.1400 
     48 CB         -0.8697  -12.9355  -42.7022 C.3       5 UNK        -0.1800 
     49 N           1.3882  -13.5910  -43.3798 N.am      5 UNK        -0.5000 
     50 C           2.3814  -14.2370  -44.0027 C.2       4 UNK         0.5000 
     51 O           2.2086  -15.2703  -44.6521 O.2       4 UNK        -0.5000 
     52 CA          3.7910  -13.6295  -43.8595 C.3       4 UNK         0.1400 
     53 CB          4.8665  -14.4102  -44.6362 C.3       4 UNK        -0.1800 
     54 N           3.8176  -12.2294  -44.2831 N.am      4 UNK        -0.5000 
     55 C           3.5102  -11.1831  -43.5054 C.2       3 UNK         0.5000 
     56 O           3.1233  -11.2884  -42.3410 O.2       3 UNK        -0.5000 
     57 CA          3.6218   -9.7962  -44.1577 C.3       3 UNK         0.1400 
     58 CB          5.0870   -9.4345  -44.4514 C.3       3 UNK        -0.1800 
     59 N           2.8428   -9.7328  -45.3935 N.am      3 UNK        -0.5000 
     60 C           1.5143   -9.5609  -45.4348 C.2       2 UNK         0.5000 
     61 O           0.8096   -9.3999  -44.4378 O.2       2 UNK        -0.5000 
     62 CA          0.8655   -9.5783  -46.8302 C.3       2 UNK         0.1400 
     63 CB          1.0418   -8.2220  -47.5307 C.3       2 UNK        -0.1800 
     64 N           1.3915  -10.6426  -47.6885 N.am      2 UNK        -0.5000 
     65 C           1.1465  -11.9453  -47.4954 C.2       1 UNK         0.5000 
     66 O           0.4896  -12.3854  -46.5497 O.2       1 UNK        -0.5000 
     67 C          -1.6390  -23.1182  -47.9613 C.2       11 UNK         0.5000 
     68 O          -1.8065  -24.0158  -48.7896 O.2       11 UNK        -0.5000 
     69 N          -2.6370  -22.3764  -47.4583 N.am      12 UNK        -0.5000 
     70 CA         -4.0540  -22.5525  -47.7784 C.3       12 UNK         0.1400 
     71 CB         -4.8983  -21.5393  -46.9920 C.3       12 UNK        -0.1800 
     72 C          -4.5695  -23.9852  -47.5404 C.2       12 UNK         0.5000 
     73 O          -5.3882  -24.4655  -48.3244 O.2       12 UNK        -0.5000 
     74 N          -4.0458  -24.6441  -46.4985 N.am      13 UNK        -0.5000 
     75 CA         -4.3270  -26.0370  -46.1698 C.3       13 UNK         0.1400 
     76 CB         -4.4913  -26.1693  -44.6473 C.3       13 UNK        -0.1800 
     77 C          -3.2133  -26.9677  -46.6781 C.2       13 UNK         0.5000 
     78 O          -3.5120  -27.9601  -47.3418 O.2       13 UNK        -0.5000 
     79 N          -1.9534  -26.6433  -46.3533 N.am      14 UNK        -0.5000 
     80 CA         -0.7872  -27.5098  -46.5464 C.3       14 UNK         0.1400 
     81 CB          0.4046  -26.9400  -45.7615 C.3       14 UNK        -0.1800 
     82 C          -0.3997  -27.7299  -48.0177 C.2       14 UNK         0.5000 
     83 O           0.0164  -28.8336  -48.3722 O.2       14 UNK        -0.5000 
     84 N          -0.5491  -26.6871  -48.8423 N.am      15 UNK        -0.5000 
     85 CA         -0.2964  -26.7211  -50.2845 C.3       15 UNK         0.1400 
     86 CB          0.6047  -25.5287  -50.6544 C.3       15 UNK        -0.1800 
     87 C          -1.6117  -26.6937  -51.0870 C.2       15 UNK         0.5000 
     88 O          -1.5635  -26.6632  -52.3171 O.2       15 UNK        -0.5000 
     89 N          -2.7554  -26.6786  -50.3814 N.am      16 UNK        -0.5000 
     90 CA         -4.1218  -26.5097  -50.8881 C.3       16 UNK         0.1400 
     91 CB         -4.5507  -27.7301  -51.7279 C.3       16 UNK        -0.1800 
     92 C          -4.3225  -25.1692  -51.6291 C.2       16 UNK         0.5000 
     93 O          -5.1407  -25.0829  -52.5472 O.2       16 UNK        -0.5000 
     94 N          -3.5699  -24.1366  -51.2193 N.am      17 UNK        -0.5000 
     95 CA         -3.4925  -22.8388  -51.8907 C.3       17 UNK         0.1400 
     96 CB         -2.2097  -22.1166  -51.4565 C.3       17 UNK        -0.1800 
     97 C          -4.7272  -21.9401  -51.6913 C.2       17 UNK         0.5000 
     98 O          -4.7440  -20.8308  -52.2234 O.2       17 UNK        -0.5000 
     99 N          -5.7471  -22.4141  -50.9605 N.am      18 UNK        -0.5000 
    100 CA        -7.0327  -21.7389  -50.7671 C.3       18 UNK         0.1400 
    101 CB        -7.8972  -22.5593  -49.7989 C.3       18 UNK        -0.1800 
    102 C         -7.7897  -21.4977  -52.0872 C.2       18 UNK         0.5000 
    103 O         -8.4544  -20.4715  -52.2247 O.2       18 UNK        -0.5000 
    104 N         -7.6259  -22.4145  -53.0526 N.am      19 UNK        -0.5000 
    105 CA        -8.1645  -22.3062  -54.4110 C.3       19 UNK         0.1400 
    106 CB        -8.0131  -23.6633  -55.1143 C.3       19 UNK        -0.1800 
    107 C         -7.4983  -21.1903  -55.2425 C.2       19 UNK         0.5000 
    108 O         -8.1401  -20.6315  -56.1323 O.2       19 UNK        -0.5000 
    109 N         -6.2340  -20.8786  -54.9276 N.am      20 UNK        -0.5000 
    110 CA        -5.4545  -19.7940  -55.5277 C.3       20 UNK         0.1400 
    111 CB        -3.9905  -20.2548  -55.6358 C.3       20 UNK        -0.1800 
    112 C         -5.5457  -18.4865  -54.7141 C.2       20 UNK         0.5000 
    113 O         -5.0219  -17.4660  -55.1619 O.2       20 UNK        -0.5000 
    114 N         -6.1784  -18.5484  -53.5317 N.am      21 UNK        -0.5000 
    115 CA        -6.2590  -17.5135  -52.4973 C.3       21 UNK         0.1400 
    116 CB        -7.0984  -16.3137  -52.9836 C.3       21 UNK        -0.1800 
    117 C         -4.8693  -17.1114  -51.9550 C.2       21 UNK         0.5000 
    118 O         -4.6223  -15.9281  -51.7141 O.2       21 UNK        -0.5000 
    119 N         -3.9893  -18.1079  -51.7829 N.am      22 UNK        -0.5000 
    120 CA        -2.5858  -17.9435  -51.3691 C.3       22 UNK         0.1400 
    121 C         -2.2357  -18.6505  -50.0295 C.2       22 UNK         0.5000 
    122 N         -3.2012  -19.1016  -49.2403 N.am      22 UNK        -0.7600 
    123 O         -1.0692  -18.7714  -49.6786 O.2       22 UNK        -0.5000 
    124 C124       -1.6033  -18.2930  -52.5260 C.3       23 UNK        -0.0398 
    125 S125       -0.3957  -16.9610  -52.8384 S.3       23 UNK        -0.2404 
    126 C126        1.1839  -17.8687  -52.8982 C.3       23 UNK        -0.0205 
    127 H127       -2.2940  -14.4861  -49.4670 H         1 UNK         0.0600 
    128 H128       -0.9575  -15.5905  -49.8148 H         1 UNK         0.0600 
    129 H129       -1.6272  -14.5818  -51.1003 H         1 UNK         0.0600 
    130 H130        0.8066  -14.8078  -48.7277 H         1 UNK         0.3000 
    131 H131        2.0856  -12.3648  -49.3937 H         1 UNK         0.0600 
    132 H132        2.6556  -14.1594  -46.9790 H         1 UNK         0.0800 
    133 H133        3.7361  -12.9840  -47.6772 H         1 UNK         0.0800 
    134 H134        3.5860  -16.8467  -47.5597 H         1 UNK         0.0800 
    135 H135        1.9736  -16.2397  -47.8102 H         1 UNK         0.0800 
    136 H136        1.7965  -16.2051  -50.8332 H         1 UNK         0.1150 
    137 H137        1.8032  -20.3440  -51.9278 H         1 UNK         0.1150 
    138 H138        3.3473  -19.1407  -48.1164 H         1 UNK         0.1150 
    139 H139        2.5854  -22.0193  -50.4516 H         1 UNK         0.0800 
    140 H140        4.0408  -21.4488  -49.6748 H         1 UNK         0.0800 
    141 H141        0.3417  -22.0852  -49.3877 H         1 UNK         0.0800 
    142 H142        0.1723  -20.8428  -48.1714 H         1 UNK         0.0800 
    143 H143        0.2969  -23.8212  -47.4742 H         1 UNK         0.0600 
    144 H144        0.2562  -21.5693  -45.8114 H         1 UNK         0.3000 
    145 H145       -1.2021  -23.1445  -42.9015 H         1 UNK         0.0600 
    146 H146        0.8947  -22.1276  -42.0600 H         1 UNK         0.0600 
    147 H147        1.2401  -23.5423  -43.0433 H         1 UNK         0.0600 
    148 H148        1.4958  -21.9346  -43.7038 H         1 UNK         0.0600 
    149 H149       -0.4981  -20.4152  -43.4830 H         1 UNK         0.3000 
    150 H150       -3.7976  -19.3647  -44.3756 H         1 UNK         0.0600 
    151 H151       -3.8336  -19.3475  -41.8787 H         1 UNK         0.0600 
    152 H152       -3.4268  -17.7614  -42.5170 H         1 UNK         0.0600 
    153 H153       -2.1646  -18.7918  -41.8454 H         1 UNK         0.0600 
    154 H154       -1.4194  -17.8650  -44.0444 H         1 UNK         0.3000 
    155 H155       -0.0623  -18.3497  -47.3295 H         1 UNK         0.0600 
    156 H156       -1.3774  -16.0224  -45.8204 H         1 UNK         0.0600 
    157 H157       -1.6734  -16.5020  -47.4833 H         1 UNK         0.0600 
    158 H158       -0.1163  -15.8293  -47.0255 H         1 UNK         0.0600 
    159 H159        0.9747  -16.9528  -45.0916 H         1 UNK         0.3000 
    160 H160        2.7004  -19.7049  -43.5671 H         1 UNK         0.0600 
    161 H161        3.6908  -17.2953  -45.1731 H         1 UNK         0.0600 
    162 H162        4.2223  -18.9580  -45.3363 H         1 UNK         0.0600 
    163 H163        4.5762  -18.0720  -43.8604 H         1 UNK         0.0600 
    164 H164        2.3455  -16.8653  -43.0416 H         1 UNK         0.3000 
    165 H165       -0.3767  -17.2956  -40.7826 H         1 UNK         0.0600 
    166 H166        1.1692  -16.2466  -39.1507 H         1 UNK         0.0600 
    167 H167        1.5728  -17.9429  -39.3609 H         1 UNK         0.0600 
    168 H168        2.5623  -16.7078  -40.1301 H         1 UNK         0.0600 
    169 H169        1.2747  -15.0503  -41.4420 H         1 UNK         0.3000 
    170 H170       -0.3331  -14.0827  -44.4331 H         1 UNK         0.0600 
    171 H171       -1.9258  -13.2078  -42.7157 H         1 UNK         0.0600 
    172 H172       -0.5780  -12.7950  -41.6607 H         1 UNK         0.0600 
    173 H173       -0.7753  -11.9754  -43.2107 H         1 UNK         0.0600 
    174 H174        1.6145  -12.7416  -42.8762 H         1 UNK         0.3000 
    175 H175        4.0544  -13.6871  -42.8013 H         1 UNK         0.0600 
    176 H176        4.6557  -14.4536  -45.7041 H         1 UNK         0.0600 
    177 H177        5.8496  -13.9569  -44.5088 H         1 UNK         0.0600 
    178 H178        4.9396  -15.4353  -44.2733 H         1 UNK         0.0600 
    179 H179        4.0944  -12.0544  -45.2365 H         1 UNK         0.3000 
    180 H180        3.2320   -9.0597  -43.4514 H         1 UNK         0.0600 
    181 H181        5.5378  -10.1076  -45.1814 H         1 UNK         0.0600 
    182 H182        5.6897   -9.4836  -43.5435 H         1 UNK         0.0600 
    183 H183        5.1692   -8.4190  -44.8392 H         1 UNK         0.0600 
    184 H184        3.3432   -9.8474  -46.2621 H         1 UNK         0.3000 
    185 H185       -0.2049   -9.7495  -46.6949 H         1 UNK         0.0600 
    186 H186        0.6440   -7.4120  -46.9177 H         1 UNK         0.0600 
    187 H187        2.0914   -7.9999  -47.7267 H         1 UNK         0.0600 
    188 H188        0.5101   -8.1982  -48.4821 H         1 UNK         0.0600 
    189 H189        1.9231  -10.3512  -48.4963 H         1 UNK         0.3000 
    190 H190       -2.4037  -21.6177  -46.8261 H         1 UNK         0.3000 
    191 H191       -4.1624  -22.3307  -48.8374 H         1 UNK         0.0600 
    192 H192       -4.5919  -20.5149  -47.1977 H         1 UNK         0.0600 
    193 H193       -5.9524  -21.6179  -47.2578 H         1 UNK         0.0600 
    194 H194       -4.8221  -21.7019  -45.9176 H         1 UNK         0.0600 
    195 H195       -3.3382  -24.1814  -45.9409 H         1 UNK         0.3000 
    196 H196       -5.2643  -26.3520  -46.6337 H         1 UNK         0.0600 
    197 H197       -4.6877  -27.2039  -44.3632 H         1 UNK         0.0600 
    198 H198       -5.3290  -25.5697  -44.2908 H         1 UNK         0.0600 
    199 H199       -3.5982  -25.8438  -44.1119 H         1 UNK         0.0600 
    200 H200       -1.7831  -25.7842  -45.8323 H         1 UNK         0.3000 
    201 H201       -1.0305  -28.4868  -46.1234 H         1 UNK         0.0600 
    202 H202        0.1676  -26.8383  -44.7022 H         1 UNK         0.0600 
    203 H203        0.7002  -25.9585  -46.1337 H         1 UNK         0.0600 
    204 H204        1.2732  -27.5951  -45.8388 H         1 UNK         0.0600 
    205 H205       -0.9277  -25.8173  -48.4839 H         1 UNK         0.3000 
    206 H206        0.2281  -27.6370  -50.5633 H         1 UNK         0.0600 
    207 H207        1.5287  -25.5385  -50.0761 H         1 UNK         0.0600 
    208 H208        0.8826  -25.5610  -51.7084 H         1 UNK         0.0600 
    209 H209        0.1111  -24.5736  -50.4781 H         1 UNK         0.0600 
    210 H210       -2.6732  -26.7378  -49.3764 H         1 UNK         0.3000 
    211 H211       -4.7685  -26.4734  -50.0109 H         1 UNK         0.0600 
    212 H212       -3.9933  -27.7962  -52.6626 H         1 UNK         0.0600 
    213 H213       -5.6097  -27.6761  -51.9830 H         1 UNK         0.0600 
    214 H214       -4.3978  -28.6590  -51.1787 H         1 UNK         0.0600 
    215 H215       -2.9405  -24.2741  -50.4345 H         1 UNK         0.3000 
    216 H216       -3.4144  -23.0278  -52.9633 H         1 UNK         0.0600 
    217 H217       -2.0220  -21.2598  -52.1008 H         1 UNK         0.0600 
    218 H218       -1.3386  -22.7679  -51.5264 H         1 UNK         0.0600 
    219 H219       -2.2773  -21.7465  -50.4342 H         1 UNK         0.0600 
    220 H220       -5.6534  -23.3333  -50.5505 H         1 UNK         0.3000 
    221 H221       -6.8345  -20.7653  -50.3143 H         1 UNK         0.0600 
    222 H222       -8.0881  -23.5627  -50.1815 H         1 UNK         0.0600 
    223 H223       -7.4179  -22.6598  -48.8262 H         1 UNK         0.0600 
    224 H224       -8.8632  -22.0800  -49.6342 H         1 UNK         0.0600 
    225 H225       -7.0563  -23.2262  -52.8540 H         1 UNK         0.3000 
    226 H226       -9.2290  -22.0736  -54.3383 H         1 UNK         0.0600 
    227 H227       -8.5479  -24.4473  -54.5778 H         1 UNK         0.0600 
    228 H228       -8.4195  -23.6276  -56.1260 H         1 UNK         0.0600 
    229 H229       -6.9668  -23.9628  -55.1900 H         1 UNK         0.0600 
    230 H230       -5.7933  -21.3634  -54.1582 H         1 UNK         0.3000 
    231 H231       -5.8217  -19.5831  -56.5341 H         1 UNK         0.0600 
    232 H232       -3.9067  -21.1648  -56.2300 H         1 UNK         0.0600 
    233 H233       -3.5551  -20.4527  -54.6557 H         1 UNK         0.0600 
    234 H234       -3.3750  -19.4951  -56.1191 H         1 UNK         0.0600 
    235 H235       -6.5672  -19.4429  -53.2686 H         1 UNK         0.3000 
    236 H236       -6.7903  -17.9660  -51.6588 H         1 UNK         0.0600 
    237 H237       -7.2756  -15.6069  -52.1722 H         1 UNK         0.0600 
    238 H238       -6.6024  -15.7695  -53.7877 H         1 UNK         0.0600 
    239 H239       -8.0729  -16.6379  -53.3488 H         1 UNK         0.0600 
    240 H240       -4.2810  -19.0620  -51.9864 H         1 UNK         0.3000 
    241 H241       -2.4455  -16.8938  -51.1208 H         1 UNK         0.0600 
    242 H242       -2.9292  -19.4843  -48.3412 H         1 UNK         0.3800 
    243 H243       -4.1704  -18.9828  -49.4809 H         1 UNK         0.3800 
    244 H244       -2.1446  -18.4526  -53.4599 H         1 UNK         0.0800 
    245 H245       -1.0707  -19.2255  -52.3384 H         1 UNK         0.0800 
    246 H246        1.9202  -17.2407  -53.4011 H         1 UNK         0.0800 
    247 H247        1.0663  -18.7547  -53.5240 H         1 UNK         0.0800 
@<TRIPOS>BOND
     1    1    2 1    
     2    1  127 1    
     3    1  128 1    
     4    1  129 1    
     5    2    3 2    
     6    2    4 am   BACKBONE|DICT|INTERRES
     7    4    5 1    
     8    4  130 1    
     9    5    6 1    
    10    5   65 1    
    11    5  131 1    
    12    6    7 1    
    13    6  132 1    
    14    6  133 1    
    15    7    8 1    
    16    8    9 1    
    17    8  134 1    
    18    8  135 1    
    19    9   10 ar   
    20    9   14 ar   
    21   10   11 ar   
    22   10  136 1    
    23   11   12 ar   
    24   11  126 1    
    25   12   13 ar   
    26   12  137 1    
    27   13   14 ar   
    28   13   15 1    
    29   14  138 1    
    30   15   16 1    
    31   15  139 1    
    32   15  140 1    
    33   16   17 1    
    34   17   18 1    
    35   17  141 1    
    36   17  142 1    
    37   18   19 1    
    38   18   67 1    
    39   18  143 1    
    40   19   20 am   BACKBONE|DICT|INTERRES
    41   19  144 1    
    42   20   21 2    
    43   20   22 1    
    44   22   23 1    
    45   22   24 1    
    46   22  145 1    
    47   23  146 1    
    48   23  147 1    
    49   23  148 1    
    50   24   25 am   BACKBONE|DICT|INTERRES
    51   24  149 1    
    52   25   26 2    
    53   25   27 1    
    54   27   28 1    
    55   27   29 1    
    56   27  150 1    
    57   28  151 1    
    58   28  152 1    
    59   28  153 1    
    60   29   30 am   BACKBONE|DICT|INTERRES
    61   29  154 1    
    62   30   31 2    
    63   30   32 1    
    64   32   33 1    
    65   32   34 1    
    66   32  155 1    
    67   33  156 1    
    68   33  157 1    
    69   33  158 1    
    70   34   35 am   BACKBONE|DICT|INTERRES
    71   34  159 1    
    72   35   36 2    
    73   35   37 1    
    74   37   38 1    
    75   37   39 1    
    76   37  160 1    
    77   38  161 1    
    78   38  162 1    
    79   38  163 1    
    80   39   40 am   BACKBONE|DICT|INTERRES
    81   39  164 1    
    82   40   41 2    
    83   40   42 1    
    84   42   43 1    
    85   42   44 1    
    86   42  165 1    
    87   43  166 1    
    88   43  167 1    
    89   43  168 1    
    90   44   45 am   BACKBONE|DICT|INTERRES
    91   44  169 1    
    92   45   46 2    
    93   45   47 1    
    94   47   48 1    
    95   47   49 1    
    96   47  170 1    
    97   48  171 1    
    98   48  172 1    
    99   48  173 1    
   100   49   50 am   BACKBONE|DICT|INTERRES
   101   49  174 1    
   102   50   51 2    
   103   50   52 1    
   104   52   53 1    
   105   52   54 1    
   106   52  175 1    
   107   53  176 1    
   108   53  177 1    
   109   53  178 1    
   110   54   55 am   BACKBONE|DICT|INTERRES
   111   54  179 1    
   112   55   56 2    
   113   55   57 1    
   114   57   58 1    
   115   57   59 1    
   116   57  180 1    
   117   58  181 1    
   118   58  182 1    
   119   58  183 1    
   120   59   60 am   BACKBONE|DICT|INTERRES
   121   59  184 1    
   122   60   61 2    
   123   60   62 1    
   124   62   63 1    
   125   62   64 1    
   126   62  185 1    
   127   63  186 1    
   128   63  187 1    
   129   63  188 1    
   130   64   65 am   BACKBONE|DICT|INTERRES
   131   64  189 1    
   132   65   66 2    
   133   67   68 2    
   134   67   69 am   BACKBONE|DICT|INTERRES
   135   69   70 1    
   136   69  190 1    
   137   70   71 1    
   138   70   72 1    
   139   70  191 1    
   140   71  192 1    
   141   71  193 1    
   142   71  194 1    
   143   72   73 2    
   144   72   74 am   BACKBONE|DICT|INTERRES
   145   74   75 1    
   146   74  195 1    
   147   75   76 1    
   148   75   77 1    
   149   75  196 1    
   150   76  197 1    
   151   76  198 1    
   152   76  199 1    
   153   77   78 2    
   154   77   79 am   BACKBONE|DICT|INTERRES
   155   79   80 1    
   156   79  200 1    
   157   80   81 1    
   158   80   82 1    
   159   80  201 1    
   160   81  202 1    
   161   81  203 1    
   162   81  204 1    
   163   82   83 2    
   164   82   84 am   BACKBONE|DICT|INTERRES
   165   84   85 1    
   166   84  205 1    
   167   85   86 1    
   168   85   87 1    
   169   85  206 1    
   170   86  207 1    
   171   86  208 1    
   172   86  209 1    
   173   87   88 2    
   174   87   89 am   BACKBONE|DICT|INTERRES
   175   89   90 1    
   176   89  210 1    
   177   90   91 1    
   178   90   92 1    
   179   90  211 1    
   180   91  212 1    
   181   91  213 1    
   182   91  214 1    
   183   92   93 2    
   184   92   94 am   BACKBONE|DICT|INTERRES
   185   94   95 1    
   186   94  215 1    
   187   95   96 1    
   188   95   97 1    
   189   95  216 1    
   190   96  217 1    
   191   96  218 1    
   192   96  219 1    
   193   97   98 2    
   194   97   99 am   BACKBONE|DICT|INTERRES
   195   99  100 1    
   196   99  220 1    
   197  100  101 1    
   198  100  102 1    
   199  100  221 1    
   200  101  222 1    
   201  101  223 1    
   202  101  224 1    
   203  102  103 2    
   204  102  104 am   BACKBONE|DICT|INTERRES
   205  104  105 1    
   206  104  225 1    
   207  105  106 1    
   208  105  107 1    
   209  105  226 1    
   210  106  227 1    
   211  106  228 1    
   212  106  229 1    
   213  107  108 2    
   214  107  109 am   BACKBONE|DICT|INTERRES
   215  109  110 1    
   216  109  230 1    
   217  110  111 1    
   218  110  112 1    
   219  110  231 1    
   220  111  232 1    
   221  111  233 1    
   222  111  234 1    
   223  112  113 2    
   224  112  114 am   BACKBONE|DICT|INTERRES
   225  114  115 1    
   226  114  235 1    
   227  115  116 1    
   228  115  117 1    
   229  115  236 1    
   230  116  237 1    
   231  116  238 1    
   232  116  239 1    
   233  117  118 2    
   234  117  119 am   BACKBONE|DICT|INTERRES
   235  119  120 1    
   236  119  240 1    
   237  120  121 1    
   238  120  124 1    
   239  120  241 1    
   240  121  122 am   BACKBONE|DICT|INTERRES
   241  121  123 2    
   242  122  242 1    
   243  122  243 1    
   244  124  125 1    
   245  124  244 1    
   246  124  245 1    
   247  125  126 1    
   248  126  246 1    
   249  126  247 1    
@<TRIPOS>SUBSTRUCTURE
     1 UNK         1 GROUP             0       ****    0 ROOT    
