@<TRIPOS>MOLECULE
3R540
247   249    1
SMALL
USER_CHARGES


@<TRIPOS>ATOM
      1 CA          4.1048  -16.5791  -42.8962 C.3       0 UNK        -0.1800 
      2 C           2.6249  -16.9257  -42.8097 C.2       0 UNK         0.5000 
      3 O           2.1654  -17.3856  -41.7642 O.2       0 UNK        -0.5000 
      4 N           1.8951  -16.7347  -43.9144 N.am      1 UNK        -0.5000 
      5 CA          0.4575  -16.9760  -44.0688 C.3       1 UNK         0.1400 
      6 C6          0.0089  -16.7204  -45.5284 C.3       23 UNK        -0.0398 
      7 S7          0.2398  -14.9951  -46.1012 S.3       23 UNK        -0.2404 
      8 C8         -1.3513  -14.6810  -46.9254 C.3       23 UNK        -0.0205 
      9 C9         -1.4279  -15.4273  -48.2459 C.ar      23 UNK        -0.0193 
     10 C10        -0.8030  -14.9000  -49.3776 C.ar      23 UNK        -0.1150 
     11 C11        -0.7914  -15.6090  -50.5803 C.ar      23 UNK        -0.0193 
     12 C12        -1.4352  -16.8470  -50.6503 C.ar      23 UNK        -0.1150 
     13 C13        -2.0737  -17.3808  -49.5281 C.ar      23 UNK        -0.0193 
     14 C14        -2.0781  -16.6613  -48.3305 C.ar      23 UNK        -0.1150 
     15 C15        -2.7315  -18.7481  -49.6060 C.3       23 UNK        -0.0205 
     16 S16        -1.4973  -20.0837  -49.7008 S.3       23 UNK        -0.2404 
     17 C17        -0.7857  -20.0904  -48.0152 C.3       23 UNK        -0.0398 
     18 CA         -1.2565  -21.3164  -47.1896 C.3       11 UNK         0.1400 
     19 N          -0.1626  -21.9518  -46.4469 N.am      11 UNK        -0.5000 
     20 C          -0.2137  -23.2050  -45.9671 C.2       10 UNK         0.5000 
     21 O          -1.1926  -23.9361  -46.1069 O.2       10 UNK        -0.5000 
     22 CA          0.9925  -23.7195  -45.1569 C.3       10 UNK         0.1400 
     23 CB          1.9444  -24.5086  -46.0677 C.3       10 UNK        -0.1800 
     24 N           1.7461  -22.6638  -44.4795 N.am      10 UNK        -0.5000 
     25 C           1.2455  -21.8052  -43.5797 C.2       9 UNK         0.5000 
     26 O           0.0870  -21.8479  -43.1683 O.2       9 UNK        -0.5000 
     27 CA          2.1714  -20.6647  -43.1166 C.3       9 UNK         0.1400 
     28 CB          2.8634  -21.0341  -41.7969 C.3       9 UNK        -0.1800 
     29 N           3.1888  -20.2741  -44.1004 N.am      9 UNK        -0.5000 
     30 C           2.9499  -19.8687  -45.3556 C.2       8 UNK         0.5000 
     31 O           1.8225  -19.8096  -45.8557 O.2       8 UNK        -0.5000 
     32 CA          4.1964  -19.5461  -46.1999 C.3       8 UNK         0.1400 
     33 CB          4.9001  -20.8454  -46.6251 C.3       8 UNK        -0.1800 
     34 N           3.8742  -18.7829  -47.4033 N.am      8 UNK        -0.5000 
     35 C           3.4691  -17.5092  -47.4178 C.2       7 UNK         0.5000 
     36 O           3.3729  -16.8007  -46.4099 O.2       7 UNK        -0.5000 
     37 CA          3.1155  -16.9386  -48.7977 C.3       7 UNK         0.1400 
     38 CB          1.8069  -17.5383  -49.3349 C.3       7 UNK        -0.1800 
     39 N           2.9847  -15.4945  -48.6697 N.am      7 UNK        -0.5000 
     40 C           3.4427  -14.5842  -49.5335 C.2       6 UNK         0.5000 
     41 O           3.8773  -14.8607  -50.6522 O.2       6 UNK        -0.5000 
     42 CA          3.4481  -13.1159  -49.0606 C.3       6 UNK         0.1400 
     43 CB          2.3812  -12.2840  -49.7889 C.3       6 UNK        -0.1800 
     44 N           3.2620  -12.9732  -47.6124 N.am      6 UNK        -0.5000 
     45 C           4.2254  -13.1690  -46.6978 C.2       5 UNK         0.5000 
     46 O           5.3780  -13.4884  -46.9914 O.2       5 UNK        -0.5000 
     47 CA          3.8431  -12.9567  -45.2192 C.3       5 UNK         0.1400 
     48 CB          4.9919  -12.3465  -44.3923 C.3       5 UNK        -0.1800 
     49 N           2.6426  -12.1272  -45.1034 N.am      5 UNK        -0.5000 
     50 C           1.7629  -12.1734  -44.0975 C.2       4 UNK         0.5000 
     51 O           1.9276  -12.8524  -43.0845 O.2       4 UNK        -0.5000 
     52 CA          0.4883  -11.3205  -44.2380 C.3       4 UNK         0.1400 
     53 CB          0.2819  -10.7218  -45.6502 C.3       4 UNK        -0.1800 
     54 N          -0.6738  -12.1268  -43.8662 N.am      4 UNK        -0.5000 
     55 C          -1.8496  -11.6253  -43.4624 C.2       3 UNK         0.5000 
     56 O          -2.0492  -10.4218  -43.2913 O.2       3 UNK        -0.5000 
     57 CA         -3.0098  -12.6068  -43.2242 C.3       3 UNK         0.1400 
     58 CB         -3.8700  -12.7204  -44.4989 C.3       3 UNK        -0.1800 
     59 N          -2.5392  -13.9192  -42.7797 N.am      3 UNK        -0.5000 
     60 C          -3.2944  -14.8976  -42.2687 C.2       2 UNK         0.5000 
     61 O          -4.5207  -14.8254  -42.1699 O.2       2 UNK        -0.5000 
     62 CA         -2.5512  -16.1629  -41.7742 C.3       2 UNK         0.1400 
     63 CB         -3.5122  -17.2835  -41.3362 C.3       2 UNK        -0.1800 
     64 N          -1.6016  -16.7172  -42.7469 N.am      2 UNK        -0.5000 
     65 C          -0.4102  -16.1900  -43.0577 C.2       1 UNK         0.5000 
     66 O          -0.0207  -15.1117  -42.6059 O.2       1 UNK        -0.5000 
     67 C          -2.4893  -21.0103  -46.3079 C.2       11 UNK         0.5000 
     68 O          -3.5777  -20.8137  -46.8462 O.2       11 UNK        -0.5000 
     69 N          -2.3341  -21.0333  -44.9742 N.am      12 UNK        -0.5000 
     70 CA         -3.4470  -20.9467  -44.0256 C.3       12 UNK         0.1400 
     71 CB         -2.8983  -20.6815  -42.6164 C.3       12 UNK        -0.1800 
     72 C          -4.3375  -22.2073  -44.0263 C.2       12 UNK         0.5000 
     73 O          -5.5117  -22.1134  -43.6658 O.2       12 UNK        -0.5000 
     74 N          -3.7886  -23.3581  -44.4459 N.am      13 UNK        -0.5000 
     75 CA         -4.4955  -24.6337  -44.5556 C.3       13 UNK         0.1400 
     76 CB         -3.4847  -25.7874  -44.4269 C.3       13 UNK        -0.1800 
     77 C          -5.3039  -24.6963  -45.8654 C.2       13 UNK         0.5000 
     78 O          -4.9494  -25.4429  -46.7800 O.2       13 UNK        -0.5000 
     79 N          -6.3620  -23.8762  -45.9373 N.am      14 UNK        -0.5000 
     80 CA         -7.3299  -23.7681  -47.0350 C.3       14 UNK         0.1400 
     81 CB         -8.2164  -25.0302  -47.0874 C.3       14 UNK        -0.1800 
     82 C          -6.6616  -23.4541  -48.3888 C.2       14 UNK         0.5000 
     83 O          -6.8656  -24.1802  -49.3631 O.2       14 UNK        -0.5000 
     84 N          -5.8321  -22.3998  -48.4069 N.am      15 UNK        -0.5000 
     85 CA         -5.0314  -21.9458  -49.5508 C.3       15 UNK         0.1400 
     86 CB         -5.9403  -21.4491  -50.6944 C.3       15 UNK        -0.1800 
     87 C          -3.9973  -22.9991  -50.0018 C.2       15 UNK         0.5000 
     88 O          -3.7711  -23.1644  -51.2015 O.2       15 UNK        -0.5000 
     89 N          -3.4170  -23.7074  -49.0200 N.am      16 UNK        -0.5000 
     90 CA         -2.5036  -24.8466  -49.1595 C.3       16 UNK         0.1400 
     91 CB         -1.1463  -24.4118  -49.7550 C.3       16 UNK        -0.1800 
     92 C          -3.1690  -26.0080  -49.9220 C.2       16 UNK         0.5000 
     93 O          -2.6424  -26.4734  -50.9328 O.2       16 UNK        -0.5000 
     94 N          -4.3471  -26.4177  -49.4293 N.am      17 UNK        -0.5000 
     95 CA         -5.2503  -27.4172  -50.0083 C.3       17 UNK         0.1400 
     96 CB         -4.6339  -28.8284  -49.9151 C.3       17 UNK        -0.1800 
     97 C          -5.7019  -27.0399  -51.4360 C.2       17 UNK         0.5000 
     98 O          -5.6167  -27.8562  -52.3557 O.2       17 UNK        -0.5000 
     99 N          -6.1644  -25.7902  -51.5811 N.am      18 UNK        -0.5000 
    100 CA        -6.6586  -25.1530  -52.8050 C.3       18 UNK         0.1400 
    101 CB        -7.9519  -25.8384  -53.2940 C.3       18 UNK        -0.1800 
    102 C         -5.6001  -24.9998  -53.9200 C.2       18 UNK         0.5000 
    103 O         -5.9623  -24.9341  -55.0964 O.2       18 UNK        -0.5000 
    104 N         -4.3157  -24.9175  -53.5453 N.am      19 UNK        -0.5000 
    105 CA        -3.2121  -24.6182  -54.4598 C.3       19 UNK         0.1400 
    106 CB        -1.8792  -25.0324  -53.8221 C.3       19 UNK        -0.1800 
    107 C         -3.1870  -23.1307  -54.8560 C.2       19 UNK         0.5000 
    108 O         -2.9343  -22.8267  -56.0219 O.2       19 UNK        -0.5000 
    109 N         -3.4835  -22.2531  -53.8830 N.am      20 UNK        -0.5000 
    110 CA        -3.6386  -20.8004  -53.9932 C.3       20 UNK         0.1400 
    111 CB        -4.9277  -20.4597  -54.7672 C.3       20 UNK        -0.1800 
    112 C         -2.3950  -20.1012  -54.5732 C.2       20 UNK         0.5000 
    113 O         -2.3940  -19.6919  -55.7360 O.2       20 UNK        -0.5000 
    114 N         -1.3580  -19.9587  -53.7355 N.am      21 UNK        -0.5000 
    115 CA        -0.0607  -19.3567  -54.0745 C.3       21 UNK         0.1400 
    116 CB         0.8555  -19.4330  -52.8419 C.3       21 UNK        -0.1800 
    117 C         -0.1248  -17.9070  -54.6077 C.2       21 UNK         0.5000 
    118 O          0.7830  -17.4884  -55.3267 O.2       21 UNK        -0.5000 
    119 N         -1.1926  -17.1797  -54.2569 N.am      22 UNK        -0.5000 
    120 CA        -1.5103  -15.8303  -54.7518 C.3       22 UNK         0.1400 
    121 C         -2.3491  -15.8286  -56.0668 C.2       22 UNK         0.5000 
    122 N         -2.7402  -16.9673  -56.6274 N.am      22 UNK        -0.7600 
    123 O         -2.6394  -14.7643  -56.6063 O.2       22 UNK        -0.5000 
    124 C124       -2.1683  -14.9698  -53.6315 C.3       23 UNK        -0.0398 
    125 S125       -0.9735  -13.8928  -52.7684 S.3       23 UNK        -0.2404 
    126 C126       -0.0132  -15.0721  -51.7712 C.3       23 UNK        -0.0205 
    127 H127        4.3902  -16.2642  -43.9002 H         1 UNK         0.0600 
    128 H128        4.7095  -17.4454  -42.6282 H         1 UNK         0.0600 
    129 H129        4.3397  -15.7684  -42.2066 H         1 UNK         0.0600 
    130 H130        2.3624  -16.4173  -44.7579 H         1 UNK         0.3000 
    131 H131        0.3031  -18.0362  -43.8629 H         1 UNK         0.0600 
    132 H132        0.5665  -17.3723  -46.2016 H         1 UNK         0.0800 
    133 H133       -1.0342  -17.0139  -45.6446 H         1 UNK         0.0800 
    134 H134       -1.4566  -13.6094  -47.1011 H         1 UNK         0.0800 
    135 H135       -2.1730  -14.9704  -46.2692 H         1 UNK         0.0800 
    136 H136       -0.2963  -13.9509  -49.3095 H         1 UNK         0.1150 
    137 H137       -1.4133  -17.4157  -51.5661 H         1 UNK         0.1150 
    138 H138       -2.5644  -17.0750  -47.4589 H         1 UNK         0.1150 
    139 H139       -3.3883  -18.9122  -48.7509 H         1 UNK         0.0800 
    140 H140       -3.3665  -18.7903  -50.4918 H         1 UNK         0.0800 
    141 H141       -0.9815  -19.1494  -47.5005 H         1 UNK         0.0800 
    142 H142        0.2963  -20.1208  -48.1490 H         1 UNK         0.0800 
    143 H143       -1.6000  -22.0700  -47.8960 H         1 UNK         0.0600 
    144 H144        0.6497  -21.3729  -46.2550 H         1 UNK         0.3000 
    145 H145        0.6068  -24.3954  -44.3910 H         1 UNK         0.0600 
    146 H146        2.3852  -23.8722  -46.8363 H         1 UNK         0.0600 
    147 H147        2.7565  -24.9581  -45.4961 H         1 UNK         0.0600 
    148 H148        1.4183  -25.3189  -46.5745 H         1 UNK         0.0600 
    149 H149        2.7076  -22.5456  -44.7610 H         1 UNK         0.3000 
    150 H150        1.5368  -19.7974  -42.9343 H         1 UNK         0.0600 
    151 H151        2.1322  -21.3116  -41.0364 H         1 UNK         0.0600 
    152 H152        3.4335  -20.1923  -41.4030 H         1 UNK         0.0600 
    153 H153        3.5453  -21.8763  -41.9209 H         1 UNK         0.0600 
    154 H154        4.1459  -20.3177  -43.7813 H         1 UNK         0.3000 
    155 H155        4.8812  -18.9531  -45.5899 H         1 UNK         0.0600 
    156 H156        5.2147  -21.4292  -45.7592 H         1 UNK         0.0600 
    157 H157        5.7955  -20.6349  -47.2106 H         1 UNK         0.0600 
    158 H158        4.2471  -21.4783  -47.2278 H         1 UNK         0.0600 
    159 H159        3.8948  -19.2961  -48.2718 H         1 UNK         0.3000 
    160 H160        3.9337  -17.1819  -49.4788 H         1 UNK         0.0600 
    161 H161        1.5843  -17.1523  -50.3285 H         1 UNK         0.0600 
    162 H162        0.9625  -17.3087  -48.6847 H         1 UNK         0.0600 
    163 H163        1.8697  -18.6231  -49.4219 H         1 UNK         0.0600 
    164 H164        2.6997  -15.1913  -47.7477 H         1 UNK         0.3000 
    165 H165        4.4239  -12.7047  -49.3282 H         1 UNK         0.0600 
    166 H166        2.4486  -12.4123  -50.8701 H         1 UNK         0.0600 
    167 H167        2.5075  -11.2212  -49.5818 H         1 UNK         0.0600 
    168 H168        1.3740  -12.5610  -49.4859 H         1 UNK         0.0600 
    169 H169        2.3233  -12.7796  -47.2983 H         1 UNK         0.3000 
    170 H170        3.6211  -13.9499  -44.8227 H         1 UNK         0.0600 
    171 H171        5.2668  -11.3577  -44.7609 H         1 UNK         0.0600 
    172 H172        4.7165  -12.2481  -43.3423 H         1 UNK         0.0600 
    173 H173        5.8830  -12.9741  -44.4306 H         1 UNK         0.0600 
    174 H174        2.4682  -11.4943  -45.8709 H         1 UNK         0.3000 
    175 H175        0.5919  -10.5002  -43.5249 H         1 UNK         0.0600 
    176 H176        1.1079  -10.0689  -45.9342 H         1 UNK         0.0600 
    177 H177        0.1864  -11.5005  -46.4082 H         1 UNK         0.0600 
    178 H178       -0.6211  -10.1130  -45.6932 H         1 UNK         0.0600 
    179 H179       -0.5354  -13.1259  -43.9382 H         1 UNK         0.3000 
    180 H180       -3.6258  -12.1865  -42.4266 H         1 UNK         0.0600 
    181 H181       -3.3108  -13.1631  -45.3214 H         1 UNK         0.0600 
    182 H182       -4.2076  -11.7369  -44.8285 H         1 UNK         0.0600 
    183 H183       -4.7627  -13.3235  -44.3369 H         1 UNK         0.0600 
    184 H184       -1.5326  -14.0644  -42.7531 H         1 UNK         0.3000 
    185 H185       -1.9877  -15.8589  -40.8894 H         1 UNK         0.0600 
    186 H186       -2.9670  -18.1199  -40.8989 H         1 UNK         0.0600 
    187 H187       -4.2115  -16.9301  -40.5773 H         1 UNK         0.0600 
    188 H188       -4.0986  -17.6622  -42.1743 H         1 UNK         0.0600 
    189 H189       -1.8849  -17.5791  -43.1875 H         1 UNK         0.3000 
    190 H190       -1.4227  -21.2398  -44.5815 H         1 UNK         0.3000 
    191 H191       -4.0716  -20.0975  -44.3113 H         1 UNK         0.0600 
    192 H192       -2.3613  -21.5458  -42.2244 H         1 UNK         0.0600 
    193 H193       -2.2163  -19.8319  -42.6062 H         1 UNK         0.0600 
    194 H194       -3.7086  -20.4613  -41.9204 H         1 UNK         0.0600 
    195 H195       -2.8340  -23.3530  -44.7838 H         1 UNK         0.3000 
    196 H196       -5.2006  -24.7254  -43.7266 H         1 UNK         0.0600 
    197 H197       -2.9231  -25.7190  -43.4952 H         1 UNK         0.0600 
    198 H198       -2.7697  -25.7998  -45.2491 H         1 UNK         0.0600 
    199 H199       -3.9959  -26.7508  -44.4286 H         1 UNK         0.0600 
    200 H200       -6.5152  -23.2560  -45.1493 H         1 UNK         0.3000 
    201 H201       -7.9747  -22.9190  -46.8040 H         1 UNK         0.0600 
    202 H202       -8.9991  -24.9270  -47.8398 H         1 UNK         0.0600 
    203 H203       -8.7082  -25.2061  -46.1308 H         1 UNK         0.0600 
    204 H204       -7.6395  -25.9217  -47.3363 H         1 UNK         0.0600 
    205 H205       -5.6850  -21.8840  -47.5489 H         1 UNK         0.3000 
    206 H206       -4.4567  -21.0869  -49.2107 H         1 UNK         0.0600 
    207 H207       -6.4958  -22.2620  -51.1597 H         1 UNK         0.0600 
    208 H208       -5.3573  -20.9650  -51.4750 H         1 UNK         0.0600 
    209 H209       -6.6612  -20.7160  -50.3329 H         1 UNK         0.0600 
    210 H210       -3.7248  -23.5222  -48.0764 H         1 UNK         0.3000 
    211 H211       -2.3139  -25.2222  -48.1533 H         1 UNK         0.0600 
    212 H212       -0.6225  -23.7263  -49.0916 H         1 UNK         0.0600 
    213 H213       -0.4895  -25.2699  -49.9012 H         1 UNK         0.0600 
    214 H214       -1.2587  -23.9170  -50.7182 H         1 UNK         0.0600 
    215 H215       -4.6772  -25.9772  -48.5728 H         1 UNK         0.3000 
    216 H216       -6.1496  -27.4088  -49.3904 H         1 UNK         0.0600 
    217 H217       -5.3459  -29.5868  -50.2426 H         1 UNK         0.0600 
    218 H218       -3.7438  -28.9257  -50.5373 H         1 UNK         0.0600 
    219 H219       -4.3539  -29.0681  -48.8893 H         1 UNK         0.0600 
    220 H220       -6.2291  -25.2101  -50.7457 H         1 UNK         0.3000 
    221 H221       -6.9257  -24.1363  -52.5173 H         1 UNK         0.0600 
    222 H222       -7.7607  -26.8438  -53.6700 H         1 UNK         0.0600 
    223 H223       -8.6855  -25.9133  -52.4913 H         1 UNK         0.0600 
    224 H224       -8.4158  -25.2710  -54.1015 H         1 UNK         0.0600 
    225 H225       -4.0937  -24.9406  -52.5575 H         1 UNK         0.3000 
    226 H226       -3.3449  -25.2074  -55.3697 H         1 UNK         0.0600 
    227 H227       -1.8671  -26.0979  -53.5920 H         1 UNK         0.0600 
    228 H228       -1.0447  -24.8343  -54.4957 H         1 UNK         0.0600 
    229 H229       -1.6922  -24.4877  -52.8976 H         1 UNK         0.0600 
    230 H230       -3.6295  -22.6328  -52.9487 H         1 UNK         0.3000 
    231 H231       -3.7572  -20.4213  -52.9783 H         1 UNK         0.0600 
    232 H232       -5.0823  -19.3810  -54.8126 H         1 UNK         0.0600 
    233 H233       -5.8023  -20.8940  -54.2826 H         1 UNK         0.0600 
    234 H234       -4.8968  -20.8293  -55.7928 H         1 UNK         0.0600 
    235 H235       -1.4384  -20.3350  -52.8014 H         1 UNK         0.3000 
    236 H236        0.3808  -19.9669  -54.8649 H         1 UNK         0.0600 
    237 H237        0.9998  -20.4643  -52.5195 H         1 UNK         0.0600 
    238 H238        1.8420  -19.0214  -53.0596 H         1 UNK         0.0600 
    239 H239        0.4479  -18.8743  -51.9993 H         1 UNK         0.0600 
    240 H240       -1.9043  -17.6256  -53.6998 H         1 UNK         0.3000 
    241 H241       -0.5757  -15.3465  -55.0417 H         1 UNK         0.0600 
    242 H242       -3.2734  -16.9319  -57.4815 H         1 UNK         0.3800 
    243 H243       -2.5038  -17.8730  -56.2308 H         1 UNK         0.3800 
    244 H244       -2.9287  -14.2980  -54.0335 H         1 UNK         0.0800 
    245 H245       -2.6988  -15.5879  -52.9066 H         1 UNK         0.0800 
    246 H246        0.8840  -14.5662  -51.4123 H         1 UNK         0.0800 
    247 H247        0.3464  -15.8889  -52.3961 H         1 UNK         0.0800 
@<TRIPOS>BOND
     1    1    2 1    
     2    1  127 1    
     3    1  128 1    
     4    1  129 1    
     5    2    3 2    
     6    2    4 am   BACKBONE|DICT|INTERRES
     7    4    5 1    
     8    4  130 1    
     9    5    6 1    
    10    5   65 1    
    11    5  131 1    
    12    6    7 1    
    13    6  132 1    
    14    6  133 1    
    15    7    8 1    
    16    8    9 1    
    17    8  134 1    
    18    8  135 1    
    19    9   10 ar   
    20    9   14 ar   
    21   10   11 ar   
    22   10  136 1    
    23   11   12 ar   
    24   11  126 1    
    25   12   13 ar   
    26   12  137 1    
    27   13   14 ar   
    28   13   15 1    
    29   14  138 1    
    30   15   16 1    
    31   15  139 1    
    32   15  140 1    
    33   16   17 1    
    34   17   18 1    
    35   17  141 1    
    36   17  142 1    
    37   18   19 1    
    38   18   67 1    
    39   18  143 1    
    40   19   20 am   BACKBONE|DICT|INTERRES
    41   19  144 1    
    42   20   21 2    
    43   20   22 1    
    44   22   23 1    
    45   22   24 1    
    46   22  145 1    
    47   23  146 1    
    48   23  147 1    
    49   23  148 1    
    50   24   25 am   BACKBONE|DICT|INTERRES
    51   24  149 1    
    52   25   26 2    
    53   25   27 1    
    54   27   28 1    
    55   27   29 1    
    56   27  150 1    
    57   28  151 1    
    58   28  152 1    
    59   28  153 1    
    60   29   30 am   BACKBONE|DICT|INTERRES
    61   29  154 1    
    62   30   31 2    
    63   30   32 1    
    64   32   33 1    
    65   32   34 1    
    66   32  155 1    
    67   33  156 1    
    68   33  157 1    
    69   33  158 1    
    70   34   35 am   BACKBONE|DICT|INTERRES
    71   34  159 1    
    72   35   36 2    
    73   35   37 1    
    74   37   38 1    
    75   37   39 1    
    76   37  160 1    
    77   38  161 1    
    78   38  162 1    
    79   38  163 1    
    80   39   40 am   BACKBONE|DICT|INTERRES
    81   39  164 1    
    82   40   41 2    
    83   40   42 1    
    84   42   43 1    
    85   42   44 1    
    86   42  165 1    
    87   43  166 1    
    88   43  167 1    
    89   43  168 1    
    90   44   45 am   BACKBONE|DICT|INTERRES
    91   44  169 1    
    92   45   46 2    
    93   45   47 1    
    94   47   48 1    
    95   47   49 1    
    96   47  170 1    
    97   48  171 1    
    98   48  172 1    
    99   48  173 1    
   100   49   50 am   BACKBONE|DICT|INTERRES
   101   49  174 1    
   102   50   51 2    
   103   50   52 1    
   104   52   53 1    
   105   52   54 1    
   106   52  175 1    
   107   53  176 1    
   108   53  177 1    
   109   53  178 1    
   110   54   55 am   BACKBONE|DICT|INTERRES
   111   54  179 1    
   112   55   56 2    
   113   55   57 1    
   114   57   58 1    
   115   57   59 1    
   116   57  180 1    
   117   58  181 1    
   118   58  182 1    
   119   58  183 1    
   120   59   60 am   BACKBONE|DICT|INTERRES
   121   59  184 1    
   122   60   61 2    
   123   60   62 1    
   124   62   63 1    
   125   62   64 1    
   126   62  185 1    
   127   63  186 1    
   128   63  187 1    
   129   63  188 1    
   130   64   65 am   BACKBONE|DICT|INTERRES
   131   64  189 1    
   132   65   66 2    
   133   67   68 2    
   134   67   69 am   BACKBONE|DICT|INTERRES
   135   69   70 1    
   136   69  190 1    
   137   70   71 1    
   138   70   72 1    
   139   70  191 1    
   140   71  192 1    
   141   71  193 1    
   142   71  194 1    
   143   72   73 2    
   144   72   74 am   BACKBONE|DICT|INTERRES
   145   74   75 1    
   146   74  195 1    
   147   75   76 1    
   148   75   77 1    
   149   75  196 1    
   150   76  197 1    
   151   76  198 1    
   152   76  199 1    
   153   77   78 2    
   154   77   79 am   BACKBONE|DICT|INTERRES
   155   79   80 1    
   156   79  200 1    
   157   80   81 1    
   158   80   82 1    
   159   80  201 1    
   160   81  202 1    
   161   81  203 1    
   162   81  204 1    
   163   82   83 2    
   164   82   84 am   BACKBONE|DICT|INTERRES
   165   84   85 1    
   166   84  205 1    
   167   85   86 1    
   168   85   87 1    
   169   85  206 1    
   170   86  207 1    
   171   86  208 1    
   172   86  209 1    
   173   87   88 2    
   174   87   89 am   BACKBONE|DICT|INTERRES
   175   89   90 1    
   176   89  210 1    
   177   90   91 1    
   178   90   92 1    
   179   90  211 1    
   180   91  212 1    
   181   91  213 1    
   182   91  214 1    
   183   92   93 2    
   184   92   94 am   BACKBONE|DICT|INTERRES
   185   94   95 1    
   186   94  215 1    
   187   95   96 1    
   188   95   97 1    
   189   95  216 1    
   190   96  217 1    
   191   96  218 1    
   192   96  219 1    
   193   97   98 2    
   194   97   99 am   BACKBONE|DICT|INTERRES
   195   99  100 1    
   196   99  220 1    
   197  100  101 1    
   198  100  102 1    
   199  100  221 1    
   200  101  222 1    
   201  101  223 1    
   202  101  224 1    
   203  102  103 2    
   204  102  104 am   BACKBONE|DICT|INTERRES
   205  104  105 1    
   206  104  225 1    
   207  105  106 1    
   208  105  107 1    
   209  105  226 1    
   210  106  227 1    
   211  106  228 1    
   212  106  229 1    
   213  107  108 2    
   214  107  109 am   BACKBONE|DICT|INTERRES
   215  109  110 1    
   216  109  230 1    
   217  110  111 1    
   218  110  112 1    
   219  110  231 1    
   220  111  232 1    
   221  111  233 1    
   222  111  234 1    
   223  112  113 2    
   224  112  114 am   BACKBONE|DICT|INTERRES
   225  114  115 1    
   226  114  235 1    
   227  115  116 1    
   228  115  117 1    
   229  115  236 1    
   230  116  237 1    
   231  116  238 1    
   232  116  239 1    
   233  117  118 2    
   234  117  119 am   BACKBONE|DICT|INTERRES
   235  119  120 1    
   236  119  240 1    
   237  120  121 1    
   238  120  124 1    
   239  120  241 1    
   240  121  122 am   BACKBONE|DICT|INTERRES
   241  121  123 2    
   242  122  242 1    
   243  122  243 1    
   244  124  125 1    
   245  124  244 1    
   246  124  245 1    
   247  125  126 1    
   248  126  246 1    
   249  126  247 1    
@<TRIPOS>SUBSTRUCTURE
     1 UNK         1 GROUP             0       ****    0 ROOT    
