@<TRIPOS>MOLECULE
3R540
247   249    1
SMALL
USER_CHARGES


@<TRIPOS>ATOM
      1 CA         -0.0577  -11.4203  -48.0092 C.3       0 UNK        -0.1800 
      2 C          -0.9568  -12.4758  -48.6519 C.2       0 UNK         0.5000 
      3 O          -1.9944  -12.1209  -49.2065 O.2       0 UNK        -0.5000 
      4 N          -0.6195  -13.7744  -48.6112 N.am      1 UNK        -0.5000 
      5 CA          0.5540  -14.3786  -47.9614 C.3       1 UNK         0.1400 
      6 C6          0.7406  -15.8536  -48.4001 C.3       23 UNK        -0.0398 
      7 S7          2.4862  -16.3970  -48.3759 S.3       23 UNK        -0.2404 
      8 C8          2.7590  -16.9651  -50.0852 C.3       23 UNK        -0.0205 
      9 C9          1.9533  -18.2175  -50.3950 C.ar      23 UNK        -0.0193 
     10 C10         0.7208  -18.1109  -51.0414 C.ar      23 UNK        -0.1150 
     11 C11        -0.0508  -19.2441  -51.2958 C.ar      23 UNK        -0.0193 
     12 C12         0.4300  -20.5005  -50.9132 C.ar      23 UNK        -0.1150 
     13 C13         1.6668  -20.6287  -50.2687 C.ar      23 UNK        -0.0193 
     14 C14         2.4294  -19.4793  -50.0253 C.ar      23 UNK        -0.1150 
     15 C15         2.1588  -22.0222  -49.8756 C.3       23 UNK        -0.0205 
     16 S16         3.1144  -22.1321  -48.3157 S.3       23 UNK        -0.2404 
     17 C17         2.0620  -21.3126  -47.0673 C.3       23 UNK        -0.0398 
     18 CA          0.8972  -22.1896  -46.5344 C.3       11 UNK         0.1400 
     19 N           0.5478  -21.8686  -45.1450 N.am      11 UNK        -0.5000 
     20 C          -0.4099  -22.4726  -44.4232 C.2       10 UNK         0.5000 
     21 O          -1.0655  -23.4334  -44.8194 O.2       10 UNK        -0.5000 
     22 CA         -0.7382  -21.8791  -43.0431 C.3       10 UNK         0.1400 
     23 CB          0.1412  -22.5159  -41.9578 C.3       10 UNK        -0.1800 
     24 N          -0.6193  -20.4219  -42.9988 N.am      10 UNK        -0.5000 
     25 C          -1.3474  -19.5679  -43.7341 C.2       9 UNK         0.5000 
     26 O          -2.2272  -19.9192  -44.5219 O.2       9 UNK        -0.5000 
     27 CA         -0.9917  -18.0745  -43.6039 C.3       9 UNK         0.1400 
     28 CB         -1.5842  -17.4789  -42.3175 C.3       9 UNK        -0.1800 
     29 N           0.4535  -17.8456  -43.6286 N.am      9 UNK        -0.5000 
     30 C           1.2444  -18.1197  -44.6769 C.2       8 UNK         0.5000 
     31 O           0.8231  -18.5164  -45.7640 O.2       8 UNK        -0.5000 
     32 CA          2.7614  -18.0020  -44.4425 C.3       8 UNK         0.1400 
     33 CB          3.2442  -16.5532  -44.5720 C.3       8 UNK        -0.1800 
     34 N           3.1416  -18.5071  -43.1253 N.am      8 UNK        -0.5000 
     35 C           3.1634  -19.8028  -42.7885 C.2       7 UNK         0.5000 
     36 O           2.8870  -20.7152  -43.5668 O.2       7 UNK        -0.5000 
     37 CA          3.5238  -20.1249  -41.3261 C.3       7 UNK         0.1400 
     38 CB          5.0469  -20.2240  -41.1551 C.3       7 UNK        -0.1800 
     39 N           2.9935  -19.1383  -40.3817 N.am      7 UNK        -0.5000 
     40 C           1.6884  -18.9543  -40.1374 C.2       6 UNK         0.5000 
     41 O           0.7971  -19.6111  -40.6707 O.2       6 UNK        -0.5000 
     42 CA          1.3104  -17.8183  -39.1721 C.3       6 UNK         0.1400 
     43 CB          1.3268  -18.3159  -37.7193 C.3       6 UNK        -0.1800 
     44 N           2.1738  -16.6424  -39.2938 N.am      6 UNK        -0.5000 
     45 C           2.2683  -15.8748  -40.3869 C.2       5 UNK         0.5000 
     46 O           1.6688  -16.1026  -41.4412 O.2       5 UNK        -0.5000 
     47 CA          3.1983  -14.6529  -40.2815 C.3       5 UNK         0.1400 
     48 CB          4.2698  -14.6747  -41.3827 C.3       5 UNK        -0.1800 
     49 N           2.4512  -13.4017  -40.3700 N.am      5 UNK        -0.5000 
     50 C           1.5537  -12.9562  -39.4827 C.2       4 UNK         0.5000 
     51 O           1.2904  -13.5450  -38.4334 O.2       4 UNK        -0.5000 
     52 CA          0.8110  -11.6419  -39.8075 C.3       4 UNK         0.1400 
     53 CB          1.4711  -10.4430  -39.0998 C.3       4 UNK        -0.1800 
     54 N           0.6086  -11.3735  -41.2396 N.am      4 UNK        -0.5000 
     55 C           1.5076  -11.0783  -42.1882 C.2       3 UNK         0.5000 
     56 O           2.7207  -11.0094  -41.9859 O.2       3 UNK        -0.5000 
     57 CA          0.9466  -10.9094  -43.6135 C.3       3 UNK         0.1400 
     58 CB          1.9938  -10.3712  -44.6049 C.3       3 UNK        -0.1800 
     59 N           0.4395  -12.1835  -44.1180 N.am      3 UNK        -0.5000 
     60 C          -0.7307  -12.7516  -43.8094 C.2       2 UNK         0.5000 
     61 O          -1.5535  -12.2167  -43.0632 O.2       2 UNK        -0.5000 
     62 CA         -1.0217  -14.1413  -44.4264 C.3       2 UNK         0.1400 
     63 CB         -2.4868  -14.5690  -44.2205 C.3       2 UNK        -0.1800 
     64 N          -0.7162  -14.2367  -45.8579 N.am      2 UNK        -0.5000 
     65 C           0.4998  -14.2610  -46.4228 C.2       1 UNK         0.5000 
     66 O           1.5444  -14.1413  -45.7857 O.2       1 UNK        -0.5000 
     67 C          -0.3335  -22.0777  -47.4530 C.2       11 UNK         0.5000 
     68 O          -0.7041  -23.0551  -48.1037 O.2       11 UNK        -0.5000 
     69 N          -0.9672  -20.8963  -47.4460 N.am      12 UNK        -0.5000 
     70 CA         -2.1576  -20.5971  -48.2376 C.3       12 UNK         0.1400 
     71 CB         -2.4831  -19.1007  -48.1279 C.3       12 UNK        -0.1800 
     72 C          -3.3662  -21.4658  -47.8507 C.2       12 UNK         0.5000 
     73 O          -4.0862  -21.9215  -48.7392 O.2       12 UNK        -0.5000 
     74 N          -3.5450  -21.7104  -46.5457 N.am      13 UNK        -0.5000 
     75 CA         -4.5947  -22.5733  -46.0069 C.3       13 UNK         0.1400 
     76 CB         -4.6402  -22.4391  -44.4774 C.3       13 UNK        -0.1800 
     77 C          -4.4321  -24.0457  -46.4294 C.2       13 UNK         0.5000 
     78 O          -5.3780  -24.6301  -46.9592 O.2       13 UNK        -0.5000 
     79 N          -3.2374  -24.6134  -46.2095 N.am      14 UNK        -0.5000 
     80 CA         -2.9175  -26.0134  -46.4992 C.3       14 UNK         0.1400 
     81 CB         -1.5672  -26.3781  -45.8644 C.3       14 UNK        -0.1800 
     82 C          -2.9037  -26.3350  -48.0023 C.2       14 UNK         0.5000 
     83 O          -3.3347  -27.4204  -48.3933 O.2       14 UNK        -0.5000 
     84 N          -2.4299  -25.3847  -48.8186 N.am      15 UNK        -0.5000 
     85 CA         -2.3719  -25.5056  -50.2753 C.3       15 UNK         0.1400 
     86 CB         -1.2618  -24.5827  -50.8026 C.3       15 UNK        -0.1800 
     87 C          -3.7155  -25.2041  -50.9712 C.2       15 UNK         0.5000 
     88 O          -3.7802  -25.3075  -52.1966 O.2       15 UNK        -0.5000 
     89 N          -4.7454  -24.8026  -50.2076 N.am      16 UNK        -0.5000 
     90 CA         -6.0841  -24.4048  -50.6632 C.3       16 UNK         0.1400 
     91 CB         -6.8519  -25.6182  -51.2273 C.3       16 UNK        -0.1800 
     92 C          -6.0188  -23.2210  -51.6489 C.2       16 UNK         0.5000 
     93 O          -6.5284  -23.3021  -52.7694 O.2       16 UNK        -0.5000 
     94 N          -5.3086  -22.1660  -51.2246 N.am      17 UNK        -0.5000 
     95 CA         -4.9403  -20.9789  -51.9988 C.3       17 UNK         0.1400 
     96 CB         -6.1826  -20.1181  -52.3088 C.3       17 UNK        -0.1800 
     97 C          -4.1070  -21.3324  -53.2487 C.2       17 UNK         0.5000 
     98 O          -4.2834  -20.7137  -54.2959 O.2       17 UNK        -0.5000 
     99 N          -3.2290  -22.3387  -53.1103 N.am      18 UNK        -0.5000 
    100 CA        -2.4051  -22.9512  -54.1601 C.3       18 UNK         0.1400 
    101 CB        -1.3246  -21.9686  -54.6535 C.3       18 UNK        -0.1800 
    102 C         -3.2682  -23.5340  -55.2957 C.2       18 UNK         0.5000 
    103 O         -3.0337  -23.2413  -56.4673 O.2       18 UNK        -0.5000 
    104 N         -4.2976  -24.3038  -54.9122 N.am      19 UNK        -0.5000 
    105 CA        -5.3810  -24.8078  -55.7656 C.3       19 UNK         0.1400 
    106 CB        -4.8612  -25.9058  -56.7160 C.3       19 UNK        -0.1800 
    107 C         -6.1149  -23.6617  -56.4989 C.2       19 UNK         0.5000 
    108 O         -6.3468  -23.7350  -57.7067 O.2       19 UNK        -0.5000 
    109 N         -6.4196  -22.6032  -55.7358 N.am      20 UNK        -0.5000 
    110 CA        -7.0224  -21.3274  -56.1360 C.3       20 UNK         0.1400 
    111 CB        -8.4185  -21.5409  -56.7563 C.3       20 UNK        -0.1800 
    112 C         -6.1345  -20.4082  -57.0069 C.2       20 UNK         0.5000 
    113 O         -6.6033  -19.3346  -57.3907 O.2       20 UNK        -0.5000 
    114 N         -4.8725  -20.7790  -57.2785 N.am      21 UNK        -0.5000 
    115 CA        -3.9279  -19.9704  -58.0603 C.3       21 UNK         0.1400 
    116 CB        -2.6876  -20.8009  -58.4178 C.3       21 UNK        -0.1800 
    117 C         -3.5142  -18.6517  -57.3752 C.2       21 UNK         0.5000 
    118 O         -3.1854  -17.6935  -58.0765 O.2       21 UNK        -0.5000 
    119 N         -3.5666  -18.6053  -56.0371 N.am      22 UNK        -0.5000 
    120 CA        -3.4099  -17.3761  -55.2413 C.3       22 UNK         0.1400 
    121 C         -4.6632  -16.4465  -55.2636 C.2       22 UNK         0.5000 
    122 N         -5.7880  -16.8311  -55.8579 N.am      22 UNK        -0.7600 
    123 O         -4.6116  -15.3392  -54.7353 O.2       22 UNK        -0.5000 
    124 C124       -2.9731  -17.6678  -53.7804 C.3       23 UNK        -0.0398 
    125 S125       -1.3415  -18.4742  -53.6428 S.3       23 UNK        -0.2404 
    126 C126       -1.4248  -19.0870  -51.9283 C.3       23 UNK        -0.0205 
    127 H127       -0.2276  -11.3822  -46.9336 H         1 UNK         0.0600 
    128 H128       -0.2843  -10.4344  -48.4155 H         1 UNK         0.0600 
    129 H129        0.9987  -11.6105  -48.1934 H         1 UNK         0.0600 
    130 H130       -1.2429  -14.4299  -49.0602 H         1 UNK         0.3000 
    131 H131        1.4275  -13.8199  -48.3018 H         1 UNK         0.0600 
    132 H132        0.1458  -16.5402  -47.7940 H         1 UNK         0.0800 
    133 H133        0.3676  -15.9671  -49.4154 H         1 UNK         0.0800 
    134 H134        3.8212  -17.1721  -50.2229 H         1 UNK         0.0800 
    135 H135        2.5121  -16.1628  -50.7824 H         1 UNK         0.0800 
    136 H136        0.3486  -17.1417  -51.3413 H         1 UNK         0.1150 
    137 H137       -0.1656  -21.3816  -51.1066 H         1 UNK         0.1150 
    138 H138        3.3877  -19.5602  -49.5326 H         1 UNK         0.1150 
    139 H139        1.3201  -22.7159  -49.8136 H         1 UNK         0.0800 
    140 H140        2.7897  -22.3941  -50.6837 H         1 UNK         0.0800 
    141 H141        2.7332  -21.0673  -46.2437 H         1 UNK         0.0800 
    142 H142        1.7202  -20.3475  -47.4433 H         1 UNK         0.0800 
    143 H143        1.2177  -23.2335  -46.5339 H         1 UNK         0.0600 
    144 H144        1.0709  -21.1192  -44.7089 H         1 UNK         0.3000 
    145 H145       -1.7766  -22.1261  -42.8167 H         1 UNK         0.0600 
    146 H146       -0.1445  -22.1698  -40.9645 H         1 UNK         0.0600 
    147 H147        1.1952  -22.2832  -42.1054 H         1 UNK         0.0600 
    148 H148        0.0417  -23.6020  -41.9630 H         1 UNK         0.0600 
    149 H149        0.0389  -20.0463  -42.3206 H         1 UNK         0.3000 
    150 H150       -1.4237  -17.5534  -44.4598 H         1 UNK         0.0600 
    151 H151       -2.6736  -17.5279  -42.3338 H         1 UNK         0.0600 
    152 H152       -1.3047  -16.4328  -42.1960 H         1 UNK         0.0600 
    153 H153       -1.2463  -18.0134  -41.4299 H         1 UNK         0.0600 
    154 H154        0.8776  -17.4862  -42.7802 H         1 UNK         0.3000 
    155 H155        3.2706  -18.5992  -45.2021 H         1 UNK         0.0600 
    156 H156        3.1455  -16.2058  -45.5979 H         1 UNK         0.0600 
    157 H157        4.2957  -16.4553  -44.3021 H         1 UNK         0.0600 
    158 H158        2.6678  -15.8764  -43.9413 H         1 UNK         0.0600 
    159 H159        3.3330  -17.8181  -42.4135 H         1 UNK         0.3000 
    160 H160        3.0900  -21.0966  -41.0818 H         1 UNK         0.0600 
    161 H161        5.5396  -19.2731  -41.3618 H         1 UNK         0.0600 
    162 H162        5.4678  -20.9665  -41.8345 H         1 UNK         0.0600 
    163 H163        5.3110  -20.5263  -40.1416 H         1 UNK         0.0600 
    164 H164        3.6626  -18.5563  -39.8996 H         1 UNK         0.3000 
    165 H165        0.2917  -17.5079  -39.4135 H         1 UNK         0.0600 
    166 H166        0.9738  -17.5447  -37.0345 H         1 UNK         0.0600 
    167 H167        0.6742  -19.1814  -37.5960 H         1 UNK         0.0600 
    168 H168        2.3284  -18.6123  -37.4050 H         1 UNK         0.0600 
    169 H169        2.6814  -16.3716  -38.4638 H         1 UNK         0.3000 
    170 H170        3.7073  -14.6764  -39.3158 H         1 UNK         0.0600 
    171 H171        3.8333  -14.5366  -42.3720 H         1 UNK         0.0600 
    172 H172        5.0020  -13.8813  -41.2317 H         1 UNK         0.0600 
    173 H173        4.8121  -15.6211  -41.3881 H         1 UNK         0.0600 
    174 H174        2.6331  -12.8157  -41.1768 H         1 UNK         0.3000 
    175 H175       -0.1918  -11.7513  -39.3918 H         1 UNK         0.0600 
    176 H176        2.4969  -10.2850  -39.4336 H         1 UNK         0.0600 
    177 H177        0.9136   -9.5235  -39.2779 H         1 UNK         0.0600 
    178 H178        1.5029  -10.5994  -38.0208 H         1 UNK         0.0600 
    179 H179       -0.3471  -11.4921  -41.5613 H         1 UNK         0.3000 
    180 H180        0.1277  -10.1885  -43.5663 H         1 UNK         0.0600 
    181 H181        2.4081   -9.4230  -44.2601 H         1 UNK         0.0600 
    182 H182        1.5533  -10.1935  -45.5858 H         1 UNK         0.0600 
    183 H183        2.8239  -11.0674  -44.7331 H         1 UNK         0.0600 
    184 H184        1.0722  -12.7266  -44.7008 H         1 UNK         0.3000 
    185 H185       -0.3846  -14.8557  -43.9008 H         1 UNK         0.0600 
    186 H186       -3.1773  -13.8702  -44.6945 H         1 UNK         0.0600 
    187 H187       -2.6783  -15.5572  -44.6372 H         1 UNK         0.0600 
    188 H188       -2.7406  -14.6116  -43.1606 H         1 UNK         0.0600 
    189 H189       -1.5158  -14.2812  -46.4728 H         1 UNK         0.3000 
    190 H190       -0.6155  -20.1565  -46.8512 H         1 UNK         0.3000 
    191 H191       -1.9253  -20.8165  -49.2809 H         1 UNK         0.0600 
    192 H192       -1.6535  -18.4919  -48.4886 H         1 UNK         0.0600 
    193 H193       -2.6903  -18.8081  -47.0978 H         1 UNK         0.0600 
    194 H194       -3.3586  -18.8461  -48.7266 H         1 UNK         0.0600 
    195 H195       -2.9271  -21.2624  -45.8763 H         1 UNK         0.3000 
    196 H196       -5.5490  -22.2186  -46.4021 H         1 UNK         0.0600 
    197 H197       -4.8021  -21.4039  -44.1764 H         1 UNK         0.0600 
    198 H198       -3.7148  -22.7807  -44.0149 H         1 UNK         0.0600 
    199 H199       -5.4541  -23.0320  -44.0584 H         1 UNK         0.0600 
    200 H200       -2.4960  -24.0666  -45.7751 H         1 UNK         0.3000 
    201 H201       -3.6872  -26.6340  -46.0357 H         1 UNK         0.0600 
    202 H202       -1.5849  -26.2257  -44.7851 H         1 UNK         0.0600 
    203 H203       -0.7557  -25.7755  -46.2750 H         1 UNK         0.0600 
    204 H204       -1.3211  -27.4259  -46.0410 H         1 UNK         0.0600 
    205 H205       -2.0486  -24.5316  -48.4191 H         1 UNK         0.3000 
    206 H206       -2.0997  -26.5317  -50.5308 H         1 UNK         0.0600 
    207 H207       -0.3241  -24.7523  -50.2730 H         1 UNK         0.0600 
    208 H208       -1.5231  -23.5297  -50.6914 H         1 UNK         0.0600 
    209 H209       -1.0647  -24.7728  -51.8565 H         1 UNK         0.0600 
    210 H210       -4.5874  -24.7244  -49.2112 H         1 UNK         0.3000 
    211 H211       -6.6212  -24.0497  -49.7824 H         1 UNK         0.0600 
    212 H212       -6.3888  -26.0099  -52.1335 H         1 UNK         0.0600 
    213 H213       -7.8781  -25.3467  -51.4772 H         1 UNK         0.0600 
    214 H214       -6.8979  -26.4271  -50.4982 H         1 UNK         0.0600 
    215 H215       -4.9178  -22.1994  -50.2823 H         1 UNK         0.3000 
    216 H216       -4.2872  -20.3864  -51.3575 H         1 UNK         0.0600 
    217 H217       -5.9163  -19.2102  -52.8504 H         1 UNK         0.0600 
    218 H218       -6.6801  -19.8095  -51.3895 H         1 UNK         0.0600 
    219 H219       -6.9115  -20.6571  -52.9121 H         1 UNK         0.0600 
    220 H220       -3.2139  -22.8142  -52.2209 H         1 UNK         0.3000 
    221 H221       -1.8926  -23.8003  -53.7114 H         1 UNK         0.0600 
    222 H222       -1.7612  -21.0962  -55.1390 H         1 UNK         0.0600 
    223 H223       -0.7060  -21.6171  -53.8279 H         1 UNK         0.0600 
    224 H224       -0.6615  -22.4461  -55.3754 H         1 UNK         0.0600 
    225 H225       -4.3814  -24.5164  -53.9220 H         1 UNK         0.3000 
    226 H226       -6.1123  -25.2647  -55.0971 H         1 UNK         0.0600 
    227 H227       -4.3657  -26.7029  -56.1618 H         1 UNK         0.0600 
    228 H228       -5.6817  -26.3593  -57.2731 H         1 UNK         0.0600 
    229 H229       -4.1509  -25.5114  -57.4433 H         1 UNK         0.0600 
    230 H230       -6.1941  -22.6742  -54.7487 H         1 UNK         0.3000 
    231 H231       -7.1693  -20.7782  -55.2067 H         1 UNK         0.0600 
    232 H232       -8.9375  -20.5908  -56.8878 H         1 UNK         0.0600 
    233 H233       -9.0439  -22.1633  -56.1161 H         1 UNK         0.0600 
    234 H234       -8.3607  -22.0155  -57.7359 H         1 UNK         0.0600 
    235 H235       -4.5197  -21.6486  -56.8972 H         1 UNK         0.3000 
    236 H236       -4.4269  -19.7055  -58.9947 H         1 UNK         0.0600 
    237 H237       -2.0913  -21.0324  -57.5356 H         1 UNK         0.0600 
    238 H238       -2.9623  -21.7404  -58.8977 H         1 UNK         0.0600 
    239 H239       -2.0433  -20.2575  -59.1099 H         1 UNK         0.0600 
    240 H240       -3.8403  -19.4394  -55.5203 H         1 UNK         0.3000 
    241 H241       -2.6104  -16.7902  -55.6985 H         1 UNK         0.0600 
    242 H242       -6.5779  -16.2056  -55.8611 H         1 UNK         0.3800 
    243 H243       -5.8613  -17.7240  -56.3306 H         1 UNK         0.3800 
    244 H244       -3.7222  -18.2804  -53.2800 H         1 UNK         0.0800 
    245 H245       -2.9121  -16.7404  -53.2079 H         1 UNK         0.0800 
    246 H246       -2.0088  -18.3973  -51.3171 H         1 UNK         0.0800 
    247 H247       -1.9529  -20.0379  -51.9154 H         1 UNK         0.0800 
@<TRIPOS>BOND
     1    1    2 1    
     2    1  127 1    
     3    1  128 1    
     4    1  129 1    
     5    2    3 2    
     6    2    4 am   BACKBONE|DICT|INTERRES
     7    4    5 1    
     8    4  130 1    
     9    5    6 1    
    10    5   65 1    
    11    5  131 1    
    12    6    7 1    
    13    6  132 1    
    14    6  133 1    
    15    7    8 1    
    16    8    9 1    
    17    8  134 1    
    18    8  135 1    
    19    9   10 ar   
    20    9   14 ar   
    21   10   11 ar   
    22   10  136 1    
    23   11   12 ar   
    24   11  126 1    
    25   12   13 ar   
    26   12  137 1    
    27   13   14 ar   
    28   13   15 1    
    29   14  138 1    
    30   15   16 1    
    31   15  139 1    
    32   15  140 1    
    33   16   17 1    
    34   17   18 1    
    35   17  141 1    
    36   17  142 1    
    37   18   19 1    
    38   18   67 1    
    39   18  143 1    
    40   19   20 am   BACKBONE|DICT|INTERRES
    41   19  144 1    
    42   20   21 2    
    43   20   22 1    
    44   22   23 1    
    45   22   24 1    
    46   22  145 1    
    47   23  146 1    
    48   23  147 1    
    49   23  148 1    
    50   24   25 am   BACKBONE|DICT|INTERRES
    51   24  149 1    
    52   25   26 2    
    53   25   27 1    
    54   27   28 1    
    55   27   29 1    
    56   27  150 1    
    57   28  151 1    
    58   28  152 1    
    59   28  153 1    
    60   29   30 am   BACKBONE|DICT|INTERRES
    61   29  154 1    
    62   30   31 2    
    63   30   32 1    
    64   32   33 1    
    65   32   34 1    
    66   32  155 1    
    67   33  156 1    
    68   33  157 1    
    69   33  158 1    
    70   34   35 am   BACKBONE|DICT|INTERRES
    71   34  159 1    
    72   35   36 2    
    73   35   37 1    
    74   37   38 1    
    75   37   39 1    
    76   37  160 1    
    77   38  161 1    
    78   38  162 1    
    79   38  163 1    
    80   39   40 am   BACKBONE|DICT|INTERRES
    81   39  164 1    
    82   40   41 2    
    83   40   42 1    
    84   42   43 1    
    85   42   44 1    
    86   42  165 1    
    87   43  166 1    
    88   43  167 1    
    89   43  168 1    
    90   44   45 am   BACKBONE|DICT|INTERRES
    91   44  169 1    
    92   45   46 2    
    93   45   47 1    
    94   47   48 1    
    95   47   49 1    
    96   47  170 1    
    97   48  171 1    
    98   48  172 1    
    99   48  173 1    
   100   49   50 am   BACKBONE|DICT|INTERRES
   101   49  174 1    
   102   50   51 2    
   103   50   52 1    
   104   52   53 1    
   105   52   54 1    
   106   52  175 1    
   107   53  176 1    
   108   53  177 1    
   109   53  178 1    
   110   54   55 am   BACKBONE|DICT|INTERRES
   111   54  179 1    
   112   55   56 2    
   113   55   57 1    
   114   57   58 1    
   115   57   59 1    
   116   57  180 1    
   117   58  181 1    
   118   58  182 1    
   119   58  183 1    
   120   59   60 am   BACKBONE|DICT|INTERRES
   121   59  184 1    
   122   60   61 2    
   123   60   62 1    
   124   62   63 1    
   125   62   64 1    
   126   62  185 1    
   127   63  186 1    
   128   63  187 1    
   129   63  188 1    
   130   64   65 am   BACKBONE|DICT|INTERRES
   131   64  189 1    
   132   65   66 2    
   133   67   68 2    
   134   67   69 am   BACKBONE|DICT|INTERRES
   135   69   70 1    
   136   69  190 1    
   137   70   71 1    
   138   70   72 1    
   139   70  191 1    
   140   71  192 1    
   141   71  193 1    
   142   71  194 1    
   143   72   73 2    
   144   72   74 am   BACKBONE|DICT|INTERRES
   145   74   75 1    
   146   74  195 1    
   147   75   76 1    
   148   75   77 1    
   149   75  196 1    
   150   76  197 1    
   151   76  198 1    
   152   76  199 1    
   153   77   78 2    
   154   77   79 am   BACKBONE|DICT|INTERRES
   155   79   80 1    
   156   79  200 1    
   157   80   81 1    
   158   80   82 1    
   159   80  201 1    
   160   81  202 1    
   161   81  203 1    
   162   81  204 1    
   163   82   83 2    
   164   82   84 am   BACKBONE|DICT|INTERRES
   165   84   85 1    
   166   84  205 1    
   167   85   86 1    
   168   85   87 1    
   169   85  206 1    
   170   86  207 1    
   171   86  208 1    
   172   86  209 1    
   173   87   88 2    
   174   87   89 am   BACKBONE|DICT|INTERRES
   175   89   90 1    
   176   89  210 1    
   177   90   91 1    
   178   90   92 1    
   179   90  211 1    
   180   91  212 1    
   181   91  213 1    
   182   91  214 1    
   183   92   93 2    
   184   92   94 am   BACKBONE|DICT|INTERRES
   185   94   95 1    
   186   94  215 1    
   187   95   96 1    
   188   95   97 1    
   189   95  216 1    
   190   96  217 1    
   191   96  218 1    
   192   96  219 1    
   193   97   98 2    
   194   97   99 am   BACKBONE|DICT|INTERRES
   195   99  100 1    
   196   99  220 1    
   197  100  101 1    
   198  100  102 1    
   199  100  221 1    
   200  101  222 1    
   201  101  223 1    
   202  101  224 1    
   203  102  103 2    
   204  102  104 am   BACKBONE|DICT|INTERRES
   205  104  105 1    
   206  104  225 1    
   207  105  106 1    
   208  105  107 1    
   209  105  226 1    
   210  106  227 1    
   211  106  228 1    
   212  106  229 1    
   213  107  108 2    
   214  107  109 am   BACKBONE|DICT|INTERRES
   215  109  110 1    
   216  109  230 1    
   217  110  111 1    
   218  110  112 1    
   219  110  231 1    
   220  111  232 1    
   221  111  233 1    
   222  111  234 1    
   223  112  113 2    
   224  112  114 am   BACKBONE|DICT|INTERRES
   225  114  115 1    
   226  114  235 1    
   227  115  116 1    
   228  115  117 1    
   229  115  236 1    
   230  116  237 1    
   231  116  238 1    
   232  116  239 1    
   233  117  118 2    
   234  117  119 am   BACKBONE|DICT|INTERRES
   235  119  120 1    
   236  119  240 1    
   237  120  121 1    
   238  120  124 1    
   239  120  241 1    
   240  121  122 am   BACKBONE|DICT|INTERRES
   241  121  123 2    
   242  122  242 1    
   243  122  243 1    
   244  124  125 1    
   245  124  244 1    
   246  124  245 1    
   247  125  126 1    
   248  126  246 1    
   249  126  247 1    
@<TRIPOS>SUBSTRUCTURE
     1 UNK         1 GROUP             0       ****    0 ROOT    
