@<TRIPOS>MOLECULE
3R540
247   249    1
SMALL
USER_CHARGES


@<TRIPOS>ATOM
      1 CA          5.5060  -16.9948  -46.6715 C.3       0 UNK        -0.1800 
      2 C           4.3351  -16.1557  -47.1616 C.2       0 UNK         0.5000 
      3 O           3.4085  -15.9013  -46.3941 O.2       0 UNK        -0.5000 
      4 N           4.3891  -15.7206  -48.4291 N.am      1 UNK        -0.5000 
      5 CA          3.3145  -15.0488  -49.1776 C.3       1 UNK         0.1400 
      6 C6          3.7426  -14.6821  -50.6247 C.3       23 UNK        -0.0398 
      7 S7          4.5345  -16.0431  -51.5490 S.3       23 UNK        -0.2404 
      8 C8          3.1237  -16.7316  -52.4707 C.3       23 UNK        -0.0205 
      9 C9          2.1253  -17.4016  -51.5409 C.ar      23 UNK        -0.0193 
     10 C10         0.8465  -16.8642  -51.3615 C.ar      23 UNK        -0.1150 
     11 C11        -0.0597  -17.4729  -50.4880 C.ar      23 UNK        -0.0193 
     12 C12         0.3202  -18.6276  -49.8000 C.ar      23 UNK        -0.1150 
     13 C13         1.5973  -19.1690  -49.9662 C.ar      23 UNK        -0.0193 
     14 C14         2.4928  -18.5558  -50.8438 C.ar      23 UNK        -0.1150 
     15 C15         2.0040  -20.4161  -49.2006 C.3       23 UNK        -0.0205 
     16 S16         2.1618  -20.0765  -47.4186 S.3       23 UNK        -0.2404 
     17 C17         2.5529  -21.7349  -46.7711 C.3       23 UNK        -0.0398 
     18 CA          1.3526  -22.5609  -46.2430 C.3       11 UNK         0.1400 
     19 N           0.7066  -22.0095  -45.0473 N.am      11 UNK        -0.5000 
     20 C          -0.0789  -22.7516  -44.2495 C.2       10 UNK         0.5000 
     21 O          -0.3083  -23.9468  -44.4427 O.2       10 UNK        -0.5000 
     22 CA         -0.7527  -22.0519  -43.0589 C.3       10 UNK         0.1400 
     23 CB          0.2504  -21.8218  -41.9187 C.3       10 UNK        -0.1800 
     24 N          -1.4027  -20.7949  -43.4256 N.am      10 UNK        -0.5000 
     25 C          -2.4294  -20.6920  -44.2819 C.2       9 UNK         0.5000 
     26 O          -2.9364  -21.6528  -44.8600 O.2       9 UNK        -0.5000 
     27 CA         -2.9660  -19.2771  -44.5640 C.3       9 UNK         0.1400 
     28 CB         -3.8950  -18.8107  -43.4336 C.3       9 UNK        -0.1800 
     29 N          -1.8983  -18.2981  -44.7658 N.am      9 UNK        -0.5000 
     30 C          -1.0162  -18.3475  -45.7749 C.2       8 UNK         0.5000 
     31 O          -1.0542  -19.1943  -46.6659 O.2       8 UNK        -0.5000 
     32 CA          0.1239  -17.3127  -45.7541 C.3       8 UNK         0.1400 
     33 CB         -0.3541  -15.9464  -46.2675 C.3       8 UNK        -0.1800 
     34 N           0.7051  -17.1567  -44.4221 N.am      8 UNK        -0.5000 
     35 C           1.3190  -18.1309  -43.7350 C.2       7 UNK         0.5000 
     36 O           1.4959  -19.2749  -44.1557 O.2       7 UNK        -0.5000 
     37 CA          1.7526  -17.7798  -42.3028 C.3       7 UNK         0.1400 
     38 CB          3.0471  -16.9513  -42.3052 C.3       7 UNK        -0.1800 
     39 N           0.7003  -17.0683  -41.5734 N.am      7 UNK        -0.5000 
     40 C          -0.4660  -17.6187  -41.2040 C.2       6 UNK         0.5000 
     41 O          -0.7654  -18.7916  -41.4179 O.2       6 UNK        -0.5000 
     42 CA         -1.4844  -16.6996  -40.5066 C.3       6 UNK         0.1400 
     43 CB         -1.1839  -16.6016  -39.0036 C.3       6 UNK        -0.1800 
     44 N          -1.5177  -15.3565  -41.0824 N.am      6 UNK        -0.5000 
     45 C          -1.9415  -15.0680  -42.3213 C.2       5 UNK         0.5000 
     46 O          -2.3881  -15.9028  -43.1072 O.2       5 UNK        -0.5000 
     47 CA         -1.7738  -13.6047  -42.7723 C.3       5 UNK         0.1400 
     48 CB         -2.9533  -12.7468  -42.2910 C.3       5 UNK        -0.1800 
     49 N          -0.5141  -13.0181  -42.3022 N.am      5 UNK        -0.5000 
     50 C           0.6928  -13.4674  -42.6664 C.2       4 UNK         0.5000 
     51 O           0.8625  -14.3953  -43.4632 O.2       4 UNK        -0.5000 
     52 CA          1.9101  -12.8185  -41.9975 C.3       4 UNK         0.1400 
     53 CB          2.1548  -13.4413  -40.6086 C.3       4 UNK        -0.1800 
     54 N           3.0417  -13.0491  -42.8837 N.am      4 UNK        -0.5000 
     55 C           4.2798  -12.5578  -42.7859 C.2       3 UNK         0.5000 
     56 O           4.6778  -11.8499  -41.8603 O.2       3 UNK        -0.5000 
     57 CA          5.2170  -12.8899  -43.9616 C.3       3 UNK         0.1400 
     58 CB          5.8322  -14.2874  -43.7927 C.3       3 UNK        -0.1800 
     59 N           4.5229  -12.8157  -45.2514 N.am      3 UNK        -0.5000 
     60 C           4.1048  -11.6710  -45.8143 C.2       2 UNK         0.5000 
     61 O           4.3224  -10.5602  -45.3280 O.2       2 UNK        -0.5000 
     62 CA          3.3207  -11.7824  -47.1346 C.3       2 UNK         0.1400 
     63 CB          3.5671  -10.5889  -48.0769 C.3       2 UNK        -0.1800 
     64 N           3.6374  -13.0256  -47.8349 N.am      2 UNK        -0.5000 
     65 C           2.7536  -13.7860  -48.4914 C.2       1 UNK         0.5000 
     66 O           1.5538  -13.5243  -48.5847 O.2       1 UNK        -0.5000 
     67 C           0.3310  -22.9210  -47.3403 C.2       11 UNK         0.5000 
     68 O           0.5009  -23.9516  -47.9911 O.2       11 UNK        -0.5000 
     69 N          -0.7294  -22.1114  -47.5001 N.am      12 UNK        -0.5000 
     70 CA         -1.8322  -22.3925  -48.4204 C.3       12 UNK         0.1400 
     71 CB         -2.7908  -21.1970  -48.5048 C.3       12 UNK        -0.1800 
     72 C          -2.5976  -23.6713  -48.0454 C.2       12 UNK         0.5000 
     73 O          -2.8697  -24.4862  -48.9255 O.2       12 UNK        -0.5000 
     74 N          -2.8895  -23.8476  -46.7493 N.am      13 UNK        -0.5000 
     75 CA         -3.5251  -25.0448  -46.1996 C.3       13 UNK         0.1400 
     76 CB         -3.8756  -24.8143  -44.7220 C.3       13 UNK        -0.1800 
     77 C          -2.6601  -26.3068  -46.3674 C.2       13 UNK         0.5000 
     78 O          -3.1883  -27.3524  -46.7460 O.2       13 UNK        -0.5000 
     79 N          -1.3482  -26.1800  -46.1197 N.am      14 UNK        -0.5000 
     80 CA         -0.3643  -27.2511  -46.2917 C.3       14 UNK         0.1400 
     81 CB          0.9797  -26.8150  -45.6890 C.3       14 UNK        -0.1800 
     82 C          -0.1893  -27.6776  -47.7618 C.2       14 UNK         0.5000 
     83 O          -0.0940  -28.8734  -48.0406 O.2       14 UNK        -0.5000 
     84 N          -0.1687  -26.6971  -48.6744 N.am      15 UNK        -0.5000 
     85 CA         -0.0620  -26.9052  -50.1199 C.3       15 UNK         0.1400 
     86 CB          0.3987  -25.5918  -50.7725 C.3       15 UNK        -0.1800 
     87 C          -1.3719  -27.3853  -50.7760 C.2       15 UNK         0.5000 
     88 O          -1.3263  -27.8747  -51.9053 O.2       15 UNK        -0.5000 
     89 N          -2.5053  -27.2039  -50.0806 N.am      16 UNK        -0.5000 
     90 CA         -3.8831  -27.3546  -50.5648 C.3       16 UNK         0.1400 
     91 CB         -4.1994  -28.8231  -50.9164 C.3       16 UNK        -0.1800 
     92 C          -4.1925  -26.3628  -51.7086 C.2       16 UNK         0.5000 
     93 O          -4.8068  -26.7286  -52.7130 O.2       16 UNK        -0.5000 
     94 N          -3.7224  -25.1241  -51.5288 N.am      17 UNK        -0.5000 
     95 CA         -3.8384  -24.0059  -52.4574 C.3       17 UNK         0.1400 
     96 CB         -2.4567  -23.3306  -52.5604 C.3       17 UNK        -0.1800 
     97 C          -4.9328  -23.0250  -51.9900 C.2       17 UNK         0.5000 
     98 O          -5.7560  -23.3701  -51.1390 O.2       17 UNK        -0.5000 
     99 N          -4.9251  -21.8179  -52.5754 N.am      18 UNK        -0.5000 
    100 CA        -5.8403  -20.6970  -52.3193 C.3       18 UNK         0.1400 
    101 CB        -5.7104  -20.1815  -50.8709 C.3       18 UNK        -0.1800 
    102 C         -7.3018  -20.9705  -52.7380 C.2       18 UNK         0.5000 
    103 O         -8.2258  -20.3651  -52.1930 O.2       18 UNK        -0.5000 
    104 N         -7.4890  -21.8588  -53.7250 N.am      19 UNK        -0.5000 
    105 CA        -8.7905  -22.1706  -54.3235 C.3       19 UNK         0.1400 
    106 CB        -8.6827  -23.4928  -55.0984 C.3       19 UNK        -0.1800 
    107 C         -9.3015  -21.0433  -55.2429 C.2       19 UNK         0.5000 
    108 O        -10.5119  -20.8439  -55.3511 O.2       19 UNK        -0.5000 
    109 N         -8.3662  -20.3235  -55.8734 N.am      20 UNK        -0.5000 
    110 CA        -8.6028  -19.1745  -56.7452 C.3       20 UNK         0.1400 
    111 CB        -8.9803  -19.6514  -58.1621 C.3       20 UNK        -0.1800 
    112 C         -7.3642  -18.2600  -56.7188 C.2       20 UNK         0.5000 
    113 O         -6.9136  -17.7863  -57.7633 O.2       20 UNK        -0.5000 
    114 N         -6.8099  -18.0609  -55.5181 N.am      21 UNK        -0.5000 
    115 CA        -5.6045  -17.2870  -55.2394 C.3       21 UNK         0.1400 
    116 CB        -4.3567  -18.1282  -55.5747 C.3       21 UNK        -0.1800 
    117 C         -5.6188  -16.8733  -53.7599 C.2       21 UNK         0.5000 
    118 O         -6.4659  -17.3554  -53.0024 O.2       21 UNK        -0.5000 
    119 N         -4.6683  -16.0116  -53.3783 N.am      22 UNK        -0.5000 
    120 CA        -4.4797  -15.4720  -52.0183 C.3       22 UNK         0.1400 
    121 C         -5.6333  -14.5213  -51.5627 C.2       22 UNK         0.5000 
    122 N         -5.6767  -14.1196  -50.2985 N.am      22 UNK        -0.7600 
    123 O         -6.4704  -14.0915  -52.3543 O.2       22 UNK        -0.5000 
    124 C124       -4.1358  -16.5746  -50.9707 C.3       23 UNK        -0.0398 
    125 S125       -2.6617  -17.5555  -51.4240 S.3       23 UNK        -0.2404 
    126 C126       -1.4378  -16.8720  -50.2660 C.3       23 UNK        -0.0205 
    127 H127        5.9633  -16.5350  -45.7965 H         1 UNK         0.0600 
    128 H128        6.2735  -17.1081  -47.4374 H         1 UNK         0.0600 
    129 H129        5.1567  -17.9886  -46.3905 H         1 UNK         0.0600 
    130 H130        5.1899  -15.9712  -48.9920 H         1 UNK         0.3000 
    131 H131        2.4926  -15.7645  -49.2327 H         1 UNK         0.0600 
    132 H132        2.8844  -14.3203  -51.1941 H         1 UNK         0.0800 
    133 H133        4.4576  -13.8572  -50.6093 H         1 UNK         0.0800 
    134 H134        2.6497  -15.9446  -53.0594 H         1 UNK         0.0800 
    135 H135        3.4937  -17.4682  -53.1852 H         1 UNK         0.0800 
    136 H136        0.5578  -15.9682  -51.8928 H         1 UNK         0.1150 
    137 H137       -0.3720  -19.1006  -49.1202 H         1 UNK         0.1150 
    138 H138        3.4844  -18.9655  -50.9764 H         1 UNK         0.1150 
    139 H139        1.2573  -21.1899  -49.3757 H         1 UNK         0.0800 
    140 H140        2.9505  -20.8080  -49.5759 H         1 UNK         0.0800 
    141 H141        3.2735  -21.6032  -45.9630 H         1 UNK         0.0800 
    142 H142        3.0839  -22.2997  -47.5392 H         1 UNK         0.0800 
    143 H143        1.7875  -23.5132  -45.9311 H         1 UNK         0.0600 
    144 H144        0.8662  -21.0268  -44.8387 H         1 UNK         0.3000 
    145 H145       -1.5298  -22.7223  -42.6859 H         1 UNK         0.0600 
    146 H146       -0.2492  -21.4468  -41.0255 H         1 UNK         0.0600 
    147 H147        0.7496  -22.7516  -41.6434 H         1 UNK         0.0600 
    148 H148        1.0222  -21.1044  -42.1971 H         1 UNK         0.0600 
    149 H149       -1.0671  -19.9601  -42.9546 H         1 UNK         0.3000 
    150 H150       -3.5519  -19.3233  -45.4842 H         1 UNK         0.0600 
    151 H151       -4.7046  -19.5239  -43.2739 H         1 UNK         0.0600 
    152 H152       -4.3508  -17.8492  -43.6704 H         1 UNK         0.0600 
    153 H153       -3.3598  -18.7036  -42.4899 H         1 UNK         0.0600 
    154 H154       -1.8374  -17.5420  -44.0911 H         1 UNK         0.3000 
    155 H155        0.9128  -17.6619  -46.4215 H         1 UNK         0.0600 
    156 H156       -1.1293  -15.5227  -45.6285 H         1 UNK         0.0600 
    157 H157       -0.7614  -16.0284  -47.2750 H         1 UNK         0.0600 
    158 H158        0.4711  -15.2345  -46.3094 H         1 UNK         0.0600 
    159 H159        0.6424  -16.2312  -44.0079 H         1 UNK         0.3000 
    160 H160        1.9538  -18.7154  -41.7765 H         1 UNK         0.0600 
    161 H161        2.9158  -15.9944  -42.8092 H         1 UNK         0.0600 
    162 H162        3.8462  -17.4827  -42.8235 H         1 UNK         0.0600 
    163 H163        3.3933  -16.7542  -41.2907 H         1 UNK         0.0600 
    164 H164        0.8469  -16.0858  -41.4041 H         1 UNK         0.3000 
    165 H165       -2.4739  -17.1453  -40.6287 H         1 UNK         0.0600 
    166 H166       -1.9445  -16.0160  -38.4869 H         1 UNK         0.0600 
    167 H167       -1.1694  -17.5908  -38.5439 H         1 UNK         0.0600 
    168 H168       -0.2154  -16.1371  -38.8140 H         1 UNK         0.0600 
    169 H169       -1.1681  -14.6049  -40.5071 H         1 UNK         0.3000 
    170 H170       -1.7657  -13.5935  -43.8644 H         1 UNK         0.0600 
    171 H171       -3.9015  -13.1568  -42.6415 H         1 UNK         0.0600 
    172 H172       -2.9997  -12.6963  -41.2025 H         1 UNK         0.0600 
    173 H173       -2.8808  -11.7280  -42.6720 H         1 UNK         0.0600 
    174 H174       -0.5840  -12.2536  -41.6458 H         1 UNK         0.3000 
    175 H175        1.7406  -11.7441  -41.9064 H         1 UNK         0.0600 
    176 H176        2.3826  -14.5049  -40.6775 H         1 UNK         0.0600 
    177 H177        2.9845  -12.9578  -40.0936 H         1 UNK         0.0600 
    178 H178        1.2787  -13.3329  -39.9683 H         1 UNK         0.0600 
    179 H179        2.8014  -13.6221  -43.6840 H         1 UNK         0.3000 
    180 H180        6.0282  -12.1586  -43.9606 H         1 UNK         0.0600 
    181 H181        5.0763  -15.0717  -43.8464 H         1 UNK         0.0600 
    182 H182        6.3342  -14.3800  -42.8287 H         1 UNK         0.0600 
    183 H183        6.5762  -14.4828  -44.5648 H         1 UNK         0.0600 
    184 H184        4.2615  -13.6920  -45.6828 H         1 UNK         0.3000 
    185 H185        2.2664  -11.7809  -46.8501 H         1 UNK         0.0600 
    186 H186        3.2868   -9.6468  -47.6043 H         1 UNK         0.0600 
    187 H187        4.6168  -10.5161  -48.3634 H         1 UNK         0.0600 
    188 H188        2.9763  -10.6783  -48.9887 H         1 UNK         0.0600 
    189 H189        4.6050  -13.3170  -47.8141 H         1 UNK         0.3000 
    190 H190       -0.7903  -21.2540  -46.9601 H         1 UNK         0.3000 
    191 H191       -1.4002  -22.5467  -49.4105 H         1 UNK         0.0600 
    192 H192       -2.3025  -20.3234  -48.9342 H         1 UNK         0.0600 
    193 H193       -3.6451  -21.4338  -49.1389 H         1 UNK         0.0600 
    194 H194       -3.1779  -20.9184  -47.5248 H         1 UNK         0.0600 
    195 H195       -2.6747  -23.1041  -46.0897 H         1 UNK         0.3000 
    196 H196       -4.4561  -25.2065  -46.7470 H         1 UNK         0.0600 
    197 H197       -4.3572  -25.6932  -44.2919 H         1 UNK         0.0600 
    198 H198       -4.5646  -23.9772  -44.6076 H         1 UNK         0.0600 
    199 H199       -2.9884  -24.5993  -44.1257 H         1 UNK         0.0600 
    200 H200       -1.0014  -25.2944  -45.7638 H         1 UNK         0.3000 
    201 H201       -0.7181  -28.1207  -45.7341 H         1 UNK         0.0600 
    202 H202        0.8776  -26.5724  -44.6311 H         1 UNK         0.0600 
    203 H203        1.3822  -25.9380  -46.1961 H         1 UNK         0.0600 
    204 H204        1.7209  -27.6108  -45.7708 H         1 UNK         0.0600 
    205 H205       -0.1845  -25.7310  -48.3584 H         1 UNK         0.3000 
    206 H206        0.6989  -27.6654  -50.3078 H         1 UNK         0.0600 
    207 H207        1.3612  -25.2698  -50.3747 H         1 UNK         0.0600 
    208 H208        0.5150  -25.7065  -51.8509 H         1 UNK         0.0600 
    209 H209       -0.3192  -24.7881  -50.6029 H         1 UNK         0.0600 
    210 H210       -2.4182  -26.7552  -49.1779 H         1 UNK         0.3000 
    211 H211       -4.5281  -27.0699  -49.7322 H         1 UNK         0.0600 
    212 H212       -3.6408  -29.1649  -51.7879 H         1 UNK         0.0600 
    213 H213       -5.2593  -28.9485  -51.1402 H         1 UNK         0.0600 
    214 H214       -3.9627  -29.4861  -50.0842 H         1 UNK         0.0600 
    215 H215       -3.3183  -24.9026  -50.6203 H         1 UNK         0.3000 
    216 H216       -4.1205  -24.3696  -53.4473 H         1 UNK         0.0600 
    217 H217       -2.1803  -22.8360  -51.6292 H         1 UNK         0.0600 
    218 H218       -2.4316  -22.5826  -53.3532 H         1 UNK         0.0600 
    219 H219       -1.6802  -24.0603  -52.7915 H         1 UNK         0.0600 
    220 H220       -4.2069  -21.6352  -53.2620 H         1 UNK         0.3000 
    221 H221       -5.5017  -19.8919  -52.9707 H         1 UNK         0.0600 
    222 H222       -6.0339  -20.9228  -50.1404 H         1 UNK         0.0600 
    223 H223       -4.6802  -19.9080  -50.6459 H         1 UNK         0.0600 
    224 H224       -6.3176  -19.2889  -50.7173 H         1 UNK         0.0600 
    225 H225       -6.6844  -22.3337  -54.1061 H         1 UNK         0.3000 
    226 H226       -9.5198  -22.3041  -53.5216 H         1 UNK         0.0600 
    227 H227       -8.3790  -24.3098  -54.4435 H         1 UNK         0.0600 
    228 H228       -9.6436  -23.7678  -55.5354 H         1 UNK         0.0600 
    229 H229       -7.9593  -23.4269  -55.9120 H         1 UNK         0.0600 
    230 H230       -7.3958  -20.5590  -55.7210 H         1 UNK         0.3000 
    231 H231       -9.4316  -18.5872  -56.3446 H         1 UNK         0.0600 
    232 H232       -8.1794  -20.2386  -58.6125 H         1 UNK         0.0600 
    233 H233       -9.1816  -18.8056  -58.8205 H         1 UNK         0.0600 
    234 H234       -9.8793  -20.2676  -58.1470 H         1 UNK         0.0600 
    235 H235       -7.2792  -18.3960  -54.6851 H         1 UNK         0.3000 
    236 H236       -5.6116  -16.3781  -55.8447 H         1 UNK         0.0600 
    237 H237       -4.3391  -18.4106  -56.6273 H         1 UNK         0.0600 
    238 H238       -3.4390  -17.5729  -55.3780 H         1 UNK         0.0600 
    239 H239       -4.3181  -19.0433  -54.9834 H         1 UNK         0.0600 
    240 H240       -4.0267  -15.6596  -54.0735 H         1 UNK         0.3000 
    241 H241       -3.6095  -14.8194  -52.0962 H         1 UNK         0.0600 
    242 H242       -6.4131  -13.4906  -50.0173 H         1 UNK         0.3800 
    243 H243       -4.9926  -14.4084  -49.6180 H         1 UNK         0.3800 
    244 H244       -3.9643  -16.1385  -49.9866 H         1 UNK         0.0800 
    245 H245       -4.9764  -17.2561  -50.8433 H         1 UNK         0.0800 
    246 H246       -1.7653  -17.0676  -49.2437 H         1 UNK         0.0800 
    247 H247       -1.3931  -15.7875  -50.3773 H         1 UNK         0.0800 
@<TRIPOS>BOND
     1    1    2 1    
     2    1  127 1    
     3    1  128 1    
     4    1  129 1    
     5    2    3 2    
     6    2    4 am   BACKBONE|DICT|INTERRES
     7    4    5 1    
     8    4  130 1    
     9    5    6 1    
    10    5   65 1    
    11    5  131 1    
    12    6    7 1    
    13    6  132 1    
    14    6  133 1    
    15    7    8 1    
    16    8    9 1    
    17    8  134 1    
    18    8  135 1    
    19    9   10 ar   
    20    9   14 ar   
    21   10   11 ar   
    22   10  136 1    
    23   11   12 ar   
    24   11  126 1    
    25   12   13 ar   
    26   12  137 1    
    27   13   14 ar   
    28   13   15 1    
    29   14  138 1    
    30   15   16 1    
    31   15  139 1    
    32   15  140 1    
    33   16   17 1    
    34   17   18 1    
    35   17  141 1    
    36   17  142 1    
    37   18   19 1    
    38   18   67 1    
    39   18  143 1    
    40   19   20 am   BACKBONE|DICT|INTERRES
    41   19  144 1    
    42   20   21 2    
    43   20   22 1    
    44   22   23 1    
    45   22   24 1    
    46   22  145 1    
    47   23  146 1    
    48   23  147 1    
    49   23  148 1    
    50   24   25 am   BACKBONE|DICT|INTERRES
    51   24  149 1    
    52   25   26 2    
    53   25   27 1    
    54   27   28 1    
    55   27   29 1    
    56   27  150 1    
    57   28  151 1    
    58   28  152 1    
    59   28  153 1    
    60   29   30 am   BACKBONE|DICT|INTERRES
    61   29  154 1    
    62   30   31 2    
    63   30   32 1    
    64   32   33 1    
    65   32   34 1    
    66   32  155 1    
    67   33  156 1    
    68   33  157 1    
    69   33  158 1    
    70   34   35 am   BACKBONE|DICT|INTERRES
    71   34  159 1    
    72   35   36 2    
    73   35   37 1    
    74   37   38 1    
    75   37   39 1    
    76   37  160 1    
    77   38  161 1    
    78   38  162 1    
    79   38  163 1    
    80   39   40 am   BACKBONE|DICT|INTERRES
    81   39  164 1    
    82   40   41 2    
    83   40   42 1    
    84   42   43 1    
    85   42   44 1    
    86   42  165 1    
    87   43  166 1    
    88   43  167 1    
    89   43  168 1    
    90   44   45 am   BACKBONE|DICT|INTERRES
    91   44  169 1    
    92   45   46 2    
    93   45   47 1    
    94   47   48 1    
    95   47   49 1    
    96   47  170 1    
    97   48  171 1    
    98   48  172 1    
    99   48  173 1    
   100   49   50 am   BACKBONE|DICT|INTERRES
   101   49  174 1    
   102   50   51 2    
   103   50   52 1    
   104   52   53 1    
   105   52   54 1    
   106   52  175 1    
   107   53  176 1    
   108   53  177 1    
   109   53  178 1    
   110   54   55 am   BACKBONE|DICT|INTERRES
   111   54  179 1    
   112   55   56 2    
   113   55   57 1    
   114   57   58 1    
   115   57   59 1    
   116   57  180 1    
   117   58  181 1    
   118   58  182 1    
   119   58  183 1    
   120   59   60 am   BACKBONE|DICT|INTERRES
   121   59  184 1    
   122   60   61 2    
   123   60   62 1    
   124   62   63 1    
   125   62   64 1    
   126   62  185 1    
   127   63  186 1    
   128   63  187 1    
   129   63  188 1    
   130   64   65 am   BACKBONE|DICT|INTERRES
   131   64  189 1    
   132   65   66 2    
   133   67   68 2    
   134   67   69 am   BACKBONE|DICT|INTERRES
   135   69   70 1    
   136   69  190 1    
   137   70   71 1    
   138   70   72 1    
   139   70  191 1    
   140   71  192 1    
   141   71  193 1    
   142   71  194 1    
   143   72   73 2    
   144   72   74 am   BACKBONE|DICT|INTERRES
   145   74   75 1    
   146   74  195 1    
   147   75   76 1    
   148   75   77 1    
   149   75  196 1    
   150   76  197 1    
   151   76  198 1    
   152   76  199 1    
   153   77   78 2    
   154   77   79 am   BACKBONE|DICT|INTERRES
   155   79   80 1    
   156   79  200 1    
   157   80   81 1    
   158   80   82 1    
   159   80  201 1    
   160   81  202 1    
   161   81  203 1    
   162   81  204 1    
   163   82   83 2    
   164   82   84 am   BACKBONE|DICT|INTERRES
   165   84   85 1    
   166   84  205 1    
   167   85   86 1    
   168   85   87 1    
   169   85  206 1    
   170   86  207 1    
   171   86  208 1    
   172   86  209 1    
   173   87   88 2    
   174   87   89 am   BACKBONE|DICT|INTERRES
   175   89   90 1    
   176   89  210 1    
   177   90   91 1    
   178   90   92 1    
   179   90  211 1    
   180   91  212 1    
   181   91  213 1    
   182   91  214 1    
   183   92   93 2    
   184   92   94 am   BACKBONE|DICT|INTERRES
   185   94   95 1    
   186   94  215 1    
   187   95   96 1    
   188   95   97 1    
   189   95  216 1    
   190   96  217 1    
   191   96  218 1    
   192   96  219 1    
   193   97   98 2    
   194   97   99 am   BACKBONE|DICT|INTERRES
   195   99  100 1    
   196   99  220 1    
   197  100  101 1    
   198  100  102 1    
   199  100  221 1    
   200  101  222 1    
   201  101  223 1    
   202  101  224 1    
   203  102  103 2    
   204  102  104 am   BACKBONE|DICT|INTERRES
   205  104  105 1    
   206  104  225 1    
   207  105  106 1    
   208  105  107 1    
   209  105  226 1    
   210  106  227 1    
   211  106  228 1    
   212  106  229 1    
   213  107  108 2    
   214  107  109 am   BACKBONE|DICT|INTERRES
   215  109  110 1    
   216  109  230 1    
   217  110  111 1    
   218  110  112 1    
   219  110  231 1    
   220  111  232 1    
   221  111  233 1    
   222  111  234 1    
   223  112  113 2    
   224  112  114 am   BACKBONE|DICT|INTERRES
   225  114  115 1    
   226  114  235 1    
   227  115  116 1    
   228  115  117 1    
   229  115  236 1    
   230  116  237 1    
   231  116  238 1    
   232  116  239 1    
   233  117  118 2    
   234  117  119 am   BACKBONE|DICT|INTERRES
   235  119  120 1    
   236  119  240 1    
   237  120  121 1    
   238  120  124 1    
   239  120  241 1    
   240  121  122 am   BACKBONE|DICT|INTERRES
   241  121  123 2    
   242  122  242 1    
   243  122  243 1    
   244  124  125 1    
   245  124  244 1    
   246  124  245 1    
   247  125  126 1    
   248  126  246 1    
   249  126  247 1    
@<TRIPOS>SUBSTRUCTURE
     1 UNK         1 GROUP             0       ****    0 ROOT    
