@<TRIPOS>MOLECULE
3R540
247   249    1
SMALL
USER_CHARGES


@<TRIPOS>ATOM
      1 CA         -5.3566  -14.4703  -42.1217 C.3       0 UNK        -0.1800 
      2 C          -5.1007  -13.2769  -43.0312 C.2       0 UNK         0.5000 
      3 O          -5.2619  -12.1340  -42.6029 O.2       0 UNK        -0.5000 
      4 N          -4.7047  -13.5382  -44.2834 N.am      1 UNK        -0.5000 
      5 CA         -4.3783  -12.5253  -45.2956 C.3       1 UNK         0.1400 
      6 C6         -4.3170  -13.1368  -46.7201 C.3       23 UNK        -0.0398 
      7 S7         -3.1221  -14.5119  -46.8813 S.3       23 UNK        -0.2404 
      8 C8         -3.5151  -15.1200  -48.5467 C.3       23 UNK        -0.0205 
      9 C9         -2.6681  -16.3342  -48.8908 C.ar      23 UNK        -0.0193 
     10 C10        -1.3887  -16.1685  -49.4257 C.ar      23 UNK        -0.1150 
     11 C11        -0.5988  -17.2789  -49.7291 C.ar      23 UNK        -0.0193 
     12 C12        -1.1102  -18.5622  -49.5190 C.ar      23 UNK        -0.1150 
     13 C13        -2.3860  -18.7502  -48.9685 C.ar      23 UNK        -0.0193 
     14 C14        -3.1545  -17.6236  -48.6567 C.ar      23 UNK        -0.1150 
     15 C15        -2.9738  -20.1330  -48.6695 C.3       23 UNK        -0.0205 
     16 S16        -2.1427  -21.5492  -49.4779 S.3       23 UNK        -0.2404 
     17 C17        -0.6743  -21.7393  -48.3991 C.3       23 UNK        -0.0398 
     18 CA         -0.6300  -22.9753  -47.4608 C.3       11 UNK         0.1400 
     19 N           0.3966  -22.8059  -46.4307 N.am      11 UNK        -0.5000 
     20 C           0.7795  -23.7271  -45.5370 C.2       10 UNK         0.5000 
     21 O           0.3440  -24.8768  -45.5070 O.2       10 UNK        -0.5000 
     22 CA          1.7741  -23.2631  -44.4573 C.3       10 UNK         0.1400 
     23 CB          3.2062  -23.2109  -45.0096 C.3       10 UNK        -0.1800 
     24 N           1.4132  -21.9613  -43.8918 N.am      10 UNK        -0.5000 
     25 C           0.2876  -21.7269  -43.2006 C.2       9 UNK         0.5000 
     26 O          -0.5423  -22.5955  -42.9293 O.2       9 UNK        -0.5000 
     27 CA          0.0222  -20.2710  -42.7781 C.3       9 UNK         0.1400 
     28 CB          0.8422  -19.9082  -41.5312 C.3       9 UNK        -0.1800 
     29 N           0.3007  -19.3117  -43.8475 N.am      9 UNK        -0.5000 
     30 C          -0.3511  -19.2674  -45.0182 C.2       8 UNK         0.5000 
     31 O          -1.2889  -20.0090  -45.3071 O.2       8 UNK        -0.5000 
     32 CA          0.1696  -18.2734  -46.0690 C.3       8 UNK         0.1400 
     33 CB         -0.3274  -16.8495  -45.7878 C.3       8 UNK        -0.1800 
     34 N           1.6263  -18.2875  -46.1828 N.am      8 UNK        -0.5000 
     35 C           2.3543  -19.3499  -46.5539 C.2       7 UNK         0.5000 
     36 O           1.8716  -20.4317  -46.8835 O.2       7 UNK        -0.5000 
     37 CA          3.8814  -19.1951  -46.4995 C.3       7 UNK         0.1400 
     38 CB          4.4124  -18.5402  -47.7842 C.3       7 UNK        -0.1800 
     39 N           4.2976  -18.4184  -45.3329 N.am      7 UNK        -0.5000 
     40 C           4.2646  -18.8726  -44.0727 C.2       6 UNK         0.5000 
     41 O           3.9274  -20.0175  -43.7672 O.2       6 UNK        -0.5000 
     42 CA          4.6358  -17.8642  -42.9681 C.3       6 UNK         0.1400 
     43 CB          6.1610  -17.7534  -42.8240 C.3       6 UNK        -0.1800 
     44 N           4.0707  -16.5319  -43.1991 N.am      6 UNK        -0.5000 
     45 C           2.7601  -16.2572  -43.1528 C.2       5 UNK         0.5000 
     46 O           1.8992  -17.0957  -42.8900 O.2       5 UNK        -0.5000 
     47 CA          2.3242  -14.8170  -43.4883 C.3       5 UNK         0.1400 
     48 CB          2.4140  -13.9260  -42.2402 C.3       5 UNK        -0.1800 
     49 N           3.0336  -14.1640  -44.5949 N.am      5 UNK        -0.5000 
     50 C           3.2938  -14.6832  -45.8038 C.2       4 UNK         0.5000 
     51 O           3.1048  -15.8605  -46.1042 O.2       4 UNK        -0.5000 
     52 CA          3.7818  -13.6801  -46.8649 C.3       4 UNK         0.1400 
     53 CB          4.3496  -14.3571  -48.1313 C.3       4 UNK        -0.1800 
     54 N           2.7016  -12.7407  -47.1852 N.am      4 UNK        -0.5000 
     55 C           1.5111  -13.0348  -47.7303 C.2       3 UNK         0.5000 
     56 O           1.2098  -14.1283  -48.2083 O.2       3 UNK        -0.5000 
     57 CA          0.4482  -11.9275  -47.6481 C.3       3 UNK         0.1400 
     58 CB         -0.5514  -11.9865  -48.8165 C.3       3 UNK        -0.1800 
     59 N          -0.2894  -12.0626  -46.3953 N.am      3 UNK        -0.5000 
     60 C           0.1432  -11.6841  -45.1850 C.2       2 UNK         0.5000 
     61 O           1.2323  -11.1378  -45.0005 O.2       2 UNK        -0.5000 
     62 CA         -0.7692  -11.9902  -43.9740 C.3       2 UNK         0.1400 
     63 CB         -0.8166  -10.8219  -42.9687 C.3       2 UNK        -0.1800 
     64 N          -2.1241  -12.4360  -44.3272 N.am      2 UNK        -0.5000 
     65 C          -3.0832  -11.7484  -44.9693 C.2       1 UNK         0.5000 
     66 O          -2.9734  -10.5756  -45.3279 O.2       1 UNK        -0.5000 
     67 C          -1.9951  -23.3299  -46.8364 C.2       11 UNK         0.5000 
     68 O          -2.6125  -24.3077  -47.2616 O.2       11 UNK        -0.5000 
     69 N          -2.4272  -22.5544  -45.8314 N.am      12 UNK        -0.5000 
     70 CA         -3.6818  -22.7449  -45.1011 C.3       12 UNK         0.1400 
     71 CB         -3.8908  -21.5839  -44.1185 C.3       12 UNK        -0.1800 
     72 C          -3.7675  -24.0992  -44.3771 C.2       12 UNK         0.5000 
     73 O          -4.8292  -24.7226  -44.3862 O.2       12 UNK        -0.5000 
     74 N          -2.6457  -24.5411  -43.7935 N.am      13 UNK        -0.5000 
     75 CA         -2.5063  -25.8580  -43.1752 C.3       13 UNK         0.1400 
     76 CB         -1.2144  -25.8963  -42.3445 C.3       13 UNK        -0.1800 
     77 C          -2.5277  -27.0026  -44.2066 C.2       13 UNK         0.5000 
     78 O          -3.1192  -28.0484  -43.9353 O.2       13 UNK        -0.5000 
     79 N          -1.8793  -26.7899  -45.3599 N.am      14 UNK        -0.5000 
     80 CA         -1.7582  -27.7684  -46.4376 C.3       14 UNK         0.1400 
     81 CB         -0.6365  -27.3459  -47.4000 C.3       14 UNK        -0.1800 
     82 C          -3.0719  -28.0030  -47.2027 C.2       14 UNK         0.5000 
     83 O          -3.4722  -29.1579  -47.3604 O.2       14 UNK        -0.5000 
     84 N          -3.7029  -26.9242  -47.6879 N.am      15 UNK        -0.5000 
     85 CA         -4.8658  -27.0073  -48.5803 C.3       15 UNK         0.1400 
     86 CB         -4.4047  -27.4029  -49.9984 C.3       15 UNK        -0.1800 
     87 C          -5.7169  -25.7276  -48.6546 C.2       15 UNK         0.5000 
     88 O          -6.8713  -25.8200  -49.0739 O.2       15 UNK        -0.5000 
     89 N          -5.1500  -24.5660  -48.2938 N.am      16 UNK        -0.5000 
     90 CA         -5.7244  -23.2232  -48.4528 C.3       16 UNK         0.1400 
     91 CB         -6.9669  -23.0323  -47.5574 C.3       16 UNK        -0.1800 
     92 C          -5.9710  -22.8698  -49.9353 C.2       16 UNK         0.5000 
     93 O          -7.0426  -22.3799  -50.2950 O.2       16 UNK        -0.5000 
     94 N          -4.9572  -23.1472  -50.7682 N.am      17 UNK        -0.5000 
     95 CA         -4.9472  -22.9282  -52.2169 C.3       17 UNK         0.1400 
     96 CB         -3.6575  -23.5345  -52.7892 C.3       17 UNK        -0.1800 
     97 C          -5.0803  -21.4487  -52.6284 C.2       17 UNK         0.5000 
     98 O          -5.6873  -21.1607  -53.6613 O.2       17 UNK        -0.5000 
     99 N          -4.5247  -20.5467  -51.8053 N.am      18 UNK        -0.5000 
    100 CA        -4.5935  -19.0871  -51.9127 C.3       18 UNK         0.1400 
    101 CB        -6.0060  -18.5912  -51.5352 C.3       18 UNK        -0.1800 
    102 C         -4.0857  -18.5862  -53.2757 C.2       18 UNK         0.5000 
    103 O         -2.8986  -18.7423  -53.5616 O.2       18 UNK        -0.5000 
    104 N         -4.9812  -18.0375  -54.1067 N.am      19 UNK        -0.5000 
    105 CA        -4.6963  -17.5272  -55.4496 C.3       19 UNK         0.1400 
    106 CB        -5.9779  -16.9135  -56.0323 C.3       19 UNK        -0.1800 
    107 C         -4.1113  -18.5740  -56.4196 C.2       19 UNK         0.5000 
    108 O         -3.3811  -18.1966  -57.3359 O.2       19 UNK        -0.5000 
    109 N         -4.3989  -19.8639  -56.1925 N.am      20 UNK        -0.5000 
    110 CA        -3.8308  -20.9697  -56.9662 C.3       20 UNK         0.1400 
    111 CB        -4.6933  -22.2253  -56.7679 C.3       20 UNK        -0.1800 
    112 C         -2.3519  -21.2559  -56.6291 C.2       20 UNK         0.5000 
    113 O         -1.6708  -21.8855  -57.4395 O.2       20 UNK        -0.5000 
    114 N         -1.8802  -20.7978  -55.4607 N.am      21 UNK        -0.5000 
    115 CA        -0.4974  -20.9424  -55.0059 C.3       21 UNK         0.1400 
    116 CB        -0.4906  -21.4567  -53.5564 C.3       21 UNK        -0.1800 
    117 C          0.2710  -19.6152  -55.1081 C.2       21 UNK         0.5000 
    118 O          1.3946  -19.6036  -55.6128 O.2       21 UNK        -0.5000 
    119 N         -0.3416  -18.5325  -54.6176 N.am      22 UNK        -0.5000 
    120 CA         0.2769  -17.2092  -54.4334 C.3       22 UNK         0.1400 
    121 C         -0.2751  -16.1167  -55.3934 C.2       22 UNK         0.5000 
    122 N         -1.1410  -16.4314  -56.3477 N.am      22 UNK        -0.7600 
    123 O          0.1081  -14.9545  -55.2903 O.2       22 UNK        -0.5000 
    124 C124        0.1905  -16.7617  -52.9494 C.3       23 UNK        -0.0398 
    125 S125        1.1211  -17.8749  -51.8428 S.3       23 UNK        -0.2404 
    126 C126        0.8290  -17.0939  -50.2249 C.3       23 UNK        -0.0205 
    127 H127       -4.7040  -14.4241  -41.2499 H         1 UNK         0.0600 
    128 H128       -5.1749  -15.4162  -42.6328 H         1 UNK         0.0600 
    129 H129       -6.3904  -14.4637  -41.7761 H         1 UNK         0.0600 
    130 H130       -4.5960  -14.4975  -44.5822 H         1 UNK         0.3000 
    131 H131       -5.1884  -11.7926  -45.2930 H         1 UNK         0.0600 
    132 H132       -4.0772  -12.3703  -47.4597 H         1 UNK         0.0800 
    133 H133       -5.3056  -13.5099  -46.9913 H         1 UNK         0.0800 
    134 H134       -4.5751  -15.3723  -48.6040 H         1 UNK         0.0800 
    135 H135       -3.3437  -14.3263  -49.2754 H         1 UNK         0.0800 
    136 H136       -0.9961  -15.1734  -49.5783 H         1 UNK         0.1150 
    137 H137       -0.4824  -19.4042  -49.7651 H         1 UNK         0.1150 
    138 H138       -4.1376  -17.7497  -48.2251 H         1 UNK         0.1150 
    139 H139       -2.9747  -20.2849  -47.5893 H         1 UNK         0.0800 
    140 H140       -4.0216  -20.1423  -48.9715 H         1 UNK         0.0800 
    141 H141       -0.5875  -20.8347  -47.7990 H         1 UNK         0.0800 
    142 H142        0.2108  -21.7431  -49.0366 H         1 UNK         0.0800 
    143 H143       -0.3347  -23.8336  -48.0676 H         1 UNK         0.0600 
    144 H144        0.8521  -21.8961  -46.4060 H         1 UNK         0.3000 
    145 H145        1.7501  -23.9959  -43.6480 H         1 UNK         0.0600 
    146 H146        3.5062  -24.1815  -45.4064 H         1 UNK         0.0600 
    147 H147        3.3043  -22.4828  -45.8147 H         1 UNK         0.0600 
    148 H148        3.9193  -22.9431  -44.2297 H         1 UNK         0.0600 
    149 H149        2.0583  -21.1971  -44.0531 H         1 UNK         0.3000 
    150 H150       -1.0364  -20.1876  -42.5242 H         1 UNK         0.0600 
    151 H151        0.6540  -20.6125  -40.7199 H         1 UNK         0.0600 
    152 H152        0.5825  -18.9146  -41.1657 H         1 UNK         0.0600 
    153 H153        1.9134  -19.9187  -41.7360 H         1 UNK         0.0600 
    154 H154        1.0299  -18.6278  -43.6645 H         1 UNK         0.3000 
    155 H155       -0.2299  -18.5815  -47.0320 H         1 UNK         0.0600 
    156 H156        0.0020  -16.4916  -44.8143 H         1 UNK         0.0600 
    157 H157        0.0256  -16.1491  -46.5456 H         1 UNK         0.0600 
    158 H158       -1.4172  -16.8159  -45.7978 H         1 UNK         0.0600 
    159 H159        2.1146  -17.4164  -45.9875 H         1 UNK         0.3000 
    160 H160        4.3188  -20.1928  -46.4234 H         1 UNK         0.0600 
    161 H161        3.9951  -17.5448  -47.9375 H         1 UNK         0.0600 
    162 H162        4.1538  -19.1383  -48.6588 H         1 UNK         0.0600 
    163 H163        5.4983  -18.4490  -47.7612 H         1 UNK         0.0600 
    164 H164        4.4704  -17.4341  -45.4901 H         1 UNK         0.3000 
    165 H165        4.2334  -18.2440  -42.0264 H         1 UNK         0.0600 
    166 H166        6.4320  -17.1071  -41.9890 H         1 UNK         0.0600 
    167 H167        6.6067  -18.7310  -42.6351 H         1 UNK         0.0600 
    168 H168        6.6239  -17.3501  -43.7255 H         1 UNK         0.0600 
    169 H169        4.7139  -15.7907  -43.4350 H         1 UNK         0.3000 
    170 H170        1.2755  -14.8631  -43.7834 H         1 UNK         0.0600 
    171 H171        1.8542  -14.3579  -41.4094 H         1 UNK         0.0600 
    172 H172        3.4461  -13.8003  -41.9109 H         1 UNK         0.0600 
    173 H173        2.0005  -12.9349  -42.4279 H         1 UNK         0.0600 
    174 H174        3.2171  -13.1794  -44.4645 H         1 UNK         0.3000 
    175 H175        4.5871  -13.0985  -46.4140 H         1 UNK         0.0600 
    176 H176        3.6193  -15.0009  -48.6220 H         1 UNK         0.0600 
    177 H177        4.6830  -13.6161  -48.8575 H         1 UNK         0.0600 
    178 H178        5.2095  -14.9797  -47.8821 H         1 UNK         0.0600 
    179 H179        2.8001  -11.8209  -46.7758 H         1 UNK         0.3000 
    180 H180        0.9453  -10.9555  -47.6762 H         1 UNK         0.0600 
    181 H181       -1.1313  -12.9096  -48.8086 H         1 UNK         0.0600 
    182 H182       -0.0350  -11.9298  -49.7754 H         1 UNK         0.0600 
    183 H183       -1.2537  -11.1538  -48.7740 H         1 UNK         0.0600 
    184 H184       -1.1702  -12.5523  -46.4505 H         1 UNK         0.3000 
    185 H185       -0.3072  -12.8366  -43.4651 H         1 UNK         0.0600 
    186 H186        0.1774  -10.5999  -42.5789 H         1 UNK         0.0600 
    187 H187       -1.1980   -9.9084  -43.4254 H         1 UNK         0.0600 
    188 H188       -1.4516  -11.0614  -42.1157 H         1 UNK         0.0600 
    189 H189       -2.3353  -13.3966  -44.0956 H         1 UNK         0.3000 
    190 H190       -1.8744  -21.7423  -45.5638 H         1 UNK         0.3000 
    191 H191       -4.4929  -22.7137  -45.8273 H         1 UNK         0.0600 
    192 H192       -3.0848  -21.5266  -43.3867 H         1 UNK         0.0600 
    193 H193       -4.8266  -21.6983  -43.5701 H         1 UNK         0.0600 
    194 H194       -3.9359  -20.6288  -44.6420 H         1 UNK         0.0600 
    195 H195       -1.8289  -23.9385  -43.7803 H         1 UNK         0.3000 
    196 H196       -3.3488  -26.0055  -42.4962 H         1 UNK         0.0600 
    197 H197       -1.0937  -26.8626  -41.8533 H         1 UNK         0.0600 
    198 H198       -1.2248  -25.1336  -41.5656 H         1 UNK         0.0600 
    199 H199       -0.3320  -25.7285  -42.9628 H         1 UNK         0.0600 
    200 H200       -1.3700  -25.9203  -45.4805 H         1 UNK         0.3000 
    201 H201       -1.4645  -28.7209  -45.9912 H         1 UNK         0.0600 
    202 H202        0.3241  -27.2993  -46.8869 H         1 UNK         0.0600 
    203 H203       -0.8271  -26.3670  -47.8403 H         1 UNK         0.0600 
    204 H204       -0.5326  -28.0597  -48.2181 H         1 UNK         0.0600 
    205 H205       -3.3157  -26.0048  -47.4928 H         1 UNK         0.3000 
    206 H206       -5.5322  -27.7864  -48.2036 H         1 UNK         0.0600 
    207 H207       -5.2471  -27.4484  -50.6900 H         1 UNK         0.0600 
    208 H208       -3.6899  -26.6833  -50.3995 H         1 UNK         0.0600 
    209 H209       -3.9322  -28.3850  -50.0087 H         1 UNK         0.0600 
    210 H210       -4.1919  -24.5737  -47.9513 H         1 UNK         0.3000 
    211 H211       -4.9631  -22.5238  -48.1066 H         1 UNK         0.0600 
    212 H212       -7.8108  -23.6334  -47.8964 H         1 UNK         0.0600 
    213 H213       -7.2892  -21.9905  -47.5587 H         1 UNK         0.0600 
    214 H214       -6.7571  -23.3069  -46.5238 H         1 UNK         0.0600 
    215 H215       -4.1201  -23.5522  -50.3755 H         1 UNK         0.3000 
    216 H216       -5.7987  -23.4628  -52.6428 H         1 UNK         0.0600 
    217 H217       -2.7754  -23.1150  -52.3055 H         1 UNK         0.0600 
    218 H218       -3.5653  -23.3476  -53.8590 H         1 UNK         0.0600 
    219 H219       -3.6339  -24.6149  -52.6456 H         1 UNK         0.0600 
    220 H220       -3.9845  -20.9019  -51.0290 H         1 UNK         0.3000 
    221 H221       -3.8971  -18.6817  -51.1826 H         1 UNK         0.0600 
    222 H222       -6.7753  -18.9898  -52.1975 H         1 UNK         0.0600 
    223 H223       -6.2613  -18.8950  -50.5198 H         1 UNK         0.0600 
    224 H224       -6.0643  -17.5024  -51.5661 H         1 UNK         0.0600 
    225 H225       -5.9425  -17.9867  -53.8028 H         1 UNK         0.3000 
    226 H226       -3.9542  -16.7332  -55.3451 H         1 UNK         0.0600 
    227 H227       -6.3495  -16.1036  -55.4044 H         1 UNK         0.0600 
    228 H228       -5.7960  -16.4962  -57.0237 H         1 UNK         0.0600 
    229 H229       -6.7708  -17.6563  -56.1290 H         1 UNK         0.0600 
    230 H230       -4.9854  -20.1112  -55.4025 H         1 UNK         0.3000 
    231 H231       -3.8737  -20.7045  -58.0248 H         1 UNK         0.0600 
    232 H232       -4.3206  -23.0549  -57.3700 H         1 UNK         0.0600 
    233 H233       -5.7258  -22.0453  -57.0675 H         1 UNK         0.0600 
    234 H234       -4.6996  -22.5525  -55.7296 H         1 UNK         0.0600 
    235 H235       -2.4898  -20.2449  -54.8693 H         1 UNK         0.3000 
    236 H236        0.0337  -21.6752  -55.6168 H         1 UNK         0.0600 
    237 H237       -0.8791  -22.4727  -53.5054 H         1 UNK         0.0600 
    238 H238        0.5223  -21.4796  -53.1521 H         1 UNK         0.0600 
    239 H239       -1.0921  -20.8302  -52.8960 H         1 UNK         0.0600 
    240 H240       -1.2730  -18.6318  -54.2173 H         1 UNK         0.3000 
    241 H241        1.3372  -17.2727  -54.6836 H         1 UNK         0.0600 
    242 H242       -1.4679  -17.3779  -56.4759 H         1 UNK         0.3800 
    243 H243       -1.4704  -15.7089  -56.9677 H         1 UNK         0.3800 
    244 H244        0.5952  -15.7565  -52.8195 H         1 UNK         0.0800 
    245 H245       -0.8505  -16.7229  -52.6234 H         1 UNK         0.0800 
    246 H246        1.0915  -16.0362  -50.2811 H         1 UNK         0.0800 
    247 H247        1.5074  -17.5350  -49.4930 H         1 UNK         0.0800 
@<TRIPOS>BOND
     1    1    2 1    
     2    1  127 1    
     3    1  128 1    
     4    1  129 1    
     5    2    3 2    
     6    2    4 am   BACKBONE|DICT|INTERRES
     7    4    5 1    
     8    4  130 1    
     9    5    6 1    
    10    5   65 1    
    11    5  131 1    
    12    6    7 1    
    13    6  132 1    
    14    6  133 1    
    15    7    8 1    
    16    8    9 1    
    17    8  134 1    
    18    8  135 1    
    19    9   10 ar   
    20    9   14 ar   
    21   10   11 ar   
    22   10  136 1    
    23   11   12 ar   
    24   11  126 1    
    25   12   13 ar   
    26   12  137 1    
    27   13   14 ar   
    28   13   15 1    
    29   14  138 1    
    30   15   16 1    
    31   15  139 1    
    32   15  140 1    
    33   16   17 1    
    34   17   18 1    
    35   17  141 1    
    36   17  142 1    
    37   18   19 1    
    38   18   67 1    
    39   18  143 1    
    40   19   20 am   BACKBONE|DICT|INTERRES
    41   19  144 1    
    42   20   21 2    
    43   20   22 1    
    44   22   23 1    
    45   22   24 1    
    46   22  145 1    
    47   23  146 1    
    48   23  147 1    
    49   23  148 1    
    50   24   25 am   BACKBONE|DICT|INTERRES
    51   24  149 1    
    52   25   26 2    
    53   25   27 1    
    54   27   28 1    
    55   27   29 1    
    56   27  150 1    
    57   28  151 1    
    58   28  152 1    
    59   28  153 1    
    60   29   30 am   BACKBONE|DICT|INTERRES
    61   29  154 1    
    62   30   31 2    
    63   30   32 1    
    64   32   33 1    
    65   32   34 1    
    66   32  155 1    
    67   33  156 1    
    68   33  157 1    
    69   33  158 1    
    70   34   35 am   BACKBONE|DICT|INTERRES
    71   34  159 1    
    72   35   36 2    
    73   35   37 1    
    74   37   38 1    
    75   37   39 1    
    76   37  160 1    
    77   38  161 1    
    78   38  162 1    
    79   38  163 1    
    80   39   40 am   BACKBONE|DICT|INTERRES
    81   39  164 1    
    82   40   41 2    
    83   40   42 1    
    84   42   43 1    
    85   42   44 1    
    86   42  165 1    
    87   43  166 1    
    88   43  167 1    
    89   43  168 1    
    90   44   45 am   BACKBONE|DICT|INTERRES
    91   44  169 1    
    92   45   46 2    
    93   45   47 1    
    94   47   48 1    
    95   47   49 1    
    96   47  170 1    
    97   48  171 1    
    98   48  172 1    
    99   48  173 1    
   100   49   50 am   BACKBONE|DICT|INTERRES
   101   49  174 1    
   102   50   51 2    
   103   50   52 1    
   104   52   53 1    
   105   52   54 1    
   106   52  175 1    
   107   53  176 1    
   108   53  177 1    
   109   53  178 1    
   110   54   55 am   BACKBONE|DICT|INTERRES
   111   54  179 1    
   112   55   56 2    
   113   55   57 1    
   114   57   58 1    
   115   57   59 1    
   116   57  180 1    
   117   58  181 1    
   118   58  182 1    
   119   58  183 1    
   120   59   60 am   BACKBONE|DICT|INTERRES
   121   59  184 1    
   122   60   61 2    
   123   60   62 1    
   124   62   63 1    
   125   62   64 1    
   126   62  185 1    
   127   63  186 1    
   128   63  187 1    
   129   63  188 1    
   130   64   65 am   BACKBONE|DICT|INTERRES
   131   64  189 1    
   132   65   66 2    
   133   67   68 2    
   134   67   69 am   BACKBONE|DICT|INTERRES
   135   69   70 1    
   136   69  190 1    
   137   70   71 1    
   138   70   72 1    
   139   70  191 1    
   140   71  192 1    
   141   71  193 1    
   142   71  194 1    
   143   72   73 2    
   144   72   74 am   BACKBONE|DICT|INTERRES
   145   74   75 1    
   146   74  195 1    
   147   75   76 1    
   148   75   77 1    
   149   75  196 1    
   150   76  197 1    
   151   76  198 1    
   152   76  199 1    
   153   77   78 2    
   154   77   79 am   BACKBONE|DICT|INTERRES
   155   79   80 1    
   156   79  200 1    
   157   80   81 1    
   158   80   82 1    
   159   80  201 1    
   160   81  202 1    
   161   81  203 1    
   162   81  204 1    
   163   82   83 2    
   164   82   84 am   BACKBONE|DICT|INTERRES
   165   84   85 1    
   166   84  205 1    
   167   85   86 1    
   168   85   87 1    
   169   85  206 1    
   170   86  207 1    
   171   86  208 1    
   172   86  209 1    
   173   87   88 2    
   174   87   89 am   BACKBONE|DICT|INTERRES
   175   89   90 1    
   176   89  210 1    
   177   90   91 1    
   178   90   92 1    
   179   90  211 1    
   180   91  212 1    
   181   91  213 1    
   182   91  214 1    
   183   92   93 2    
   184   92   94 am   BACKBONE|DICT|INTERRES
   185   94   95 1    
   186   94  215 1    
   187   95   96 1    
   188   95   97 1    
   189   95  216 1    
   190   96  217 1    
   191   96  218 1    
   192   96  219 1    
   193   97   98 2    
   194   97   99 am   BACKBONE|DICT|INTERRES
   195   99  100 1    
   196   99  220 1    
   197  100  101 1    
   198  100  102 1    
   199  100  221 1    
   200  101  222 1    
   201  101  223 1    
   202  101  224 1    
   203  102  103 2    
   204  102  104 am   BACKBONE|DICT|INTERRES
   205  104  105 1    
   206  104  225 1    
   207  105  106 1    
   208  105  107 1    
   209  105  226 1    
   210  106  227 1    
   211  106  228 1    
   212  106  229 1    
   213  107  108 2    
   214  107  109 am   BACKBONE|DICT|INTERRES
   215  109  110 1    
   216  109  230 1    
   217  110  111 1    
   218  110  112 1    
   219  110  231 1    
   220  111  232 1    
   221  111  233 1    
   222  111  234 1    
   223  112  113 2    
   224  112  114 am   BACKBONE|DICT|INTERRES
   225  114  115 1    
   226  114  235 1    
   227  115  116 1    
   228  115  117 1    
   229  115  236 1    
   230  116  237 1    
   231  116  238 1    
   232  116  239 1    
   233  117  118 2    
   234  117  119 am   BACKBONE|DICT|INTERRES
   235  119  120 1    
   236  119  240 1    
   237  120  121 1    
   238  120  124 1    
   239  120  241 1    
   240  121  122 am   BACKBONE|DICT|INTERRES
   241  121  123 2    
   242  122  242 1    
   243  122  243 1    
   244  124  125 1    
   245  124  244 1    
   246  124  245 1    
   247  125  126 1    
   248  126  246 1    
   249  126  247 1    
@<TRIPOS>SUBSTRUCTURE
     1 UNK         1 GROUP             0       ****    0 ROOT    
