@<TRIPOS>MOLECULE
3R540
247   249    1
SMALL
USER_CHARGES


@<TRIPOS>ATOM
      1 CA          4.6113  -18.0754  -47.9059 C.3       0 UNK        -0.1800 
      2 C           3.2137  -17.4868  -48.0374 C.2       0 UNK         0.5000 
      3 O           2.2363  -18.2324  -48.0414 O.2       0 UNK        -0.5000 
      4 N           3.1226  -16.1565  -48.1560 N.am      1 UNK        -0.5000 
      5 CA          1.8632  -15.4134  -48.2325 C.3       1 UNK         0.1400 
      6 C6          2.0856  -14.0221  -48.8892 C.3       23 UNK        -0.0398 
      7 S7          0.5593  -13.0448  -49.1578 S.3       23 UNK        -0.2404 
      8 C8          0.1256  -13.4394  -50.8853 C.3       23 UNK        -0.0205 
      9 C9         -0.0320  -14.9361  -51.1097 C.ar      23 UNK        -0.0193 
     10 C10         0.8434  -15.6133  -51.9638 C.ar      23 UNK        -0.1150 
     11 C11         0.7494  -16.9982  -52.1263 C.ar      23 UNK        -0.0193 
     12 C12        -0.2194  -17.7083  -51.4112 C.ar      23 UNK        -0.1150 
     13 C13        -1.1059  -17.0406  -50.5604 C.ar      23 UNK        -0.0193 
     14 C14        -1.0250  -15.6515  -50.4328 C.ar      23 UNK        -0.1150 
     15 C15        -2.1246  -17.8263  -49.7534 C.3       23 UNK        -0.0205 
     16 S16        -1.4741  -18.2012  -48.0959 S.3       23 UNK        -0.2404 
     17 C17        -2.5158  -19.6077  -47.5910 C.3       23 UNK        -0.0398 
     18 CA         -1.6895  -20.9120  -47.4929 C.3       11 UNK         0.1400 
     19 N          -0.6564  -20.8549  -46.4535 N.am      11 UNK        -0.5000 
     20 C           0.3311  -21.7503  -46.3139 C.2       10 UNK         0.5000 
     21 O           0.4945  -22.7095  -47.0661 O.2       10 UNK        -0.5000 
     22 CA          1.2454  -21.5889  -45.0881 C.3       10 UNK         0.1400 
     23 CB          2.3278  -20.5305  -45.3382 C.3       10 UNK        -0.1800 
     24 N           0.4865  -21.2513  -43.8839 N.am      10 UNK        -0.5000 
     25 C          -0.3545  -22.1000  -43.2720 C.2       9 UNK         0.5000 
     26 O          -0.5305  -23.2623  -43.6367 O.2       9 UNK        -0.5000 
     27 CA         -1.1760  -21.5550  -42.0870 C.3       9 UNK         0.1400 
     28 CB         -0.4056  -21.7373  -40.7712 C.3       9 UNK        -0.1800 
     29 N          -1.5406  -20.1471  -42.2361 N.am      9 UNK        -0.5000 
     30 C          -2.2612  -19.6330  -43.2427 C.2       8 UNK         0.5000 
     31 O          -2.7907  -20.3156  -44.1194 O.2       8 UNK        -0.5000 
     32 CA         -2.3600  -18.0964  -43.3174 C.3       8 UNK         0.1400 
     33 CB         -3.7310  -17.6161  -42.8218 C.3       8 UNK        -0.1800 
     34 N          -1.3049  -17.3900  -42.5793 N.am      8 UNK        -0.5000 
     35 C           0.0062  -17.4680  -42.8502 C.2       7 UNK         0.5000 
     36 O           0.4572  -18.1657  -43.7606 O.2       7 UNK        -0.5000 
     37 CA          0.9304  -16.6129  -41.9591 C.3       7 UNK         0.1400 
     38 CB          0.8048  -16.9986  -40.4698 C.3       7 UNK        -0.1800 
     39 N           2.3355  -16.6220  -42.3755 N.am      7 UNK        -0.5000 
     40 C           3.1957  -17.6542  -42.3889 C.2       6 UNK         0.5000 
     41 O           2.9171  -18.7982  -42.0262 O.2       6 UNK        -0.5000 
     42 CA          4.6340  -17.3502  -42.8620 C.3       6 UNK         0.1400 
     43 CB          4.7815  -17.6563  -44.3596 C.3       6 UNK        -0.1800 
     44 N           5.0395  -15.9631  -42.6314 N.am      6 UNK        -0.5000 
     45 C           5.1844  -15.3818  -41.4321 C.2       5 UNK         0.5000 
     46 O           5.1198  -15.9938  -40.3654 O.2       5 UNK        -0.5000 
     47 CA          5.4188  -13.8550  -41.4163 C.3       5 UNK         0.1400 
     48 CB          6.8821  -13.5399  -41.0683 C.3       5 UNK        -0.1800 
     49 N           5.0728  -13.1670  -42.6674 N.am      5 UNK        -0.5000 
     50 C           3.8537  -13.1180  -43.2223 C.2       4 UNK         0.5000 
     51 O           2.8647  -13.6771  -42.7411 O.2       4 UNK        -0.5000 
     52 CA          3.7532  -12.3571  -44.5566 C.3       4 UNK         0.1400 
     53 CB          4.5756  -13.0555  -45.6550 C.3       4 UNK        -0.1800 
     54 N           2.3633  -12.2646  -44.9984 N.am      4 UNK        -0.5000 
     55 C           1.5306  -11.2612  -44.6901 C.2       3 UNK         0.5000 
     56 O           1.8723  -10.2719  -44.0400 O.2       3 UNK        -0.5000 
     57 CA          0.0788  -11.3501  -45.2040 C.3       3 UNK         0.1400 
     58 CB         -0.1471  -10.3456  -46.3451 C.3       3 UNK        -0.1800 
     59 N          -0.2853  -12.6835  -45.6819 N.am      3 UNK        -0.5000 
     60 C          -0.6665  -13.7018  -44.8992 C.2       2 UNK         0.5000 
     61 O          -0.8017  -13.6195  -43.6785 O.2       2 UNK        -0.5000 
     62 CA         -0.9336  -15.0464  -45.6027 C.3       2 UNK         0.1400 
     63 CB         -2.4221  -15.1727  -45.9620 C.3       2 UNK        -0.1800 
     64 N          -0.1221  -15.2628  -46.8020 N.am      2 UNK        -0.5000 
     65 C           1.2171  -15.3004  -46.8356 C.2       1 UNK         0.5000 
     66 O           1.9286  -15.1754  -45.8367 O.2       1 UNK        -0.5000 
     67 C          -2.6123  -22.1309  -47.3067 C.2       11 UNK         0.5000 
     68 O          -3.0040  -22.7453  -48.2988 O.2       11 UNK        -0.5000 
     69 N          -2.9326  -22.4765  -46.0525 N.am      12 UNK        -0.5000 
     70 CA         -3.7016  -23.6695  -45.7002 C.3       12 UNK         0.1400 
     71 CB         -4.0850  -23.6236  -44.2142 C.3       12 UNK        -0.1800 
     72 C          -2.9504  -24.9670  -46.0476 C.2       12 UNK         0.5000 
     73 O          -3.5339  -25.8520  -46.6737 O.2       12 UNK        -0.5000 
     74 N          -1.6607  -25.0348  -45.6860 N.am      13 UNK        -0.5000 
     75 CA         -0.7654  -26.1534  -45.9933 C.3       13 UNK         0.1400 
     76 CB          0.5655  -25.9613  -45.2509 C.3       13 UNK        -0.1800 
     77 C          -0.5224  -26.3394  -47.5035 C.2       13 UNK         0.5000 
     78 O          -0.4641  -27.4756  -47.9748 O.2       13 UNK        -0.5000 
     79 N          -0.4133  -25.2235  -48.2363 N.am      14 UNK        -0.5000 
     80 CA         -0.2474  -25.1867  -49.6904 C.3       14 UNK         0.1400 
     81 CB          0.3011  -23.8073  -50.0872 C.3       14 UNK        -0.1800 
     82 C          -1.5392  -25.4887  -50.4780 C.2       14 UNK         0.5000 
     83 O          -1.4612  -25.6645  -51.6943 O.2       14 UNK        -0.5000 
     84 N          -2.6919  -25.5186  -49.7900 N.am      15 UNK        -0.5000 
     85 CA         -4.0487  -25.6481  -50.3348 C.3       15 UNK         0.1400 
     86 CB         -4.2591  -27.0249  -50.9985 C.3       15 UNK        -0.1800 
     87 C          -4.4255  -24.4622  -51.2491 C.2       15 UNK         0.5000 
     88 O          -5.0439  -24.6473  -52.2989 O.2       15 UNK        -0.5000 
     89 N          -4.0298  -23.2595  -50.8196 N.am      16 UNK        -0.5000 
     90 CA         -4.2806  -21.9861  -51.4864 C.3       16 UNK         0.1400 
     91 CB         -2.9468  -21.2352  -51.6029 C.3       16 UNK        -0.1800 
     92 C          -5.3217  -21.1395  -50.7317 C.2       16 UNK         0.5000 
     93 O          -5.9585  -20.2828  -51.3436 O.2       16 UNK        -0.5000 
     94 N          -5.4995  -21.3888  -49.4247 N.am      17 UNK        -0.5000 
     95 CA         -6.4710  -20.7110  -48.5618 C.3       17 UNK         0.1400 
     96 CB         -6.2836  -21.1811  -47.1101 C.3       17 UNK        -0.1800 
     97 C          -7.9166  -20.9386  -49.0465 C.2       17 UNK         0.5000 
     98 O          -8.4617  -22.0258  -48.8471 O.2       17 UNK        -0.5000 
     99 N          -8.4754  -19.9181  -49.7146 N.am      18 UNK        -0.5000 
    100 CA        -9.7733  -19.9072  -50.4007 C.3       18 UNK         0.1400 
    101 CB       -10.9303  -20.0010  -49.3834 C.3       18 UNK        -0.1800 
    102 C         -9.8704  -20.9602  -51.5289 C.2       18 UNK         0.5000 
    103 O        -10.9391  -21.5362  -51.7438 O.2       18 UNK        -0.5000 
    104 N         -8.7499  -21.2016  -52.2216 N.am      19 UNK        -0.5000 
    105 CA        -8.6105  -22.2216  -53.2556 C.3       19 UNK         0.1400 
    106 CB        -8.1703  -23.5460  -52.6016 C.3       19 UNK        -0.1800 
    107 C         -7.6827  -21.6992  -54.3664 C.2       19 UNK         0.5000 
    108 O         -8.0522  -20.7355  -55.0405 O.2       19 UNK        -0.5000 
    109 N         -6.5215  -22.3402  -54.5637 N.am      20 UNK        -0.5000 
    110 CA        -5.5095  -21.9758  -55.5616 C.3       20 UNK         0.1400 
    111 CB        -4.4195  -23.0600  -55.5661 C.3       20 UNK        -0.1800 
    112 C         -4.8820  -20.5874  -55.3158 C.2       20 UNK         0.5000 
    113 O         -4.9219  -20.0838  -54.1940 O.2       20 UNK        -0.5000 
    114 N         -4.2866  -19.9992  -56.3631 N.am      21 UNK        -0.5000 
    115 CA        -3.6062  -18.6998  -56.2953 C.3       21 UNK         0.1400 
    116 CB        -3.2092  -18.2526  -57.7111 C.3       21 UNK        -0.1800 
    117 C         -2.3817  -18.7154  -55.3587 C.2       21 UNK         0.5000 
    118 O         -2.2312  -17.8105  -54.5391 O.2       21 UNK        -0.5000 
    119 N         -1.5735  -19.7728  -55.4816 N.am      22 UNK        -0.5000 
    120 CA        -0.4585  -20.1436  -54.6044 C.3       22 UNK         0.1400 
    121 C         -0.3802  -21.6911  -54.5112 C.2       22 UNK         0.5000 
    122 N          0.2901  -22.2234  -53.4994 N.am      22 UNK        -0.7600 
    123 O         -0.8982  -22.4178  -55.3575 O.2       22 UNK        -0.5000 
    124 C124        0.9046  -19.5538  -55.0626 C.3       23 UNK        -0.0398 
    125 S125        1.0829  -17.7624  -54.7656 S.3       23 UNK        -0.2404 
    126 C126        1.7129  -17.7225  -53.0546 C.3       23 UNK        -0.0205 
    127 H127        4.9040  -18.5557  -48.8394 H         1 UNK         0.0600 
    128 H128        5.3509  -17.3116  -47.6648 H         1 UNK         0.0600 
    129 H129        4.6308  -18.8267  -47.1167 H         1 UNK         0.0600 
    130 H130        3.9625  -15.5985  -48.1153 H         1 UNK         0.3000 
    131 H131        1.1887  -15.9905  -48.8649 H         1 UNK         0.0600 
    132 H132        2.7602  -13.4213  -48.2774 H         1 UNK         0.0800 
    133 H133        2.5891  -14.1442  -49.8493 H         1 UNK         0.0800 
    134 H134        0.8870  -13.0229  -51.5466 H         1 UNK         0.0800 
    135 H135       -0.8099  -12.9396  -51.1399 H         1 UNK         0.0800 
    136 H136        1.6078  -15.0654  -52.4967 H         1 UNK         0.1150 
    137 H137       -0.2791  -18.7825  -51.5074 H         1 UNK         0.1150 
    138 H138       -1.7034  -15.1319  -49.7708 H         1 UNK         0.1150 
    139 H139       -3.0547  -17.2634  -49.6624 H         1 UNK         0.0800 
    140 H140       -2.3713  -18.7487  -50.2764 H         1 UNK         0.0800 
    141 H141       -3.3349  -19.7176  -48.3037 H         1 UNK         0.0800 
    142 H142       -2.9802  -19.3681  -46.6335 H         1 UNK         0.0800 
    143 H143       -1.1783  -21.0531  -48.4476 H         1 UNK         0.0600 
    144 H144       -0.7238  -20.0991  -45.7878 H         1 UNK         0.3000 
    145 H145        1.7452  -22.5448  -44.9170 H         1 UNK         0.0600 
    146 H146        2.9978  -20.4528  -44.4825 H         1 UNK         0.0600 
    147 H147        2.9333  -20.7882  -46.2079 H         1 UNK         0.0600 
    148 H148        1.8990  -19.5446  -45.5207 H         1 UNK         0.0600 
    149 H149        0.5556  -20.2927  -43.5596 H         1 UNK         0.3000 
    150 H150       -2.1001  -22.1328  -42.0278 H         1 UNK         0.0600 
    151 H151       -0.1346  -22.7830  -40.6194 H         1 UNK         0.0600 
    152 H152       -1.0074  -21.4312  -39.9152 H         1 UNK         0.0600 
    153 H153        0.5162  -21.1538  -40.7609 H         1 UNK         0.0600 
    154 H154       -1.1433  -19.5058  -41.5665 H         1 UNK         0.3000 
    155 H155       -2.2653  -17.8253  -44.3708 H         1 UNK         0.0600 
    156 H156       -4.5378  -18.1017  -43.3728 H         1 UNK         0.0600 
    157 H157       -3.8467  -16.5411  -42.9610 H         1 UNK         0.0600 
    158 H158       -3.8763  -17.8372  -41.7637 H         1 UNK         0.0600 
    159 H159       -1.6132  -16.7915  -41.8263 H         1 UNK         0.3000 
    160 H160        0.6015  -15.5785  -42.0699 H         1 UNK         0.0600 
    161 H161        1.0185  -18.0548  -40.3026 H         1 UNK         0.0600 
    162 H162       -0.1995  -16.8064  -40.0916 H         1 UNK         0.0600 
    163 H163        1.4931  -16.4180  -39.8551 H         1 UNK         0.0600 
    164 H164        2.6757  -15.7227  -42.6999 H         1 UNK         0.3000 
    165 H165        5.3143  -17.9982  -42.3058 H         1 UNK         0.0600 
    166 H166        5.7939  -17.4551  -44.7100 H         1 UNK         0.0600 
    167 H167        4.5738  -18.7062  -44.5632 H         1 UNK         0.0600 
    168 H168        4.0911  -17.0615  -44.9599 H         1 UNK         0.0600 
    169 H169        5.1203  -15.3776  -43.4486 H         1 UNK         0.3000 
    170 H170        4.7839  -13.4437  -40.6289 H         1 UNK         0.0600 
    171 H171        7.1697  -14.0049  -40.1243 H         1 UNK         0.0600 
    172 H172        7.5651  -13.9060  -41.8358 H         1 UNK         0.0600 
    173 H173        7.0406  -12.4667  -40.9600 H         1 UNK         0.0600 
    174 H174        5.8332  -12.6899  -43.1303 H         1 UNK         0.3000 
    175 H175        4.1611  -11.3550  -44.4086 H         1 UNK         0.0600 
    176 H176        4.2887  -14.0994  -45.7798 H         1 UNK         0.0600 
    177 H177        4.4517  -12.5561  -46.6159 H         1 UNK         0.0600 
    178 H178        5.6409  -13.0377  -45.4231 H         1 UNK         0.0600 
    179 H179        1.9835  -13.1012  -45.4241 H         1 UNK         0.3000 
    180 H180       -0.5796  -11.0782  -44.3763 H         1 UNK         0.0600 
    181 H181        0.4995  -10.5537  -47.1985 H         1 UNK         0.0600 
    182 H182        0.0617   -9.3265  -46.0169 H         1 UNK         0.0600 
    183 H183       -1.1801  -10.3680  -46.6929 H         1 UNK         0.0600 
    184 H184       -0.2042  -12.8442  -46.6764 H         1 UNK         0.3000 
    185 H185       -0.6841  -15.8379  -44.9021 H         1 UNK         0.0600 
    186 H186       -3.0507  -15.0084  -45.0857 H         1 UNK         0.0600 
    187 H187       -2.7165  -14.4447  -46.7189 H         1 UNK         0.0600 
    188 H188       -2.6583  -16.1659  -46.3410 H         1 UNK         0.0600 
    189 H189       -0.6291  -15.3861  -47.6662 H         1 UNK         0.3000 
    190 H190       -2.6419  -21.8725  -45.2896 H         1 UNK         0.3000 
    191 H191       -4.6233  -23.6582  -46.2841 H         1 UNK         0.0600 
    192 H192       -4.6368  -22.7134  -43.9777 H         1 UNK         0.0600 
    193 H193       -4.7215  -24.4692  -43.9512 H         1 UNK         0.0600 
    194 H194       -3.2087  -23.6614  -43.5682 H         1 UNK         0.0600 
    195 H195       -1.2637  -24.2771  -45.1376 H         1 UNK         0.3000 
    196 H196       -1.2339  -27.0662  -45.6197 H         1 UNK         0.0600 
    197 H197        1.2481  -26.7885  -45.4494 H         1 UNK         0.0600 
    198 H198        0.4120  -25.9178  -44.1725 H         1 UNK         0.0600 
    199 H199        1.0657  -25.0410  -45.5542 H         1 UNK         0.0600 
    200 H200       -0.3899  -24.3272  -47.7585 H         1 UNK         0.3000 
    201 H201        0.4907  -25.9402  -49.9727 H         1 UNK         0.0600 
    202 H202        1.2381  -23.5909  -49.5739 H         1 UNK         0.0600 
    203 H203       -0.4055  -23.0110  -49.8504 H         1 UNK         0.0600 
    204 H204        0.5033  -23.7623  -51.1567 H         1 UNK         0.0600 
    205 H205       -2.6418  -25.3578  -48.7923 H         1 UNK         0.3000 
    206 H206       -4.7218  -25.5934  -49.4781 H         1 UNK         0.0600 
    207 H207       -3.9856  -27.8340  -50.3214 H         1 UNK         0.0600 
    208 H208       -5.3053  -27.1688  -51.2707 H         1 UNK         0.0600 
    209 H209       -3.6691  -27.1338  -51.9087 H         1 UNK         0.0600 
    210 H210       -3.5252  -23.2066  -49.9364 H         1 UNK         0.3000 
    211 H211       -4.6648  -22.1559  -52.4915 H         1 UNK         0.0600 
    212 H212       -2.2344  -21.8096  -52.1928 H         1 UNK         0.0600 
    213 H213       -2.4987  -21.0569  -50.6259 H         1 UNK         0.0600 
    214 H214       -3.0779  -20.2717  -52.0975 H         1 UNK         0.0600 
    215 H215       -4.9458  -22.1189  -48.9976 H         1 UNK         0.3000 
    216 H216       -6.2566  -19.6407  -48.5925 H         1 UNK         0.0600 
    217 H217       -7.0172  -20.7135  -46.4523 H         1 UNK         0.0600 
    218 H218       -5.2984  -20.9150  -46.7294 H         1 UNK         0.0600 
    219 H219       -6.4047  -22.2606  -47.0178 H         1 UNK         0.0600 
    220 H220       -7.9090  -19.0943  -49.8644 H         1 UNK         0.3000 
    221 H221       -9.8490  -18.9363  -50.8922 H         1 UNK         0.0600 
    222 H222      -10.9622  -20.9747  -48.8937 H         1 UNK         0.0600 
    223 H223      -10.8375  -19.2391  -48.6094 H         1 UNK         0.0600 
    224 H224      -11.8937  -19.8494  -49.8714 H         1 UNK         0.0600 
    225 H225       -7.9079  -20.6776  -52.0021 H         1 UNK         0.3000 
    226 H226       -9.5749  -22.3915  -53.7389 H         1 UNK         0.0600 
    227 H227       -8.9547  -23.9348  -51.9520 H         1 UNK         0.0600 
    228 H228       -7.9600  -24.3171  -53.3437 H         1 UNK         0.0600 
    229 H229       -7.2826  -23.4078  -51.9859 H         1 UNK         0.0600 
    230 H230       -6.2868  -23.1123  -53.9547 H         1 UNK         0.3000 
    231 H231       -5.9952  -21.9620  -56.5393 H         1 UNK         0.0600 
    232 H232       -3.8940  -23.1089  -54.6114 H         1 UNK         0.0600 
    233 H233       -3.6729  -22.8662  -56.3372 H         1 UNK         0.0600 
    234 H234       -4.8412  -24.0452  -55.7658 H         1 UNK         0.0600 
    235 H235       -4.2856  -20.4660  -57.2584 H         1 UNK         0.3000 
    236 H236       -4.3168  -17.9717  -55.8981 H         1 UNK         0.0600 
    237 H237       -4.0848  -18.1496  -58.3523 H         1 UNK         0.0600 
    238 H238       -2.7094  -17.2833  -57.6869 H         1 UNK         0.0600 
    239 H239       -2.5277  -18.9611  -58.1835 H         1 UNK         0.0600 
    240 H240       -1.8202  -20.4945  -56.1456 H         1 UNK         0.3000 
    241 H241       -0.6856  -19.7871  -53.5988 H         1 UNK         0.0600 
    242 H242        0.3505  -23.2278  -53.4437 H         1 UNK         0.3800 
    243 H243        0.7420  -21.6594  -52.7981 H         1 UNK         0.3800 
    244 H244        1.7404  -20.0570  -54.5735 H         1 UNK         0.0800 
    245 H245        1.0450  -19.7346  -56.1294 H         1 UNK         0.0800 
    246 H246        2.6810  -17.2196  -53.0486 H         1 UNK         0.0800 
    247 H247        1.8976  -18.7305  -52.6815 H         1 UNK         0.0800 
@<TRIPOS>BOND
     1    1    2 1    
     2    1  127 1    
     3    1  128 1    
     4    1  129 1    
     5    2    3 2    
     6    2    4 am   BACKBONE|DICT|INTERRES
     7    4    5 1    
     8    4  130 1    
     9    5    6 1    
    10    5   65 1    
    11    5  131 1    
    12    6    7 1    
    13    6  132 1    
    14    6  133 1    
    15    7    8 1    
    16    8    9 1    
    17    8  134 1    
    18    8  135 1    
    19    9   10 ar   
    20    9   14 ar   
    21   10   11 ar   
    22   10  136 1    
    23   11   12 ar   
    24   11  126 1    
    25   12   13 ar   
    26   12  137 1    
    27   13   14 ar   
    28   13   15 1    
    29   14  138 1    
    30   15   16 1    
    31   15  139 1    
    32   15  140 1    
    33   16   17 1    
    34   17   18 1    
    35   17  141 1    
    36   17  142 1    
    37   18   19 1    
    38   18   67 1    
    39   18  143 1    
    40   19   20 am   BACKBONE|DICT|INTERRES
    41   19  144 1    
    42   20   21 2    
    43   20   22 1    
    44   22   23 1    
    45   22   24 1    
    46   22  145 1    
    47   23  146 1    
    48   23  147 1    
    49   23  148 1    
    50   24   25 am   BACKBONE|DICT|INTERRES
    51   24  149 1    
    52   25   26 2    
    53   25   27 1    
    54   27   28 1    
    55   27   29 1    
    56   27  150 1    
    57   28  151 1    
    58   28  152 1    
    59   28  153 1    
    60   29   30 am   BACKBONE|DICT|INTERRES
    61   29  154 1    
    62   30   31 2    
    63   30   32 1    
    64   32   33 1    
    65   32   34 1    
    66   32  155 1    
    67   33  156 1    
    68   33  157 1    
    69   33  158 1    
    70   34   35 am   BACKBONE|DICT|INTERRES
    71   34  159 1    
    72   35   36 2    
    73   35   37 1    
    74   37   38 1    
    75   37   39 1    
    76   37  160 1    
    77   38  161 1    
    78   38  162 1    
    79   38  163 1    
    80   39   40 am   BACKBONE|DICT|INTERRES
    81   39  164 1    
    82   40   41 2    
    83   40   42 1    
    84   42   43 1    
    85   42   44 1    
    86   42  165 1    
    87   43  166 1    
    88   43  167 1    
    89   43  168 1    
    90   44   45 am   BACKBONE|DICT|INTERRES
    91   44  169 1    
    92   45   46 2    
    93   45   47 1    
    94   47   48 1    
    95   47   49 1    
    96   47  170 1    
    97   48  171 1    
    98   48  172 1    
    99   48  173 1    
   100   49   50 am   BACKBONE|DICT|INTERRES
   101   49  174 1    
   102   50   51 2    
   103   50   52 1    
   104   52   53 1    
   105   52   54 1    
   106   52  175 1    
   107   53  176 1    
   108   53  177 1    
   109   53  178 1    
   110   54   55 am   BACKBONE|DICT|INTERRES
   111   54  179 1    
   112   55   56 2    
   113   55   57 1    
   114   57   58 1    
   115   57   59 1    
   116   57  180 1    
   117   58  181 1    
   118   58  182 1    
   119   58  183 1    
   120   59   60 am   BACKBONE|DICT|INTERRES
   121   59  184 1    
   122   60   61 2    
   123   60   62 1    
   124   62   63 1    
   125   62   64 1    
   126   62  185 1    
   127   63  186 1    
   128   63  187 1    
   129   63  188 1    
   130   64   65 am   BACKBONE|DICT|INTERRES
   131   64  189 1    
   132   65   66 2    
   133   67   68 2    
   134   67   69 am   BACKBONE|DICT|INTERRES
   135   69   70 1    
   136   69  190 1    
   137   70   71 1    
   138   70   72 1    
   139   70  191 1    
   140   71  192 1    
   141   71  193 1    
   142   71  194 1    
   143   72   73 2    
   144   72   74 am   BACKBONE|DICT|INTERRES
   145   74   75 1    
   146   74  195 1    
   147   75   76 1    
   148   75   77 1    
   149   75  196 1    
   150   76  197 1    
   151   76  198 1    
   152   76  199 1    
   153   77   78 2    
   154   77   79 am   BACKBONE|DICT|INTERRES
   155   79   80 1    
   156   79  200 1    
   157   80   81 1    
   158   80   82 1    
   159   80  201 1    
   160   81  202 1    
   161   81  203 1    
   162   81  204 1    
   163   82   83 2    
   164   82   84 am   BACKBONE|DICT|INTERRES
   165   84   85 1    
   166   84  205 1    
   167   85   86 1    
   168   85   87 1    
   169   85  206 1    
   170   86  207 1    
   171   86  208 1    
   172   86  209 1    
   173   87   88 2    
   174   87   89 am   BACKBONE|DICT|INTERRES
   175   89   90 1    
   176   89  210 1    
   177   90   91 1    
   178   90   92 1    
   179   90  211 1    
   180   91  212 1    
   181   91  213 1    
   182   91  214 1    
   183   92   93 2    
   184   92   94 am   BACKBONE|DICT|INTERRES
   185   94   95 1    
   186   94  215 1    
   187   95   96 1    
   188   95   97 1    
   189   95  216 1    
   190   96  217 1    
   191   96  218 1    
   192   96  219 1    
   193   97   98 2    
   194   97   99 am   BACKBONE|DICT|INTERRES
   195   99  100 1    
   196   99  220 1    
   197  100  101 1    
   198  100  102 1    
   199  100  221 1    
   200  101  222 1    
   201  101  223 1    
   202  101  224 1    
   203  102  103 2    
   204  102  104 am   BACKBONE|DICT|INTERRES
   205  104  105 1    
   206  104  225 1    
   207  105  106 1    
   208  105  107 1    
   209  105  226 1    
   210  106  227 1    
   211  106  228 1    
   212  106  229 1    
   213  107  108 2    
   214  107  109 am   BACKBONE|DICT|INTERRES
   215  109  110 1    
   216  109  230 1    
   217  110  111 1    
   218  110  112 1    
   219  110  231 1    
   220  111  232 1    
   221  111  233 1    
   222  111  234 1    
   223  112  113 2    
   224  112  114 am   BACKBONE|DICT|INTERRES
   225  114  115 1    
   226  114  235 1    
   227  115  116 1    
   228  115  117 1    
   229  115  236 1    
   230  116  237 1    
   231  116  238 1    
   232  116  239 1    
   233  117  118 2    
   234  117  119 am   BACKBONE|DICT|INTERRES
   235  119  120 1    
   236  119  240 1    
   237  120  121 1    
   238  120  124 1    
   239  120  241 1    
   240  121  122 am   BACKBONE|DICT|INTERRES
   241  121  123 2    
   242  122  242 1    
   243  122  243 1    
   244  124  125 1    
   245  124  244 1    
   246  124  245 1    
   247  125  126 1    
   248  126  246 1    
   249  126  247 1    
@<TRIPOS>SUBSTRUCTURE
     1 UNK         1 GROUP             0       ****    0 ROOT    
