@<TRIPOS>MOLECULE
3R540
247   249    1
SMALL
USER_CHARGES


@<TRIPOS>ATOM
      1 CA          5.7747  -12.4130  -49.1878 C.3       0 UNK        -0.1800 
      2 C           4.2642  -12.2929  -49.0362 C.2       0 UNK         0.5000 
      3 O           3.7427  -11.1776  -49.0463 O.2       0 UNK        -0.5000 
      4 N           3.5796  -13.4394  -48.9028 N.am      1 UNK        -0.5000 
      5 CA          2.1291  -13.6063  -48.7084 C.3       1 UNK         0.1400 
      6 C6          1.2543  -12.8906  -49.7793 C.3       23 UNK        -0.0398 
      7 S7          1.7647  -13.2189  -51.5037 S.3       23 UNK        -0.2404 
      8 C8          0.2991  -14.0344  -52.2056 C.3       23 UNK        -0.0205 
      9 C9          0.3115  -15.5362  -51.9713 C.ar      23 UNK        -0.0193 
     10 C10         1.1362  -16.3496  -52.7549 C.ar      23 UNK        -0.1150 
     11 C11         1.0995  -17.7388  -52.6184 C.ar      23 UNK        -0.0193 
     12 C12         0.2460  -18.3126  -51.6743 C.ar      23 UNK        -0.1150 
     13 C13        -0.5802  -17.5117  -50.8830 C.ar      23 UNK        -0.0193 
     14 C14        -0.5387  -16.1211  -51.0271 C.ar      23 UNK        -0.1150 
     15 C15        -1.5524  -18.1672  -49.9193 C.3       23 UNK        -0.0205 
     16 S16        -0.7562  -18.5906  -48.3391 S.3       23 UNK        -0.2404 
     17 C17        -1.9891  -19.7466  -47.6603 C.3       23 UNK        -0.0398 
     18 CA         -1.3834  -21.1298  -47.3249 C.3       11 UNK         0.1400 
     19 N          -0.4249  -21.0779  -46.2160 N.am      11 UNK        -0.5000 
     20 C           0.3676  -22.0938  -45.8420 C.2       10 UNK         0.5000 
     21 O           0.4155  -23.1748  -46.4262 O.2       10 UNK        -0.5000 
     22 CA          1.1976  -21.8900  -44.5627 C.3       10 UNK         0.1400 
     23 CB          2.5196  -21.1748  -44.8750 C.3       10 UNK        -0.1800 
     24 N           0.4497  -21.1474  -43.5470 N.am      10 UNK        -0.5000 
     25 C          -0.6094  -21.6486  -42.8930 C.2       9 UNK         0.5000 
     26 O          -1.0111  -22.8028  -43.0369 O.2       9 UNK        -0.5000 
     27 CA         -1.3899  -20.6942  -41.9724 C.3       9 UNK         0.1400 
     28 CB         -0.8211  -20.7300  -40.5484 C.3       9 UNK        -0.1800 
     29 N          -1.4134  -19.3201  -42.4791 N.am      9 UNK        -0.5000 
     30 C          -2.0603  -18.9511  -43.5949 C.2       8 UNK         0.5000 
     31 O          -2.7208  -19.7435  -44.2680 O.2       8 UNK        -0.5000 
     32 CA         -1.9119  -17.4950  -44.0887 C.3       8 UNK         0.1400 
     33 CB         -3.2367  -16.9183  -44.6273 C.3       8 UNK        -0.1800 
     34 N          -1.2895  -16.5797  -43.1292 N.am      8 UNK        -0.5000 
     35 C          -1.7539  -16.1718  -41.9400 C.2       7 UNK         0.5000 
     36 O          -2.8481  -16.4914  -41.4735 O.2       7 UNK        -0.5000 
     37 CA         -0.7833  -15.2794  -41.1375 C.3       7 UNK         0.1400 
     38 CB         -1.2348  -15.0290  -39.6837 C.3       7 UNK        -0.1800 
     39 N           0.5920  -15.7962  -41.1882 N.am      7 UNK        -0.5000 
     40 C           1.0196  -16.9836  -40.7342 C.2       6 UNK         0.5000 
     41 O           0.3048  -17.7813  -40.1292 O.2       6 UNK        -0.5000 
     42 CA          2.4827  -17.3438  -41.0598 C.3       6 UNK         0.1400 
     43 CB          2.8539  -18.7948  -40.6866 C.3       6 UNK        -0.1800 
     44 N           2.8301  -17.0689  -42.4572 N.am      6 UNK        -0.5000 
     45 C           2.2845  -17.6072  -43.5600 C.2       5 UNK         0.5000 
     46 O           1.3626  -18.4242  -43.5340 O.2       5 UNK        -0.5000 
     47 CA          2.8529  -17.1385  -44.9173 C.3       5 UNK         0.1400 
     48 CB          1.7987  -17.1798  -46.0392 C.3       5 UNK        -0.1800 
     49 N           3.3852  -15.7801  -44.8194 N.am      5 UNK        -0.5000 
     50 C           4.6668  -15.4504  -44.6099 C.2       4 UNK         0.5000 
     51 O           5.5849  -16.2693  -44.5800 O.2       4 UNK        -0.5000 
     52 CA          4.9719  -13.9625  -44.3427 C.3       4 UNK         0.1400 
     53 CB          5.6295  -13.3156  -45.5686 C.3       4 UNK        -0.1800 
     54 N           3.7799  -13.1946  -43.9694 N.am      4 UNK        -0.5000 
     55 C           3.1893  -13.2568  -42.7667 C.2       3 UNK         0.5000 
     56 O           3.5988  -13.9585  -41.8416 O.2       3 UNK        -0.5000 
     57 CA          1.8853  -12.4564  -42.5828 C.3       3 UNK         0.1400 
     58 CB          2.1943  -11.0158  -42.1510 C.3       3 UNK        -0.1800 
     59 N           1.0378  -12.4303  -43.7770 N.am      3 UNK        -0.5000 
     60 C           0.5380  -13.5037  -44.4044 C.2       2 UNK         0.5000 
     61 O           0.7227  -14.6588  -44.0202 O.2       2 UNK        -0.5000 
     62 CA         -0.2761  -13.2624  -45.6918 C.3       2 UNK         0.1400 
     63 CB         -0.8170  -11.8215  -45.8193 C.3       2 UNK        -0.1800 
     64 N           0.4588  -13.6283  -46.9100 N.am      2 UNK        -0.5000 
     65 C           1.6785  -13.2061  -47.2815 C.2       1 UNK         0.5000 
     66 O           2.4105  -12.5270  -46.5562 O.2       1 UNK        -0.5000 
     67 C          -2.5052  -22.1517  -47.0577 C.2       11 UNK         0.5000 
     68 O          -2.9066  -22.8588  -47.9820 O.2       11 UNK        -0.5000 
     69 N          -2.9822  -22.2239  -45.8081 N.am      12 UNK        -0.5000 
     70 CA         -3.9568  -23.2145  -45.3564 C.3       12 UNK         0.1400 
     71 CB         -4.4891  -22.8238  -43.9698 C.3       12 UNK        -0.1800 
     72 C          -3.3756  -24.6399  -45.3524 C.2       12 UNK         0.5000 
     73 O          -4.0200  -25.5531  -45.8676 O.2       12 UNK        -0.5000 
     74 N          -2.1582  -24.7987  -44.8119 N.am      13 UNK        -0.5000 
     75 CA         -1.4341  -26.0710  -44.7356 C.3       13 UNK         0.1400 
     76 CB         -0.1709  -25.8932  -43.8802 C.3       13 UNK        -0.1800 
     77 C          -1.0753  -26.6551  -46.1148 C.2       13 UNK         0.5000 
     78 O          -1.2056  -27.8631  -46.3156 O.2       13 UNK        -0.5000 
     79 N          -0.6595  -25.7874  -47.0472 N.am      14 UNK        -0.5000 
     80 CA         -0.3601  -26.1376  -48.4381 C.3       14 UNK         0.1400 
     81 CB          0.5042  -25.0236  -49.0509 C.3       14 UNK        -0.1800 
     82 C          -1.6188  -26.3603  -49.3010 C.2       14 UNK         0.5000 
     83 O          -1.4943  -26.8518  -50.4229 O.2       14 UNK        -0.5000 
     84 N          -2.7903  -25.9562  -48.7858 N.am      15 UNK        -0.5000 
     85 CA         -4.1022  -25.9132  -49.4425 C.3       15 UNK         0.1400 
     86 CB         -4.5683  -27.3164  -49.8798 C.3       15 UNK        -0.1800 
     87 C          -4.1876  -24.8782  -50.5844 C.2       15 UNK         0.5000 
     88 O          -5.1517  -24.8916  -51.3502 O.2       15 UNK        -0.5000 
     89 N          -3.2181  -23.9551  -50.6463 N.am      16 UNK        -0.5000 
     90 CA         -3.1780  -22.8271  -51.5744 C.3       16 UNK         0.1400 
     91 CB         -1.8150  -22.1253  -51.4739 C.3       16 UNK        -0.1800 
     92 C          -4.3197  -21.8299  -51.3225 C.2       16 UNK         0.5000 
     93 O          -4.8520  -21.2728  -52.2806 O.2       16 UNK        -0.5000 
     94 N          -4.7091  -21.6672  -50.0487 N.am      17 UNK        -0.5000 
     95 CA         -5.8618  -20.8667  -49.6305 C.3       17 UNK         0.1400 
     96 CB         -5.8666  -20.7322  -48.0991 C.3       17 UNK        -0.1800 
     97 C          -7.2019  -21.4535  -50.1142 C.2       17 UNK         0.5000 
     98 O          -8.0979  -20.6954  -50.4849 O.2       17 UNK        -0.5000 
     99 N          -7.3079  -22.7898  -50.1100 N.am      18 UNK        -0.5000 
    100 CA        -8.4864  -23.5289  -50.5632 C.3       18 UNK         0.1400 
    101 CB        -8.4604  -24.9467  -49.9703 C.3       18 UNK        -0.1800 
    102 C         -8.5781  -23.5759  -52.0979 C.2       18 UNK         0.5000 
    103 O         -9.6637  -23.3949  -52.6502 O.2       18 UNK        -0.5000 
    104 N         -7.4329  -23.7995  -52.7564 N.am      19 UNK        -0.5000 
    105 CA        -7.2999  -23.8358  -54.2137 C.3       19 UNK         0.1400 
    106 CB        -5.9570  -24.4952  -54.5660 C.3       19 UNK        -0.1800 
    107 C         -7.3950  -22.4483  -54.8787 C.2       19 UNK         0.5000 
    108 O         -7.6627  -22.3788  -56.0788 O.2       19 UNK        -0.5000 
    109 N         -7.1416  -21.3854  -54.0997 N.am      20 UNK        -0.5000 
    110 CA        -6.9571  -19.9917  -54.5201 C.3       20 UNK         0.1400 
    111 CB        -8.2561  -19.4041  -55.1101 C.3       20 UNK        -0.1800 
    112 C         -5.7310  -19.8383  -55.4463 C.2       20 UNK         0.5000 
    113 O         -5.7853  -19.1239  -56.4495 O.2       20 UNK        -0.5000 
    114 N         -4.6510  -20.5463  -55.0954 N.am      21 UNK        -0.5000 
    115 CA        -3.3869  -20.5686  -55.8219 C.3       21 UNK         0.1400 
    116 CB        -2.6982  -21.9202  -55.5779 C.3       21 UNK        -0.1800 
    117 C         -2.4842  -19.4151  -55.3602 C.2       21 UNK         0.5000 
    118 O         -2.4553  -19.1144  -54.1649 O.2       21 UNK        -0.5000 
    119 N         -1.7643  -18.8214  -56.3220 N.am      22 UNK        -0.5000 
    120 CA        -0.7518  -17.7442  -56.2356 C.3       22 UNK         0.1400 
    121 C         -1.0643  -16.4535  -55.4147 C.2       22 UNK         0.5000 
    122 N         -2.0600  -16.4246  -54.5442 N.am      22 UNK        -0.7600 
    123 O         -0.4142  -15.4319  -55.6211 O.2       22 UNK        -0.5000 
    124 C124        0.7065  -18.2615  -56.0371 C.3       23 UNK        -0.0398 
    125 S125        0.9685  -19.5201  -54.7354 S.3       23 UNK        -0.2404 
    126 C126        1.9629  -18.6280  -53.4972 C.3       23 UNK        -0.0205 
    127 H127        6.1080  -13.4497  -49.1336 H         1 UNK         0.0600 
    128 H128        6.2760  -11.8547  -48.3971 H         1 UNK         0.0600 
    129 H129        6.0892  -12.0041  -50.1479 H         1 UNK         0.0600 
    130 H130        4.0998  -14.3047  -48.9042 H         1 UNK         0.3000 
    131 H131        1.9492  -14.6789  -48.8003 H         1 UNK         0.0600 
    132 H132        0.2089  -13.1778  -49.6607 H         1 UNK         0.0800 
    133 H133        1.2757  -11.8096  -49.6331 H         1 UNK         0.0800 
    134 H134        0.2846  -13.8492  -53.2809 H         1 UNK         0.0800 
    135 H135       -0.6132  -13.5811  -51.8155 H         1 UNK         0.0800 
    136 H136        1.7814  -15.8980  -53.4954 H         1 UNK         0.1150 
    137 H137        0.2047  -19.3884  -51.5756 H         1 UNK         0.1150 
    138 H138       -1.1903  -15.4996  -50.4295 H         1 UNK         0.1150 
    139 H139       -1.9546  -19.0671  -50.3879 H         1 UNK         0.0800 
    140 H140       -2.4045  -17.5125  -49.7306 H         1 UNK         0.0800 
    141 H141       -2.7947  -19.8570  -48.3871 H         1 UNK         0.0800 
    142 H142       -2.4448  -19.2908  -46.7825 H         1 UNK         0.0800 
    143 H143       -0.8405  -21.4840  -48.2036 H         1 UNK         0.0600 
    144 H144       -0.4129  -20.2318  -45.6679 H         1 UNK         0.3000 
    145 H145        1.4374  -22.8741  -44.1551 H         1 UNK         0.0600 
    146 H146        3.1363  -21.7769  -45.5433 H         1 UNK         0.0600 
    147 H147        3.0979  -20.9967  -43.9682 H         1 UNK         0.0600 
    148 H148        2.3545  -20.2153  -45.3630 H         1 UNK         0.0600 
    149 H149        0.7125  -20.1745  -43.4026 H         1 UNK         0.3000 
    150 H150       -2.4216  -21.0489  -41.9266 H         1 UNK         0.0600 
    151 H151        0.2267  -20.4329  -40.5250 H         1 UNK         0.0600 
    152 H152       -0.8837  -21.7354  -40.1305 H         1 UNK         0.0600 
    153 H153       -1.3748  -20.0660  -39.8843 H         1 UNK         0.0600 
    154 H154       -0.8590  -18.6363  -41.9801 H         1 UNK         0.3000 
    155 H155       -1.2186  -17.5466  -44.9291 H         1 UNK         0.0600 
    156 H156       -4.0099  -16.8938  -43.8593 H         1 UNK         0.0600 
    157 H157       -3.6204  -17.5172  -45.4537 H         1 UNK         0.0600 
    158 H158       -3.1011  -15.9036  -45.0013 H         1 UNK         0.0600 
    159 H159       -0.3791  -16.2254  -43.4052 H         1 UNK         0.3000 
    160 H160       -0.7721  -14.3135  -41.6435 H         1 UNK         0.0600 
    161 H161       -1.3381  -15.9573  -39.1214 H         1 UNK         0.0600 
    162 H162       -2.2017  -14.5253  -39.6587 H         1 UNK         0.0600 
    163 H163       -0.5245  -14.3935  -39.1549 H         1 UNK         0.0600 
    164 H164        1.2429  -15.2502  -41.7355 H         1 UNK         0.3000 
    165 H165        3.0989  -16.6801  -40.4515 H         1 UNK         0.0600 
    166 H166        2.6602  -18.9913  -39.6315 H         1 UNK         0.0600 
    167 H167        2.2865  -19.5232  -41.2656 H         1 UNK         0.0600 
    168 H168        3.9127  -18.9850  -40.8615 H         1 UNK         0.0600 
    169 H169        3.5531  -16.3756  -42.5891 H         1 UNK         0.3000 
    170 H170        3.6507  -17.8343  -45.1839 H         1 UNK         0.0600 
    171 H171        2.2214  -16.8520  -46.9888 H         1 UNK         0.0600 
    172 H172        0.9423  -16.5434  -45.8195 H         1 UNK         0.0600 
    173 H173        1.4210  -18.1910  -46.1896 H         1 UNK         0.0600 
    174 H174        2.6870  -15.0494  -44.7600 H         1 UNK         0.3000 
    175 H175        5.6841  -13.9170  -43.5161 H         1 UNK         0.0600 
    176 H176        6.5649  -13.8159  -45.8219 H         1 UNK         0.0600 
    177 H177        4.9805  -13.3759  -46.4395 H         1 UNK         0.0600 
    178 H178        5.8585  -12.2649  -45.3902 H         1 UNK         0.0600 
    179 H179        3.3391  -12.6562  -44.7093 H         1 UNK         0.3000 
    180 H180        1.3162  -12.9328  -41.7828 H         1 UNK         0.0600 
    181 H181        2.7347  -10.4705  -42.9259 H         1 UNK         0.0600 
    182 H182        2.8084  -11.0009  -41.2495 H         1 UNK         0.0600 
    183 H183        1.2798  -10.4657  -41.9284 H         1 UNK         0.0600 
    184 H184        0.8680  -11.5228  -44.1855 H         1 UNK         0.3000 
    185 H185       -1.1351  -13.9327  -45.6320 H         1 UNK         0.0600 
    186 H186       -1.3837  -11.5316  -44.9334 H         1 UNK         0.0600 
    187 H187       -0.0198  -11.0910  -45.9620 H         1 UNK         0.0600 
    188 H188       -1.4923  -11.7366  -46.6708 H         1 UNK         0.0600 
    189 H189       -0.0486  -14.2320  -47.5409 H         1 UNK         0.3000 
    190 H190       -2.6646  -21.5467  -45.1221 H         1 UNK         0.3000 
    191 H191       -4.7976  -23.2025  -46.0526 H         1 UNK         0.0600 
    192 H192       -4.9359  -21.8295  -43.9861 H         1 UNK         0.0600 
    193 H193       -5.2582  -23.5220  -43.6374 H         1 UNK         0.0600 
    194 H194       -3.7009  -22.8227  -43.2174 H         1 UNK         0.0600 
    195 H195       -1.7133  -24.0007  -44.3663 H         1 UNK         0.3000 
    196 H196       -2.0840  -26.7900  -44.2328 H         1 UNK         0.0600 
    197 H197        0.3746  -26.8331  -43.7871 H         1 UNK         0.0600 
    198 H198       -0.4205  -25.5613  -42.8723 H         1 UNK         0.0600 
    199 H199        0.5087  -25.1603  -44.3156 H         1 UNK         0.0600 
    200 H200       -0.5064  -24.8171  -46.7834 H         1 UNK         0.3000 
    201 H201        0.2163  -27.0649  -48.4499 H         1 UNK         0.0600 
    202 H202        0.7851  -25.2616  -50.0777 H         1 UNK         0.0600 
    203 H203        1.4269  -24.8854  -48.4870 H         1 UNK         0.0600 
    204 H204       -0.0237  -24.0690  -49.0675 H         1 UNK         0.0600 
    205 H205       -2.7745  -25.5711  -47.8501 H         1 UNK         0.3000 
    206 H206       -4.7983  -25.5642  -48.6786 H         1 UNK         0.0600 
    207 H207       -4.4970  -28.0290  -49.0582 H         1 UNK         0.0600 
    208 H208       -5.6099  -27.2982  -50.2026 H         1 UNK         0.0600 
    209 H209       -3.9792  -27.7010  -50.7124 H         1 UNK         0.0600 
    210 H210       -2.5263  -23.9608  -49.9096 H         1 UNK         0.3000 
    211 H211       -3.2930  -23.2210  -52.5856 H         1 UNK         0.0600 
    212 H212       -1.0005  -22.8089  -51.7136 H         1 UNK         0.0600 
    213 H213       -1.7534  -21.2886  -52.1719 H         1 UNK         0.0600 
    214 H214       -1.6380  -21.7295  -50.4740 H         1 UNK         0.0600 
    215 H215       -4.2042  -22.1704  -49.3261 H         1 UNK         0.3000 
    216 H216       -5.7584  -19.8696  -50.0638 H         1 UNK         0.0600 
    217 H217       -5.9079  -21.7057  -47.6103 H         1 UNK         0.0600 
    218 H218       -6.7315  -20.1601  -47.7606 H         1 UNK         0.0600 
    219 H219       -4.9814  -20.2124  -47.7377 H         1 UNK         0.0600 
    220 H220       -6.5098  -23.3374  -49.8268 H         1 UNK         0.3000 
    221 H221       -9.3797  -23.0241  -50.1887 H         1 UNK         0.0600 
    222 H222       -7.5893  -25.5116  -50.3030 H         1 UNK         0.0600 
    223 H223       -8.4452  -24.9181  -48.8807 H         1 UNK         0.0600 
    224 H224       -9.3468  -25.5083  -50.2679 H         1 UNK         0.0600 
    225 H225       -6.5947  -24.0126  -52.2217 H         1 UNK         0.3000 
    226 H226       -8.1037  -24.4539  -54.6190 H         1 UNK         0.0600 
    227 H227       -5.8913  -25.5023  -54.1536 H         1 UNK         0.0600 
    228 H228       -5.8301  -24.5766  -55.6462 H         1 UNK         0.0600 
    229 H229       -5.1152  -23.9200  -54.1787 H         1 UNK         0.0600 
    230 H230       -6.8728  -21.5750  -53.1428 H         1 UNK         0.3000 
    231 H231       -6.7253  -19.4305  -53.6137 H         1 UNK         0.0600 
    232 H232       -8.5190  -19.8663  -56.0618 H         1 UNK         0.0600 
    233 H233       -8.1520  -18.3331  -55.2869 H         1 UNK         0.0600 
    234 H234       -9.0947  -19.5404  -54.4272 H         1 UNK         0.0600 
    235 H235       -4.6620  -21.0007  -54.1872 H         1 UNK         0.3000 
    236 H236       -3.5852  -20.4713  -56.8916 H         1 UNK         0.0600 
    237 H237       -2.4444  -22.0576  -54.5270 H         1 UNK         0.0600 
    238 H238       -3.3358  -22.7505  -55.8822 H         1 UNK         0.0600 
    239 H239       -1.7716  -21.9932  -56.1486 H         1 UNK         0.0600 
    240 H240       -1.9100  -19.1576  -57.2628 H         1 UNK         0.3000 
    241 H241       -0.7652  -17.3532  -57.2541 H         1 UNK         0.0600 
    242 H242       -2.2574  -15.5848  -54.0268 H         1 UNK         0.3800 
    243 H243       -2.4856  -17.3102  -54.2818 H         1 UNK         0.3800 
    244 H244        1.0304  -18.7280  -56.9682 H         1 UNK         0.0800 
    245 H245        1.4006  -17.4324  -55.8906 H         1 UNK         0.0800 
    246 H246        2.4716  -19.3586  -52.8667 H         1 UNK         0.0800 
    247 H247        2.7487  -18.0542  -53.9906 H         1 UNK         0.0800 
@<TRIPOS>BOND
     1    1    2 1    
     2    1  127 1    
     3    1  128 1    
     4    1  129 1    
     5    2    3 2    
     6    2    4 am   BACKBONE|DICT|INTERRES
     7    4    5 1    
     8    4  130 1    
     9    5    6 1    
    10    5   65 1    
    11    5  131 1    
    12    6    7 1    
    13    6  132 1    
    14    6  133 1    
    15    7    8 1    
    16    8    9 1    
    17    8  134 1    
    18    8  135 1    
    19    9   10 ar   
    20    9   14 ar   
    21   10   11 ar   
    22   10  136 1    
    23   11   12 ar   
    24   11  126 1    
    25   12   13 ar   
    26   12  137 1    
    27   13   14 ar   
    28   13   15 1    
    29   14  138 1    
    30   15   16 1    
    31   15  139 1    
    32   15  140 1    
    33   16   17 1    
    34   17   18 1    
    35   17  141 1    
    36   17  142 1    
    37   18   19 1    
    38   18   67 1    
    39   18  143 1    
    40   19   20 am   BACKBONE|DICT|INTERRES
    41   19  144 1    
    42   20   21 2    
    43   20   22 1    
    44   22   23 1    
    45   22   24 1    
    46   22  145 1    
    47   23  146 1    
    48   23  147 1    
    49   23  148 1    
    50   24   25 am   BACKBONE|DICT|INTERRES
    51   24  149 1    
    52   25   26 2    
    53   25   27 1    
    54   27   28 1    
    55   27   29 1    
    56   27  150 1    
    57   28  151 1    
    58   28  152 1    
    59   28  153 1    
    60   29   30 am   BACKBONE|DICT|INTERRES
    61   29  154 1    
    62   30   31 2    
    63   30   32 1    
    64   32   33 1    
    65   32   34 1    
    66   32  155 1    
    67   33  156 1    
    68   33  157 1    
    69   33  158 1    
    70   34   35 am   BACKBONE|DICT|INTERRES
    71   34  159 1    
    72   35   36 2    
    73   35   37 1    
    74   37   38 1    
    75   37   39 1    
    76   37  160 1    
    77   38  161 1    
    78   38  162 1    
    79   38  163 1    
    80   39   40 am   BACKBONE|DICT|INTERRES
    81   39  164 1    
    82   40   41 2    
    83   40   42 1    
    84   42   43 1    
    85   42   44 1    
    86   42  165 1    
    87   43  166 1    
    88   43  167 1    
    89   43  168 1    
    90   44   45 am   BACKBONE|DICT|INTERRES
    91   44  169 1    
    92   45   46 2    
    93   45   47 1    
    94   47   48 1    
    95   47   49 1    
    96   47  170 1    
    97   48  171 1    
    98   48  172 1    
    99   48  173 1    
   100   49   50 am   BACKBONE|DICT|INTERRES
   101   49  174 1    
   102   50   51 2    
   103   50   52 1    
   104   52   53 1    
   105   52   54 1    
   106   52  175 1    
   107   53  176 1    
   108   53  177 1    
   109   53  178 1    
   110   54   55 am   BACKBONE|DICT|INTERRES
   111   54  179 1    
   112   55   56 2    
   113   55   57 1    
   114   57   58 1    
   115   57   59 1    
   116   57  180 1    
   117   58  181 1    
   118   58  182 1    
   119   58  183 1    
   120   59   60 am   BACKBONE|DICT|INTERRES
   121   59  184 1    
   122   60   61 2    
   123   60   62 1    
   124   62   63 1    
   125   62   64 1    
   126   62  185 1    
   127   63  186 1    
   128   63  187 1    
   129   63  188 1    
   130   64   65 am   BACKBONE|DICT|INTERRES
   131   64  189 1    
   132   65   66 2    
   133   67   68 2    
   134   67   69 am   BACKBONE|DICT|INTERRES
   135   69   70 1    
   136   69  190 1    
   137   70   71 1    
   138   70   72 1    
   139   70  191 1    
   140   71  192 1    
   141   71  193 1    
   142   71  194 1    
   143   72   73 2    
   144   72   74 am   BACKBONE|DICT|INTERRES
   145   74   75 1    
   146   74  195 1    
   147   75   76 1    
   148   75   77 1    
   149   75  196 1    
   150   76  197 1    
   151   76  198 1    
   152   76  199 1    
   153   77   78 2    
   154   77   79 am   BACKBONE|DICT|INTERRES
   155   79   80 1    
   156   79  200 1    
   157   80   81 1    
   158   80   82 1    
   159   80  201 1    
   160   81  202 1    
   161   81  203 1    
   162   81  204 1    
   163   82   83 2    
   164   82   84 am   BACKBONE|DICT|INTERRES
   165   84   85 1    
   166   84  205 1    
   167   85   86 1    
   168   85   87 1    
   169   85  206 1    
   170   86  207 1    
   171   86  208 1    
   172   86  209 1    
   173   87   88 2    
   174   87   89 am   BACKBONE|DICT|INTERRES
   175   89   90 1    
   176   89  210 1    
   177   90   91 1    
   178   90   92 1    
   179   90  211 1    
   180   91  212 1    
   181   91  213 1    
   182   91  214 1    
   183   92   93 2    
   184   92   94 am   BACKBONE|DICT|INTERRES
   185   94   95 1    
   186   94  215 1    
   187   95   96 1    
   188   95   97 1    
   189   95  216 1    
   190   96  217 1    
   191   96  218 1    
   192   96  219 1    
   193   97   98 2    
   194   97   99 am   BACKBONE|DICT|INTERRES
   195   99  100 1    
   196   99  220 1    
   197  100  101 1    
   198  100  102 1    
   199  100  221 1    
   200  101  222 1    
   201  101  223 1    
   202  101  224 1    
   203  102  103 2    
   204  102  104 am   BACKBONE|DICT|INTERRES
   205  104  105 1    
   206  104  225 1    
   207  105  106 1    
   208  105  107 1    
   209  105  226 1    
   210  106  227 1    
   211  106  228 1    
   212  106  229 1    
   213  107  108 2    
   214  107  109 am   BACKBONE|DICT|INTERRES
   215  109  110 1    
   216  109  230 1    
   217  110  111 1    
   218  110  112 1    
   219  110  231 1    
   220  111  232 1    
   221  111  233 1    
   222  111  234 1    
   223  112  113 2    
   224  112  114 am   BACKBONE|DICT|INTERRES
   225  114  115 1    
   226  114  235 1    
   227  115  116 1    
   228  115  117 1    
   229  115  236 1    
   230  116  237 1    
   231  116  238 1    
   232  116  239 1    
   233  117  118 2    
   234  117  119 am   BACKBONE|DICT|INTERRES
   235  119  120 1    
   236  119  240 1    
   237  120  121 1    
   238  120  124 1    
   239  120  241 1    
   240  121  122 am   BACKBONE|DICT|INTERRES
   241  121  123 2    
   242  122  242 1    
   243  122  243 1    
   244  124  125 1    
   245  124  244 1    
   246  124  245 1    
   247  125  126 1    
   248  126  246 1    
   249  126  247 1    
@<TRIPOS>SUBSTRUCTURE
     1 UNK         1 GROUP             0       ****    0 ROOT    
