@<TRIPOS>MOLECULE
3R540
247   249    1
SMALL
USER_CHARGES


@<TRIPOS>ATOM
      1 CA          5.4456  -14.6816  -48.4255 C.3       0 UNK        -0.1800 
      2 C           4.3075  -14.2644  -47.5060 C.2       0 UNK         0.5000 
      3 O           4.2115  -14.7625  -46.3844 O.2       0 UNK        -0.5000 
      4 N           3.4414  -13.3616  -47.9747 N.am      1 UNK        -0.5000 
      5 CA          2.3064  -12.8311  -47.2228 C.3       1 UNK         0.1400 
      6 C6          0.9619  -13.0788  -47.9430 C.3       23 UNK        -0.0398 
      7 S7          0.4945  -14.8422  -47.9107 S.3       23 UNK        -0.2404 
      8 C8          0.6444  -15.3128  -49.6611 C.3       23 UNK        -0.0205 
      9 C9         -0.1839  -16.5500  -49.9778 C.ar      23 UNK        -0.0193 
     10 C10        -1.5757  -16.4520  -50.0295 C.ar      23 UNK        -0.1150 
     11 C11        -2.3619  -17.5580  -50.3627 C.ar      23 UNK        -0.0193 
     12 C12        -1.7379  -18.7749  -50.6526 C.ar      23 UNK        -0.1150 
     13 C13        -0.3435  -18.8975  -50.5898 C.ar      23 UNK        -0.0193 
     14 C14         0.4257  -17.7785  -50.2483 C.ar      23 UNK        -0.1150 
     15 C15         0.3557  -20.2154  -50.9219 C.3       23 UNK        -0.0205 
     16 S16        -0.4964  -21.7042  -50.2949 S.3       23 UNK        -0.2404 
     17 C17        -0.5341  -21.3533  -48.5093 C.3       23 UNK        -0.0398 
     18 CA         -0.6413  -22.6164  -47.6240 C.3       11 UNK         0.1400 
     19 N          -0.2024  -22.3297  -46.2549 N.am      11 UNK        -0.5000 
     20 C          -0.1612  -23.1842  -45.2227 C.2       10 UNK         0.5000 
     21 O          -0.5412  -24.3531  -45.2797 O.2       10 UNK        -0.5000 
     22 CA          0.3518  -22.6160  -43.8914 C.3       10 UNK         0.1400 
     23 CB          1.8812  -22.4699  -43.9095 C.3       10 UNK        -0.1800 
     24 N          -0.2637  -21.3198  -43.6148 N.am      10 UNK        -0.5000 
     25 C          -1.4736  -21.1658  -43.0607 C.2       9 UNK         0.5000 
     26 O          -2.1580  -22.0988  -42.6398 O.2       9 UNK        -0.5000 
     27 CA         -2.0235  -19.7291  -42.9799 C.3       9 UNK         0.1400 
     28 CB         -1.5781  -19.0523  -41.6750 C.3       9 UNK        -0.1800 
     29 N          -1.6269  -18.8906  -44.1117 N.am      9 UNK        -0.5000 
     30 C          -2.0081  -19.0895  -45.3818 C.2       8 UNK         0.5000 
     31 O          -2.7251  -20.0202  -45.7476 O.2       8 UNK        -0.5000 
     32 CA         -1.4577  -18.1027  -46.4278 C.3       8 UNK         0.1400 
     33 CB         -2.3385  -16.8443  -46.4613 C.3       8 UNK        -0.1800 
     34 N          -0.0617  -17.7130  -46.2090 N.am      8 UNK        -0.5000 
     35 C           0.9758  -18.5381  -46.0018 C.2       7 UNK         0.5000 
     36 O           0.8812  -19.7640  -45.9629 O.2       7 UNK        -0.5000 
     37 CA          2.3521  -17.8961  -45.7574 C.3       7 UNK         0.1400 
     38 CB          3.1446  -17.8465  -47.0725 C.3       7 UNK        -0.1800 
     39 N           2.3055  -16.5557  -45.1663 N.am      7 UNK        -0.5000 
     40 C           1.7298  -16.2307  -44.0004 C.2       6 UNK         0.5000 
     41 O           1.1203  -17.0273  -43.2815 O.2       6 UNK        -0.5000 
     42 CA          1.8023  -14.7451  -43.6039 C.3       6 UNK         0.1400 
     43 CB          0.4972  -14.0281  -43.9847 C.3       6 UNK        -0.1800 
     44 N           2.0457  -14.5433  -42.1775 N.am      6 UNK        -0.5000 
     45 C           3.1545  -14.9141  -41.5220 C.2       5 UNK         0.5000 
     46 O           4.1029  -15.4930  -42.0558 O.2       5 UNK        -0.5000 
     47 CA          3.2131  -14.5426  -40.0225 C.3       5 UNK         0.1400 
     48 CB          4.6354  -14.6427  -39.4316 C.3       5 UNK        -0.1800 
     49 N           2.6261  -13.2275  -39.7282 N.am      5 UNK        -0.5000 
     50 C           2.9946  -12.0454  -40.2447 C.2       4 UNK         0.5000 
     51 O           3.9094  -11.8937  -41.0572 O.2       4 UNK        -0.5000 
     52 CA          2.1793  -10.8221  -39.7925 C.3       4 UNK         0.1400 
     53 CB          3.0855   -9.7394  -39.1851 C.3       4 UNK        -0.1800 
     54 N           1.4467  -10.2545  -40.9203 N.am      4 UNK        -0.5000 
     55 C           0.3905  -10.8174  -41.5168 C.2       3 UNK         0.5000 
     56 O          -0.1164  -11.8773  -41.1465 O.2       3 UNK        -0.5000 
     57 CA         -0.1845  -10.0888  -42.7470 C.3       3 UNK         0.1400 
     58 CB         -0.7643   -8.7081  -42.3803 C.3       3 UNK        -0.1800 
     59 N           0.7592  -10.0060  -43.8700 N.am      3 UNK        -0.5000 
     60 C           1.9221   -9.3393  -43.9516 C.2       2 UNK         0.5000 
     61 O           2.3596   -8.6099  -43.0599 O.2       2 UNK        -0.5000 
     62 CA          2.7384   -9.5610  -45.2402 C.3       2 UNK         0.1400 
     63 CB          4.2372   -9.2492  -45.0650 C.3       2 UNK        -0.1800 
     64 N           2.5719  -10.9387  -45.7061 N.am      2 UNK        -0.5000 
     65 C           2.5486  -11.3333  -46.9838 C.2       1 UNK         0.5000 
     66 O           2.7013  -10.5782  -47.9462 O.2       1 UNK        -0.5000 
     67 C          -2.0569  -23.2249  -47.6866 C.2       11 UNK         0.5000 
     68 O          -2.2863  -24.1450  -48.4736 O.2       11 UNK        -0.5000 
     69 N          -2.9648  -22.7385  -46.8276 N.am      12 UNK        -0.5000 
     70 CA         -4.3310  -23.2364  -46.6494 C.3       12 UNK         0.1400 
     71 CB         -5.0356  -22.3941  -45.5760 C.3       12 UNK        -0.1800 
     72 C          -4.4232  -24.7345  -46.2976 C.2       12 UNK         0.5000 
     73 O          -5.3998  -25.3781  -46.6810 O.2       12 UNK        -0.5000 
     74 N          -3.4101  -25.2621  -45.5992 N.am      13 UNK        -0.5000 
     75 CA         -3.2952  -26.6758  -45.2505 C.3       13 UNK         0.1400 
     76 CB         -2.7992  -26.7959  -43.8006 C.3       13 UNK        -0.1800 
     77 C          -2.3431  -27.4104  -46.2082 C.2       13 UNK         0.5000 
     78 O          -2.6607  -28.5145  -46.6506 O.2       13 UNK        -0.5000 
     79 N          -1.1881  -26.7962  -46.4973 N.am      14 UNK        -0.5000 
     80 CA         -0.0810  -27.4054  -47.2334 C.3       14 UNK         0.1400 
     81 CB          1.1855  -26.5618  -47.0194 C.3       14 UNK        -0.1800 
     82 C          -0.3445  -27.5947  -48.7368 C.2       14 UNK         0.5000 
     83 O           0.1471  -28.5686  -49.3092 O.2       14 UNK        -0.5000 
     84 N          -1.0847  -26.6647  -49.3528 N.am      15 UNK        -0.5000 
     85 CA         -1.3150  -26.6233  -50.7991 C.3       15 UNK         0.1400 
     86 CB         -0.3356  -25.6149  -51.4270 C.3       15 UNK        -0.1800 
     87 C          -2.7737  -26.2895  -51.1531 C.2       15 UNK         0.5000 
     88 O          -3.0503  -25.9687  -52.3098 O.2       15 UNK        -0.5000 
     89 N          -3.6776  -26.3317  -50.1621 N.am      16 UNK        -0.5000 
     90 CA         -5.0963  -25.9640  -50.2557 C.3       16 UNK         0.1400 
     91 CB         -5.8682  -26.9976  -51.1027 C.3       16 UNK        -0.1800 
     92 C          -5.2987  -24.5139  -50.7476 C.2       16 UNK         0.5000 
     93 O          -6.1486  -24.2633  -51.6023 O.2       16 UNK        -0.5000 
     94 N          -4.4672  -23.5949  -50.2330 N.am      17 UNK        -0.5000 
     95 CA         -4.3680  -22.1807  -50.6138 C.3       17 UNK         0.1400 
     96 CB         -5.6576  -21.4143  -50.2525 C.3       17 UNK        -0.1800 
     97 C          -3.9443  -22.0117  -52.0872 C.2       17 UNK         0.5000 
     98 O          -4.5069  -21.1854  -52.8071 O.2       17 UNK        -0.5000 
     99 N          -2.9712  -22.8360  -52.5037 N.am      18 UNK        -0.5000 
    100 CA        -2.4532  -22.9911  -53.8657 C.3       18 UNK         0.1400 
    101 CB        -1.7209  -21.7121  -54.3223 C.3       18 UNK        -0.1800 
    102 C         -3.5632  -23.4387  -54.8357 C.2       18 UNK         0.5000 
    103 O         -3.7966  -22.7870  -55.8528 O.2       18 UNK        -0.5000 
    104 N         -4.2736  -24.5123  -54.4579 N.am      19 UNK        -0.5000 
    105 CA        -5.4749  -25.0488  -55.1123 C.3       19 UNK         0.1400 
    106 CB        -5.1039  -25.7249  -56.4480 C.3       19 UNK        -0.1800 
    107 C         -6.5880  -23.9858  -55.2594 C.2       19 UNK         0.5000 
    108 O         -7.2057  -23.8659  -56.3188 O.2       19 UNK        -0.5000 
    109 N         -6.7771  -23.2056  -54.1866 N.am      20 UNK        -0.5000 
    110 CA        -7.6675  -22.0527  -54.0319 C.3       20 UNK         0.1400 
    111 CB        -9.1429  -22.4805  -54.1716 C.3       20 UNK        -0.1800 
    112 C         -7.3279  -20.8298  -54.9149 C.2       20 UNK         0.5000 
    113 O         -8.1116  -19.8787  -54.9315 O.2       20 UNK        -0.5000 
    114 N         -6.1862  -20.8387  -55.6200 N.am      21 UNK        -0.5000 
    115 CA        -5.7564  -19.7348  -56.4819 C.3       21 UNK         0.1400 
    116 CB        -4.7835  -20.2561  -57.5502 C.3       21 UNK        -0.1800 
    117 C         -5.1167  -18.5743  -55.6985 C.2       21 UNK         0.5000 
    118 O         -5.1509  -17.4421  -56.1822 O.2       21 UNK        -0.5000 
    119 N         -4.5499  -18.8637  -54.5170 N.am      22 UNK        -0.5000 
    120 CA        -3.8833  -17.8998  -53.6240 C.3       22 UNK         0.1400 
    121 C         -2.5987  -17.2433  -54.2256 C.2       22 UNK         0.5000 
    122 N         -1.9032  -17.9044  -55.1441 N.am      22 UNK        -0.7600 
    123 O         -2.2157  -16.1338  -53.8672 O.2       22 UNK        -0.5000 
    124 C124       -4.9059  -16.8881  -53.0280 C.3       23 UNK        -0.0398 
    125 S125       -4.4809  -16.0872  -51.4384 S.3       23 UNK        -0.2404 
    126 C126       -3.8818  -17.4395  -50.3693 C.3       23 UNK        -0.0205 
    127 H127        5.4064  -14.1598  -49.3820 H         1 UNK         0.0600 
    128 H128        5.3949  -15.7529  -48.6198 H         1 UNK         0.0600 
    129 H129        6.4052  -14.4635  -47.9568 H         1 UNK         0.0600 
    130 H130        3.5916  -12.9419  -48.8818 H         1 UNK         0.3000 
    131 H131        2.2415  -13.3097  -46.2461 H         1 UNK         0.0600 
    132 H132        0.1571  -12.5298  -47.4506 H         1 UNK         0.0800 
    133 H133        0.9955  -12.7086  -48.9689 H         1 UNK         0.0800 
    134 H134        1.6968  -15.4727  -49.9004 H         1 UNK         0.0800 
    135 H135        0.3008  -14.4961  -50.2972 H         1 UNK         0.0800 
    136 H136       -2.0498  -15.5058  -49.8090 H         1 UNK         0.1150 
    137 H137       -2.3387  -19.6307  -50.9221 H         1 UNK         0.1150 
    138 H138        1.5031  -17.8579  -50.2107 H         1 UNK         0.1150 
    139 H139        0.4461  -20.2932  -52.0054 H         1 UNK         0.0800 
    140 H140        1.3738  -20.2144  -50.5295 H         1 UNK         0.0800 
    141 H141        0.3871  -20.8196  -48.2749 H         1 UNK         0.0800 
    142 H142       -1.3490  -20.6598  -48.3021 H         1 UNK         0.0800 
    143 H143        0.0496  -23.3666  -48.0132 H         1 UNK         0.0600 
    144 H144        0.1472  -21.3860  -46.0979 H         1 UNK         0.3000 
    145 H145        0.0903  -23.3205  -43.0988 H         1 UNK         0.0600 
    146 H146        2.2520  -22.1103  -42.9496 H         1 UNK         0.0600 
    147 H147        2.2167  -21.7738  -44.6789 H         1 UNK         0.0600 
    148 H148        2.3608  -23.4300  -44.1043 H         1 UNK         0.0600 
    149 H149        0.2036  -20.5057  -43.9921 H         1 UNK         0.3000 
    150 H150       -3.1137  -19.7938  -42.9775 H         1 UNK         0.0600 
    151 H151       -1.8738  -19.6427  -40.8068 H         1 UNK         0.0600 
    152 H152       -2.0313  -18.0667  -41.5672 H         1 UNK         0.0600 
    153 H153       -0.4949  -18.9284  -41.6361 H         1 UNK         0.0600 
    154 H154       -0.9937  -18.1273  -43.9113 H         1 UNK         0.3000 
    155 H155       -1.5126  -18.5788  -47.4068 H         1 UNK         0.0600 
    156 H156       -3.3859  -17.1040  -46.6210 H         1 UNK         0.0600 
    157 H157       -2.0502  -16.1761  -47.2703 H         1 UNK         0.0600 
    158 H158       -2.2760  -16.2836  -45.5278 H         1 UNK         0.0600 
    159 H159        0.1355  -16.7236  -46.2594 H         1 UNK         0.3000 
    160 H160        2.8880  -18.5413  -45.0587 H         1 UNK         0.0600 
    161 H161        2.6918  -17.1594  -47.7884 H         1 UNK         0.0600 
    162 H162        3.1883  -18.8296  -47.5434 H         1 UNK         0.0600 
    163 H163        4.1719  -17.5253  -46.9012 H         1 UNK         0.0600 
    164 H164        2.8380  -15.8439  -45.6611 H         1 UNK         0.3000 
    165 H165        2.6305  -14.2814  -44.1422 H         1 UNK         0.0600 
    166 H166        0.5744  -12.9546  -43.8202 H         1 UNK         0.0600 
    167 H167        0.2498  -14.1796  -45.0347 H         1 UNK         0.0600 
    168 H168       -0.3464  -14.3958  -43.3988 H         1 UNK         0.0600 
    169 H169        1.3155  -14.0768  -41.6578 H         1 UNK         0.3000 
    170 H170        2.5927  -15.2777  -39.5079 H         1 UNK         0.0600 
    171 H171        5.3308  -13.9695  -39.9337 H         1 UNK         0.0600 
    172 H172        4.6392  -14.3976  -38.3696 H         1 UNK         0.0600 
    173 H173        5.0305  -15.6544  -39.5306 H         1 UNK         0.0600 
    174 H174        1.8382  -13.2410  -39.0951 H         1 UNK         0.3000 
    175 H175        1.4602  -11.1283  -39.0296 H         1 UNK         0.0600 
    176 H176        3.8025   -9.3576  -39.9133 H         1 UNK         0.0600 
    177 H177        2.4998   -8.8959  -38.8191 H         1 UNK         0.0600 
    178 H178        3.6519  -10.1338  -38.3406 H         1 UNK         0.0600 
    179 H179        1.8559   -9.4421  -41.3720 H         1 UNK         0.3000 
    180 H180       -1.0158  -10.6978  -43.1061 H         1 UNK         0.0600 
    181 H181       -0.0030   -8.0231  -42.0069 H         1 UNK         0.0600 
    182 H182       -1.5241   -8.8017  -41.6034 H         1 UNK         0.0600 
    183 H183       -1.2387   -8.2407  -43.2431 H         1 UNK         0.0600 
    184 H184        0.4951  -10.5525  -44.6770 H         1 UNK         0.3000 
    185 H185        2.3275   -8.8738  -45.9827 H         1 UNK         0.0600 
    186 H186        4.6915   -9.8873  -44.3061 H         1 UNK         0.0600 
    187 H187        4.7830   -9.3961  -45.9971 H         1 UNK         0.0600 
    188 H188        4.3912   -8.2130  -44.7616 H         1 UNK         0.0600 
    189 H189        2.4797  -11.6288  -44.9741 H         1 UNK         0.3000 
    190 H190       -2.7094  -21.9377  -46.2568 H         1 UNK         0.3000 
    191 H191       -4.8631  -23.0914  -47.5893 H         1 UNK         0.0600 
    192 H192       -5.1111  -21.3507  -45.8821 H         1 UNK         0.0600 
    193 H193       -4.5013  -22.4271  -44.6255 H         1 UNK         0.0600 
    194 H194       -6.0507  -22.7514  -45.3975 H         1 UNK         0.0600 
    195 H195       -2.6217  -24.6726  -45.3600 H         1 UNK         0.3000 
    196 H196       -4.2707  -27.1633  -45.3089 H         1 UNK         0.0600 
    197 H197       -3.4991  -26.3293  -43.1072 H         1 UNK         0.0600 
    198 H198       -1.8272  -26.3205  -43.6627 H         1 UNK         0.0600 
    199 H199       -2.6990  -27.8416  -43.5071 H         1 UNK         0.0600 
    200 H200       -0.9952  -25.8912  -46.0726 H         1 UNK         0.3000 
    201 H201        0.0993  -28.3943  -46.8064 H         1 UNK         0.0600 
    202 H202        1.4327  -26.4825  -45.9605 H         1 UNK         0.0600 
    203 H203        1.0663  -25.5512  -47.4111 H         1 UNK         0.0600 
    204 H204        2.0444  -27.0095  -47.5210 H         1 UNK         0.0600 
    205 H205       -1.4445  -25.8768  -48.8214 H         1 UNK         0.3000 
    206 H206       -1.1260  -27.6035  -51.2408 H         1 UNK         0.0600 
    207 H207        0.6981  -25.8783  -51.2030 H         1 UNK         0.0600 
    208 H208       -0.5105  -24.6059  -51.0543 H         1 UNK         0.0600 
    209 H209       -0.4317  -25.5896  -52.5129 H         1 UNK         0.0600 
    210 H210       -3.3533  -26.6043  -49.2455 H         1 UNK         0.3000 
    211 H211       -5.4988  -26.0035  -49.2439 H         1 UNK         0.0600 
    212 H212       -5.5509  -26.9884  -52.1457 H         1 UNK         0.0600 
    213 H213       -6.9396  -26.7946  -51.0857 H         1 UNK         0.0600 
    214 H214       -5.7243  -28.0071  -50.7180 H         1 UNK         0.0600 
    215 H215       -3.7578  -23.9182  -49.5790 H         1 UNK         0.3000 
    216 H216       -3.5615  -21.7545  -50.0166 H         1 UNK         0.0600 
    217 H217       -5.5591  -20.3521  -50.4727 H         1 UNK         0.0600 
    218 H218       -5.8838  -21.5030  -49.1903 H         1 UNK         0.0600 
    219 H219       -6.5207  -21.7786  -50.8083 H         1 UNK         0.0600 
    220 H220       -2.6100  -23.4987  -51.8336 H         1 UNK         0.3000 
    221 H221       -1.7218  -23.7996  -53.8347 H         1 UNK         0.0600 
    222 H222       -2.3958  -20.8608  -54.4012 H         1 UNK         0.0600 
    223 H223       -0.9273  -21.4458  -53.6255 H         1 UNK         0.0600 
    224 H224       -1.2603  -21.8554  -55.3003 H         1 UNK         0.0600 
    225 H225       -3.9806  -24.9942  -53.6102 H         1 UNK         0.3000 
    226 H226       -5.8708  -25.8179  -54.4478 H         1 UNK         0.0600 
    227 H227       -4.3329  -26.4818  -56.3046 H         1 UNK         0.0600 
    228 H228       -5.9690  -26.2225  -56.8876 H         1 UNK         0.0600 
    229 H229       -4.7347  -25.0039  -57.1780 H         1 UNK         0.0600 
    230 H230       -6.2531  -23.4413  -53.3479 H         1 UNK         0.3000 
    231 H231       -7.5239  -21.7158  -53.0050 H         1 UNK         0.0600 
    232 H232       -9.8155  -21.6684  -53.8935 H         1 UNK         0.0600 
    233 H233       -9.3714  -23.3244  -53.5206 H         1 UNK         0.0600 
    234 H234       -9.3867  -22.7684  -55.1945 H         1 UNK         0.0600 
    235 H235       -5.5652  -21.6378  -55.5576 H         1 UNK         0.3000 
    236 H236       -6.6325  -19.3407  -57.0015 H         1 UNK         0.0600 
    237 H237       -3.8235  -20.5403  -57.1191 H         1 UNK         0.0600 
    238 H238       -5.1905  -21.1232  -58.0709 H         1 UNK         0.0600 
    239 H239       -4.5852  -19.4886  -58.2992 H         1 UNK         0.0600 
    240 H240       -4.5927  -19.8178  -54.1677 H         1 UNK         0.3000 
    241 H241       -3.5130  -18.5226  -52.8147 H         1 UNK         0.0600 
    242 H242       -1.0750  -17.4823  -55.5330 H         1 UNK         0.3800 
    243 H243       -2.2047  -18.8093  -55.4653 H         1 UNK         0.3800 
    244 H244       -5.8571  -17.3953  -52.8597 H         1 UNK         0.0800 
    245 H245       -5.1221  -16.1035  -53.7545 H         1 UNK         0.0800 
    246 H246       -4.3564  -18.3774  -50.6561 H         1 UNK         0.0800 
    247 H247       -4.2077  -17.2378  -49.3480 H         1 UNK         0.0800 
@<TRIPOS>BOND
     1    1    2 1    
     2    1  127 1    
     3    1  128 1    
     4    1  129 1    
     5    2    3 2    
     6    2    4 am   BACKBONE|DICT|INTERRES
     7    4    5 1    
     8    4  130 1    
     9    5    6 1    
    10    5   65 1    
    11    5  131 1    
    12    6    7 1    
    13    6  132 1    
    14    6  133 1    
    15    7    8 1    
    16    8    9 1    
    17    8  134 1    
    18    8  135 1    
    19    9   10 ar   
    20    9   14 ar   
    21   10   11 ar   
    22   10  136 1    
    23   11   12 ar   
    24   11  126 1    
    25   12   13 ar   
    26   12  137 1    
    27   13   14 ar   
    28   13   15 1    
    29   14  138 1    
    30   15   16 1    
    31   15  139 1    
    32   15  140 1    
    33   16   17 1    
    34   17   18 1    
    35   17  141 1    
    36   17  142 1    
    37   18   19 1    
    38   18   67 1    
    39   18  143 1    
    40   19   20 am   BACKBONE|DICT|INTERRES
    41   19  144 1    
    42   20   21 2    
    43   20   22 1    
    44   22   23 1    
    45   22   24 1    
    46   22  145 1    
    47   23  146 1    
    48   23  147 1    
    49   23  148 1    
    50   24   25 am   BACKBONE|DICT|INTERRES
    51   24  149 1    
    52   25   26 2    
    53   25   27 1    
    54   27   28 1    
    55   27   29 1    
    56   27  150 1    
    57   28  151 1    
    58   28  152 1    
    59   28  153 1    
    60   29   30 am   BACKBONE|DICT|INTERRES
    61   29  154 1    
    62   30   31 2    
    63   30   32 1    
    64   32   33 1    
    65   32   34 1    
    66   32  155 1    
    67   33  156 1    
    68   33  157 1    
    69   33  158 1    
    70   34   35 am   BACKBONE|DICT|INTERRES
    71   34  159 1    
    72   35   36 2    
    73   35   37 1    
    74   37   38 1    
    75   37   39 1    
    76   37  160 1    
    77   38  161 1    
    78   38  162 1    
    79   38  163 1    
    80   39   40 am   BACKBONE|DICT|INTERRES
    81   39  164 1    
    82   40   41 2    
    83   40   42 1    
    84   42   43 1    
    85   42   44 1    
    86   42  165 1    
    87   43  166 1    
    88   43  167 1    
    89   43  168 1    
    90   44   45 am   BACKBONE|DICT|INTERRES
    91   44  169 1    
    92   45   46 2    
    93   45   47 1    
    94   47   48 1    
    95   47   49 1    
    96   47  170 1    
    97   48  171 1    
    98   48  172 1    
    99   48  173 1    
   100   49   50 am   BACKBONE|DICT|INTERRES
   101   49  174 1    
   102   50   51 2    
   103   50   52 1    
   104   52   53 1    
   105   52   54 1    
   106   52  175 1    
   107   53  176 1    
   108   53  177 1    
   109   53  178 1    
   110   54   55 am   BACKBONE|DICT|INTERRES
   111   54  179 1    
   112   55   56 2    
   113   55   57 1    
   114   57   58 1    
   115   57   59 1    
   116   57  180 1    
   117   58  181 1    
   118   58  182 1    
   119   58  183 1    
   120   59   60 am   BACKBONE|DICT|INTERRES
   121   59  184 1    
   122   60   61 2    
   123   60   62 1    
   124   62   63 1    
   125   62   64 1    
   126   62  185 1    
   127   63  186 1    
   128   63  187 1    
   129   63  188 1    
   130   64   65 am   BACKBONE|DICT|INTERRES
   131   64  189 1    
   132   65   66 2    
   133   67   68 2    
   134   67   69 am   BACKBONE|DICT|INTERRES
   135   69   70 1    
   136   69  190 1    
   137   70   71 1    
   138   70   72 1    
   139   70  191 1    
   140   71  192 1    
   141   71  193 1    
   142   71  194 1    
   143   72   73 2    
   144   72   74 am   BACKBONE|DICT|INTERRES
   145   74   75 1    
   146   74  195 1    
   147   75   76 1    
   148   75   77 1    
   149   75  196 1    
   150   76  197 1    
   151   76  198 1    
   152   76  199 1    
   153   77   78 2    
   154   77   79 am   BACKBONE|DICT|INTERRES
   155   79   80 1    
   156   79  200 1    
   157   80   81 1    
   158   80   82 1    
   159   80  201 1    
   160   81  202 1    
   161   81  203 1    
   162   81  204 1    
   163   82   83 2    
   164   82   84 am   BACKBONE|DICT|INTERRES
   165   84   85 1    
   166   84  205 1    
   167   85   86 1    
   168   85   87 1    
   169   85  206 1    
   170   86  207 1    
   171   86  208 1    
   172   86  209 1    
   173   87   88 2    
   174   87   89 am   BACKBONE|DICT|INTERRES
   175   89   90 1    
   176   89  210 1    
   177   90   91 1    
   178   90   92 1    
   179   90  211 1    
   180   91  212 1    
   181   91  213 1    
   182   91  214 1    
   183   92   93 2    
   184   92   94 am   BACKBONE|DICT|INTERRES
   185   94   95 1    
   186   94  215 1    
   187   95   96 1    
   188   95   97 1    
   189   95  216 1    
   190   96  217 1    
   191   96  218 1    
   192   96  219 1    
   193   97   98 2    
   194   97   99 am   BACKBONE|DICT|INTERRES
   195   99  100 1    
   196   99  220 1    
   197  100  101 1    
   198  100  102 1    
   199  100  221 1    
   200  101  222 1    
   201  101  223 1    
   202  101  224 1    
   203  102  103 2    
   204  102  104 am   BACKBONE|DICT|INTERRES
   205  104  105 1    
   206  104  225 1    
   207  105  106 1    
   208  105  107 1    
   209  105  226 1    
   210  106  227 1    
   211  106  228 1    
   212  106  229 1    
   213  107  108 2    
   214  107  109 am   BACKBONE|DICT|INTERRES
   215  109  110 1    
   216  109  230 1    
   217  110  111 1    
   218  110  112 1    
   219  110  231 1    
   220  111  232 1    
   221  111  233 1    
   222  111  234 1    
   223  112  113 2    
   224  112  114 am   BACKBONE|DICT|INTERRES
   225  114  115 1    
   226  114  235 1    
   227  115  116 1    
   228  115  117 1    
   229  115  236 1    
   230  116  237 1    
   231  116  238 1    
   232  116  239 1    
   233  117  118 2    
   234  117  119 am   BACKBONE|DICT|INTERRES
   235  119  120 1    
   236  119  240 1    
   237  120  121 1    
   238  120  124 1    
   239  120  241 1    
   240  121  122 am   BACKBONE|DICT|INTERRES
   241  121  123 2    
   242  122  242 1    
   243  122  243 1    
   244  124  125 1    
   245  124  244 1    
   246  124  245 1    
   247  125  126 1    
   248  126  246 1    
   249  126  247 1    
@<TRIPOS>SUBSTRUCTURE
     1 UNK         1 GROUP             0       ****    0 ROOT    
