@<TRIPOS>MOLECULE
3R540
247   249    1
SMALL
USER_CHARGES


@<TRIPOS>ATOM
      1 CA          6.8501  -11.4115  -50.6715 C.3       0 UNK        -0.1800 
      2 C           6.1440  -11.5238  -49.3275 C.2       0 UNK         0.5000 
      3 O           6.3608  -10.6885  -48.4489 O.2       0 UNK        -0.5000 
      4 N           5.3088  -12.5559  -49.1627 N.am      1 UNK        -0.5000 
      5 CA          4.5046  -12.8015  -47.9616 C.3       1 UNK         0.1400 
      6 C6          3.8889  -14.2248  -47.9396 C.3       23 UNK        -0.0398 
      7 S7          5.1003  -15.5744  -48.1403 S.3       23 UNK        -0.2404 
      8 C8          4.8492  -16.0420  -49.8844 C.3       23 UNK        -0.0205 
      9 C9          3.7026  -17.0268  -50.0767 C.ar      23 UNK        -0.0193 
     10 C10         2.3929  -16.5720  -50.2625 C.ar      23 UNK        -0.1150 
     11 C11         1.3508  -17.4737  -50.4932 C.ar      23 UNK        -0.0193 
     12 C12         1.6306  -18.8395  -50.5724 C.ar      23 UNK        -0.1150 
     13 C13         2.9322  -19.3119  -50.3756 C.ar      23 UNK        -0.0193 
     14 C14         3.9612  -18.4005  -50.1189 C.ar      23 UNK        -0.1150 
     15 C15         3.2329  -20.8024  -50.4654 C.3       23 UNK        -0.0205 
     16 S16         2.9358  -21.6637  -48.8878 S.3       23 UNK        -0.2404 
     17 C17         1.1173  -21.5986  -48.8051 C.3       23 UNK        -0.0398 
     18 CA          0.5097  -22.6559  -47.8574 C.3       11 UNK         0.1400 
     19 N           0.7790  -22.3762  -46.4442 N.am      11 UNK        -0.5000 
     20 C           0.4295  -23.1808  -45.4295 C.2       10 UNK         0.5000 
     21 O          -0.1005  -24.2828  -45.5768 O.2       10 UNK        -0.5000 
     22 CA          0.6565  -22.6424  -44.0074 C.3       10 UNK         0.1400 
     23 CB          2.1276  -22.7946  -43.5933 C.3       10 UNK        -0.1800 
     24 N           0.2328  -21.2486  -43.8603 N.am      10 UNK        -0.5000 
     25 C          -1.0313  -20.8218  -44.0007 C.2       9 UNK         0.5000 
     26 O          -1.9808  -21.5682  -44.2353 O.2       9 UNK        -0.5000 
     27 CA         -1.2776  -19.3054  -43.9054 C.3       9 UNK         0.1400 
     28 CB         -1.2955  -18.8424  -42.4414 C.3       9 UNK        -0.1800 
     29 N          -0.2976  -18.5241  -44.6572 N.am      9 UNK        -0.5000 
     30 C          -0.1267  -18.5882  -45.9855 C.2       8 UNK         0.5000 
     31 O          -0.8055  -19.2912  -46.7338 O.2       8 UNK        -0.5000 
     32 CA          1.0353  -17.7675  -46.5695 C.3       8 UNK         0.1400 
     33 CB          0.6337  -16.2951  -46.7439 C.3       8 UNK        -0.1800 
     34 N           2.2459  -17.8594  -45.7530 N.am      8 UNK        -0.5000 
     35 C           2.9255  -18.9947  -45.5352 C.2       7 UNK         0.5000 
     36 O           2.6040  -20.0882  -45.9978 O.2       7 UNK        -0.5000 
     37 CA          4.1321  -18.8988  -44.5861 C.3       7 UNK         0.1400 
     38 CB          5.3109  -18.1839  -45.2642 C.3       7 UNK        -0.1800 
     39 N           3.7980  -18.2154  -43.3361 N.am      7 UNK        -0.5000 
     40 C           2.9203  -18.6724  -42.4310 C.2       6 UNK         0.5000 
     41 O           2.3278  -19.7451  -42.5305 O.2       6 UNK        -0.5000 
     42 CA          2.6191  -17.7557  -41.2317 C.3       6 UNK         0.1400 
     43 CB          3.6286  -17.9977  -40.0998 C.3       6 UNK        -0.1800 
     44 N           2.6061  -16.3321  -41.5763 N.am      6 UNK        -0.5000 
     45 C           1.7692  -15.7676  -42.4566 C.2       5 UNK         0.5000 
     46 O           0.9368  -16.3949  -43.1158 O.2       5 UNK        -0.5000 
     47 CA          1.9392  -14.2555  -42.6755 C.3       5 UNK         0.1400 
     48 CB          2.9522  -14.0061  -43.8028 C.3       5 UNK        -0.1800 
     49 N           0.6680  -13.6011  -42.9957 N.am      5 UNK        -0.5000 
     50 C          -0.3351  -13.4475  -42.1155 C.2       4 UNK         0.5000 
     51 O          -0.2595  -13.8196  -40.9429 O.2       4 UNK        -0.5000 
     52 CA         -1.6251  -12.7403  -42.5832 C.3       4 UNK         0.1400 
     53 CB         -1.9417  -11.5328  -41.6836 C.3       4 UNK        -0.1800 
     54 N          -1.5497  -12.2684  -43.9646 N.am      4 UNK        -0.5000 
     55 C          -2.0445  -12.9046  -45.0337 C.2       3 UNK         0.5000 
     56 O          -2.6572  -13.9709  -44.9771 O.2       3 UNK        -0.5000 
     57 CA         -1.8012  -12.2366  -46.4047 C.3       3 UNK         0.1400 
     58 CB         -3.0350  -11.4286  -46.8350 C.3       3 UNK        -0.1800 
     59 N          -0.6202  -11.3631  -46.4414 N.am      3 UNK        -0.5000 
     60 C           0.6336  -11.7939  -46.2586 C.2       2 UNK         0.5000 
     61 O           0.9116  -12.9691  -46.0113 O.2       2 UNK        -0.5000 
     62 CA          1.7539  -10.7378  -46.2946 C.3       2 UNK         0.1400 
     63 CB          1.8761  -10.0420  -44.9295 C.3       2 UNK        -0.1800 
     64 N           3.0273  -11.3815  -46.6169 N.am      2 UNK        -0.5000 
     65 C           3.3635  -11.7699  -47.8518 C.2       1 UNK         0.5000 
     66 O           2.7656  -11.4075  -48.8691 O.2       1 UNK        -0.5000 
     67 C          -1.0001  -22.7937  -48.1291 C.2       11 UNK         0.5000 
     68 O          -1.4096  -23.7732  -48.7501 O.2       11 UNK        -0.5000 
     69 N          -1.8010  -21.8352  -47.6409 N.am      12 UNK        -0.5000 
     70 CA         -3.2560  -21.8315  -47.7852 C.3       12 UNK         0.1400 
     71 CB         -3.8332  -20.5065  -47.2681 C.3       12 UNK        -0.1800 
     72 C          -3.9318  -23.0310  -47.1015 C.2       12 UNK         0.5000 
     73 O          -4.8333  -23.6240  -47.6922 O.2       12 UNK        -0.5000 
     74 N          -3.4636  -23.3919  -45.8988 N.am      13 UNK        -0.5000 
     75 CA         -3.9143  -24.5650  -45.1509 C.3       13 UNK         0.1400 
     76 CB         -3.3035  -24.5509  -43.7415 C.3       13 UNK        -0.1800 
     77 C          -3.5946  -25.8838  -45.8761 C.2       13 UNK         0.5000 
     78 O          -4.4801  -26.7293  -46.0083 O.2       13 UNK        -0.5000 
     79 N          -2.3559  -26.0185  -46.3729 N.am      14 UNK        -0.5000 
     80 CA         -1.8934  -27.1708  -47.1521 C.3       14 UNK         0.1400 
     81 CB         -0.3787  -27.0578  -47.3811 C.3       14 UNK        -0.1800 
     82 C          -2.6352  -27.3280  -48.4934 C.2       14 UNK         0.5000 
     83 O          -2.9284  -28.4517  -48.9024 O.2       14 UNK        -0.5000 
     84 N          -2.9531  -26.1959  -49.1324 N.am      15 UNK        -0.5000 
     85 CA         -3.7127  -26.1080  -50.3789 C.3       15 UNK         0.1400 
     86 CB         -3.3341  -24.7962  -51.0772 C.3       15 UNK        -0.1800 
     87 C          -5.2420  -26.1979  -50.1866 C.2       15 UNK         0.5000 
     88 O          -5.9712  -26.1218  -51.1774 O.2       15 UNK        -0.5000 
     89 N          -5.7025  -26.3309  -48.9324 N.am      16 UNK        -0.5000 
     90 CA         -7.1001  -26.4285  -48.4970 C.3       16 UNK         0.1400 
     91 CB         -7.7103  -27.7715  -48.9483 C.3       16 UNK        -0.1800 
     92 C          -7.9547  -25.2108  -48.9111 C.2       16 UNK         0.5000 
     93 O          -9.1203  -25.3689  -49.2795 O.2       16 UNK        -0.5000 
     94 N          -7.3428  -24.0184  -48.8675 N.am      17 UNK        -0.5000 
     95 CA         -7.8469  -22.6865  -49.2261 C.3       17 UNK         0.1400 
     96 CB         -9.0372  -22.2828  -48.3371 C.3       17 UNK        -0.1800 
     97 C          -8.1804  -22.4892  -50.7195 C.2       17 UNK         0.5000 
     98 O          -7.8659  -21.4348  -51.2712 O.2       17 UNK        -0.5000 
     99 N          -8.7984  -23.4920  -51.3528 N.am      18 UNK        -0.5000 
    100 CA        -9.2891  -23.4703  -52.7317 C.3       18 UNK         0.1400 
    101 CB       -10.0706  -24.7658  -52.9979 C.3       18 UNK        -0.1800 
    102 C         -8.1929  -23.2778  -53.7963 C.2       18 UNK         0.5000 
    103 O         -8.4656  -22.6774  -54.8366 O.2       18 UNK        -0.5000 
    104 N         -6.9832  -23.7795  -53.5189 N.am      19 UNK        -0.5000 
    105 CA        -5.8249  -23.7146  -54.4120 C.3       19 UNK         0.1400 
    106 CB        -5.3555  -25.1503  -54.7110 C.3       19 UNK        -0.1800 
    107 C         -4.6964  -22.8365  -53.8344 C.2       19 UNK         0.5000 
    108 O         -3.5457  -22.9863  -54.2467 O.2       19 UNK        -0.5000 
    109 N         -5.0230  -21.9452  -52.8836 N.am      20 UNK        -0.5000 
    110 CA        -4.0645  -21.0833  -52.1778 C.3       20 UNK         0.1400 
    111 CB        -4.7729  -20.3985  -51.0000 C.3       20 UNK        -0.1800 
    112 C         -3.3701  -20.0288  -53.0642 C.2       20 UNK         0.5000 
    113 O         -2.3209  -19.5179  -52.6723 O.2       20 UNK        -0.5000 
    114 N         -3.9705  -19.7135  -54.2221 N.am      21 UNK        -0.5000 
    115 CA        -3.5057  -18.8349  -55.3069 C.3       21 UNK         0.1400 
    116 CB        -2.1617  -19.3227  -55.8807 C.3       21 UNK        -0.1800 
    117 C         -3.4465  -17.3317  -54.9675 C.2       21 UNK         0.5000 
    118 O         -3.7610  -16.5121  -55.8315 O.2       21 UNK        -0.5000 
    119 N         -3.0638  -16.9897  -53.7335 N.am      22 UNK        -0.5000 
    120 CA        -2.9587  -15.6119  -53.2246 C.3       22 UNK         0.1400 
    121 C         -4.3225  -14.9039  -52.9647 C.2       22 UNK         0.5000 
    122 N         -5.4529  -15.6000  -52.9816 N.am      22 UNK        -0.7600 
    123 O         -4.3551  -13.6955  -52.7486 O.2       22 UNK        -0.5000 
    124 C124       -2.0598  -15.5299  -51.9650 C.3       23 UNK        -0.0398 
    125 S125       -0.3733  -16.1762  -52.2356 S.3       23 UNK        -0.2404 
    126 C126       -0.0782  -16.9721  -50.6283 C.3       23 UNK        -0.0205 
    127 H127        7.9308  -11.4270  -50.5303 H         1 UNK         0.0600 
    128 H128        6.5821  -10.4741  -51.1588 H         1 UNK         0.0600 
    129 H129        6.5833  -12.2306  -51.3397 H         1 UNK         0.0600 
    130 H130        5.1578  -13.1953  -49.9275 H         1 UNK         0.3000 
    131 H131        5.1585  -12.6969  -47.0929 H         1 UNK         0.0600 
    132 H132        3.1156  -14.3141  -48.7002 H         1 UNK         0.0800 
    133 H133        3.3826  -14.3913  -46.9883 H         1 UNK         0.0800 
    134 H134        4.6828  -15.1529  -50.4933 H         1 UNK         0.0800 
    135 H135        5.7749  -16.4845  -50.2555 H         1 UNK         0.0800 
    136 H136        2.1742  -15.5151  -50.2449 H         1 UNK         0.1150 
    137 H137        0.8294  -19.5348  -50.7776 H         1 UNK         0.1150 
    138 H138        4.9705  -18.7599  -49.9745 H         1 UNK         0.1150 
    139 H139        2.6362  -21.2597  -51.2561 H         1 UNK         0.0800 
    140 H140        4.2747  -20.9533  -50.7520 H         1 UNK         0.0800 
    141 H141        0.7383  -21.7413  -49.8190 H         1 UNK         0.0800 
    142 H142        0.8177  -20.5957  -48.4982 H         1 UNK         0.0800 
    143 H143        0.9633  -23.6220  -48.0891 H         1 UNK         0.0600 
    144 H144        1.2589  -21.5037  -46.2393 H         1 UNK         0.3000 
    145 H145        0.0519  -23.2452  -43.3267 H         1 UNK         0.0600 
    146 H146        2.4609  -23.8270  -43.7054 H         1 UNK         0.0600 
    147 H147        2.7844  -22.1689  -44.1983 H         1 UNK         0.0600 
    148 H148        2.2722  -22.5188  -42.5487 H         1 UNK         0.0600 
    149 H149        0.9597  -20.5787  -43.6256 H         1 UNK         0.3000 
    150 H150       -2.2600  -19.1017  -44.3360 H         1 UNK         0.0600 
    151 H151       -1.5276  -17.7797  -42.3665 H         1 UNK         0.0600 
    152 H152       -0.3345  -19.0093  -41.9552 H         1 UNK         0.0600 
    153 H153       -2.0512  -19.3831  -41.8704 H         1 UNK         0.0600 
    154 H154        0.2801  -17.8806  -44.1220 H         1 UNK         0.3000 
    155 H155        1.2667  -18.1765  -47.5552 H         1 UNK         0.0600 
    156 H156       -0.2920  -16.2064  -47.3133 H         1 UNK         0.0600 
    157 H157        1.3984  -15.7403  -47.2854 H         1 UNK         0.0600 
    158 H158        0.4740  -15.8002  -45.7851 H         1 UNK         0.0600 
    159 H159        2.5438  -17.0172  -45.2862 H         1 UNK         0.3000 
    160 H160        4.4451  -19.9165  -44.3428 H         1 UNK         0.0600 
    161 H161        5.5581  -18.6547  -46.2169 H         1 UNK         0.0600 
    162 H162        6.2048  -18.2214  -44.6416 H         1 UNK         0.0600 
    163 H163        5.0869  -17.1359  -45.4655 H         1 UNK         0.0600 
    164 H164        4.2374  -17.3226  -43.1701 H         1 UNK         0.3000 
    165 H165        1.6253  -18.0144  -40.8611 H         1 UNK         0.0600 
    166 H166        3.3713  -17.4208  -39.2113 H         1 UNK         0.0600 
    167 H167        3.6440  -19.0491  -39.8092 H         1 UNK         0.0600 
    168 H168        4.6418  -17.7244  -40.3970 H         1 UNK         0.0600 
    169 H169        3.2684  -15.7478  -41.0866 H         1 UNK         0.3000 
    170 H170        2.3273  -13.8074  -41.7583 H         1 UNK         0.0600 
    171 H171        3.0858  -12.9413  -43.9868 H         1 UNK         0.0600 
    172 H172        3.9308  -14.4151  -43.5488 H         1 UNK         0.0600 
    173 H173        2.6353  -14.4759  -44.7336 H         1 UNK         0.0600 
    174 H174        0.5254  -13.3421  -43.9645 H         1 UNK         0.3000 
    175 H175       -2.4397  -13.4601  -42.4795 H         1 UNK         0.0600 
    176 H176       -1.1443  -10.7891  -41.7130 H         1 UNK         0.0600 
    177 H177       -2.8671  -11.0450  -41.9905 H         1 UNK         0.0600 
    178 H178       -2.0691  -11.8371  -40.6439 H         1 UNK         0.0600 
    179 H179       -1.0607  -11.3984  -44.1147 H         1 UNK         0.3000 
    180 H180       -1.6464  -13.0373  -47.1313 H         1 UNK         0.0600 
    181 H181       -2.9120  -11.0249  -47.8401 H         1 UNK         0.0600 
    182 H182       -3.2264  -10.5953  -46.1578 H         1 UNK         0.0600 
    183 H183       -3.9282  -12.0548  -46.8456 H         1 UNK         0.0600 
    184 H184       -0.7867  -10.3845  -46.6281 H         1 UNK         0.3000 
    185 H185        1.5180   -9.9897  -47.0544 H         1 UNK         0.0600 
    186 H186        2.0636  -10.7531  -44.1242 H         1 UNK         0.0600 
    187 H187        2.6883   -9.3149  -44.9299 H         1 UNK         0.0600 
    188 H188        0.9611   -9.5027  -44.6819 H         1 UNK         0.0600 
    189 H189        3.5497  -11.7423  -45.8328 H         1 UNK         0.3000 
    190 H190       -1.3908  -21.0371  -47.1613 H         1 UNK         0.3000 
    191 H191       -3.4731  -21.9028  -48.8517 H         1 UNK         0.0600 
    192 H192       -3.6147  -20.3585  -46.2101 H         1 UNK         0.0600 
    193 H193       -4.9168  -20.4781  -47.3893 H         1 UNK         0.0600 
    194 H194       -3.4223  -19.6581  -47.8156 H         1 UNK         0.0600 
    195 H195       -2.7540  -22.8145  -45.4546 H         1 UNK         0.3000 
    196 H196       -4.9995  -24.4971  -45.0494 H         1 UNK         0.0600 
    197 H197       -3.6310  -25.4163  -43.1642 H         1 UNK         0.0600 
    198 H198       -3.6058  -23.6596  -43.1915 H         1 UNK         0.0600 
    199 H199       -2.2138  -24.5689  -43.7734 H         1 UNK         0.0600 
    200 H200       -1.6742  -25.2839  -46.2028 H         1 UNK         0.3000 
    201 H201       -2.0825  -28.0699  -46.5622 H         1 UNK         0.0600 
    202 H202        0.1615  -27.0312  -46.4346 H         1 UNK         0.0600 
    203 H203       -0.1225  -26.1548  -47.9366 H         1 UNK         0.0600 
    204 H204       -0.0029  -27.9110  -47.9470 H         1 UNK         0.0600 
    205 H205       -2.6087  -25.3161  -48.7577 H         1 UNK         0.3000 
    206 H206       -3.4179  -26.9346  -51.0283 H         1 UNK         0.0600 
    207 H207       -3.7731  -24.7563  -52.0700 H         1 UNK         0.0600 
    208 H208       -3.6834  -23.9263  -50.5195 H         1 UNK         0.0600 
    209 H209       -2.2551  -24.7072  -51.2035 H         1 UNK         0.0600 
    210 H210       -5.0201  -26.3430  -48.1850 H         1 UNK         0.3000 
    211 H211       -7.0785  -26.4249  -47.4064 H         1 UNK         0.0600 
    212 H212       -7.8104  -27.8261  -50.0328 H         1 UNK         0.0600 
    213 H213       -8.7029  -27.9148  -48.5200 H         1 UNK         0.0600 
    214 H214       -7.0948  -28.6112  -48.6254 H         1 UNK         0.0600 
    215 H215       -6.3789  -24.0153  -48.5345 H         1 UNK         0.3000 
    216 H216       -7.0295  -22.0010  -48.9986 H         1 UNK         0.0600 
    217 H217       -9.3385  -21.2536  -48.5358 H         1 UNK         0.0600 
    218 H218       -8.7784  -22.3473  -47.2803 H         1 UNK         0.0600 
    219 H219       -9.9087  -22.9150  -48.5089 H         1 UNK         0.0600 
    220 H220       -9.0190  -24.3160  -50.7987 H         1 UNK         0.3000 
    221 H221       -9.9802  -22.6297  -52.8202 H         1 UNK         0.0600 
    222 H222       -9.4367  -25.6463  -52.8837 H         1 UNK         0.0600 
    223 H223      -10.9114  -24.8673  -52.3114 H         1 UNK         0.0600 
    224 H224      -10.4749  -24.7795  -54.0109 H         1 UNK         0.0600 
    225 H225       -6.8490  -24.2665  -52.6415 H         1 UNK         0.3000 
    226 H226       -6.0993  -23.2569  -55.3642 H         1 UNK         0.0600 
    227 H227       -6.1511  -25.7305  -55.1785 H         1 UNK         0.0600 
    228 H228       -4.5081  -25.1583  -55.3976 H         1 UNK         0.0600 
    229 H229       -5.0529  -25.6756  -53.8054 H         1 UNK         0.0600 
    230 H230       -5.9925  -21.8691  -52.6021 H         1 UNK         0.3000 
    231 H231       -3.2787  -21.7242  -51.7726 H         1 UNK         0.0600 
    232 H232       -5.5808  -19.7493  -51.3396 H         1 UNK         0.0600 
    233 H233       -5.1982  -21.1323  -50.3170 H         1 UNK         0.0600 
    234 H234       -4.0776  -19.7849  -50.4254 H         1 UNK         0.0600 
    235 H235       -4.8527  -20.1709  -54.4025 H         1 UNK         0.3000 
    236 H236       -4.2497  -18.9391  -56.0983 H         1 UNK         0.0600 
    237 H237       -1.3501  -19.2226  -55.1593 H         1 UNK         0.0600 
    238 H238       -2.2176  -20.3694  -56.1801 H         1 UNK         0.0600 
    239 H239       -1.8836  -18.7455  -56.7633 H         1 UNK         0.0600 
    240 H240       -2.7645  -17.7350  -53.1114 H         1 UNK         0.3000 
    241 H241       -2.4707  -15.0234  -54.0040 H         1 UNK         0.0600 
    242 H242       -6.3288  -15.1291  -52.8170 H         1 UNK         0.3800 
    243 H243       -5.4413  -16.5901  -53.1643 H         1 UNK         0.3800 
    244 H244       -1.9605  -14.4955  -51.6307 H         1 UNK         0.0800 
    245 H245       -2.5298  -16.0716  -51.1423 H         1 UNK         0.0800 
    246 H246       -0.7861  -17.7930  -50.4988 H         1 UNK         0.0800 
    247 H247       -0.2820  -16.2578  -49.8294 H         1 UNK         0.0800 
@<TRIPOS>BOND
     1    1    2 1    
     2    1  127 1    
     3    1  128 1    
     4    1  129 1    
     5    2    3 2    
     6    2    4 am   BACKBONE|DICT|INTERRES
     7    4    5 1    
     8    4  130 1    
     9    5    6 1    
    10    5   65 1    
    11    5  131 1    
    12    6    7 1    
    13    6  132 1    
    14    6  133 1    
    15    7    8 1    
    16    8    9 1    
    17    8  134 1    
    18    8  135 1    
    19    9   10 ar   
    20    9   14 ar   
    21   10   11 ar   
    22   10  136 1    
    23   11   12 ar   
    24   11  126 1    
    25   12   13 ar   
    26   12  137 1    
    27   13   14 ar   
    28   13   15 1    
    29   14  138 1    
    30   15   16 1    
    31   15  139 1    
    32   15  140 1    
    33   16   17 1    
    34   17   18 1    
    35   17  141 1    
    36   17  142 1    
    37   18   19 1    
    38   18   67 1    
    39   18  143 1    
    40   19   20 am   BACKBONE|DICT|INTERRES
    41   19  144 1    
    42   20   21 2    
    43   20   22 1    
    44   22   23 1    
    45   22   24 1    
    46   22  145 1    
    47   23  146 1    
    48   23  147 1    
    49   23  148 1    
    50   24   25 am   BACKBONE|DICT|INTERRES
    51   24  149 1    
    52   25   26 2    
    53   25   27 1    
    54   27   28 1    
    55   27   29 1    
    56   27  150 1    
    57   28  151 1    
    58   28  152 1    
    59   28  153 1    
    60   29   30 am   BACKBONE|DICT|INTERRES
    61   29  154 1    
    62   30   31 2    
    63   30   32 1    
    64   32   33 1    
    65   32   34 1    
    66   32  155 1    
    67   33  156 1    
    68   33  157 1    
    69   33  158 1    
    70   34   35 am   BACKBONE|DICT|INTERRES
    71   34  159 1    
    72   35   36 2    
    73   35   37 1    
    74   37   38 1    
    75   37   39 1    
    76   37  160 1    
    77   38  161 1    
    78   38  162 1    
    79   38  163 1    
    80   39   40 am   BACKBONE|DICT|INTERRES
    81   39  164 1    
    82   40   41 2    
    83   40   42 1    
    84   42   43 1    
    85   42   44 1    
    86   42  165 1    
    87   43  166 1    
    88   43  167 1    
    89   43  168 1    
    90   44   45 am   BACKBONE|DICT|INTERRES
    91   44  169 1    
    92   45   46 2    
    93   45   47 1    
    94   47   48 1    
    95   47   49 1    
    96   47  170 1    
    97   48  171 1    
    98   48  172 1    
    99   48  173 1    
   100   49   50 am   BACKBONE|DICT|INTERRES
   101   49  174 1    
   102   50   51 2    
   103   50   52 1    
   104   52   53 1    
   105   52   54 1    
   106   52  175 1    
   107   53  176 1    
   108   53  177 1    
   109   53  178 1    
   110   54   55 am   BACKBONE|DICT|INTERRES
   111   54  179 1    
   112   55   56 2    
   113   55   57 1    
   114   57   58 1    
   115   57   59 1    
   116   57  180 1    
   117   58  181 1    
   118   58  182 1    
   119   58  183 1    
   120   59   60 am   BACKBONE|DICT|INTERRES
   121   59  184 1    
   122   60   61 2    
   123   60   62 1    
   124   62   63 1    
   125   62   64 1    
   126   62  185 1    
   127   63  186 1    
   128   63  187 1    
   129   63  188 1    
   130   64   65 am   BACKBONE|DICT|INTERRES
   131   64  189 1    
   132   65   66 2    
   133   67   68 2    
   134   67   69 am   BACKBONE|DICT|INTERRES
   135   69   70 1    
   136   69  190 1    
   137   70   71 1    
   138   70   72 1    
   139   70  191 1    
   140   71  192 1    
   141   71  193 1    
   142   71  194 1    
   143   72   73 2    
   144   72   74 am   BACKBONE|DICT|INTERRES
   145   74   75 1    
   146   74  195 1    
   147   75   76 1    
   148   75   77 1    
   149   75  196 1    
   150   76  197 1    
   151   76  198 1    
   152   76  199 1    
   153   77   78 2    
   154   77   79 am   BACKBONE|DICT|INTERRES
   155   79   80 1    
   156   79  200 1    
   157   80   81 1    
   158   80   82 1    
   159   80  201 1    
   160   81  202 1    
   161   81  203 1    
   162   81  204 1    
   163   82   83 2    
   164   82   84 am   BACKBONE|DICT|INTERRES
   165   84   85 1    
   166   84  205 1    
   167   85   86 1    
   168   85   87 1    
   169   85  206 1    
   170   86  207 1    
   171   86  208 1    
   172   86  209 1    
   173   87   88 2    
   174   87   89 am   BACKBONE|DICT|INTERRES
   175   89   90 1    
   176   89  210 1    
   177   90   91 1    
   178   90   92 1    
   179   90  211 1    
   180   91  212 1    
   181   91  213 1    
   182   91  214 1    
   183   92   93 2    
   184   92   94 am   BACKBONE|DICT|INTERRES
   185   94   95 1    
   186   94  215 1    
   187   95   96 1    
   188   95   97 1    
   189   95  216 1    
   190   96  217 1    
   191   96  218 1    
   192   96  219 1    
   193   97   98 2    
   194   97   99 am   BACKBONE|DICT|INTERRES
   195   99  100 1    
   196   99  220 1    
   197  100  101 1    
   198  100  102 1    
   199  100  221 1    
   200  101  222 1    
   201  101  223 1    
   202  101  224 1    
   203  102  103 2    
   204  102  104 am   BACKBONE|DICT|INTERRES
   205  104  105 1    
   206  104  225 1    
   207  105  106 1    
   208  105  107 1    
   209  105  226 1    
   210  106  227 1    
   211  106  228 1    
   212  106  229 1    
   213  107  108 2    
   214  107  109 am   BACKBONE|DICT|INTERRES
   215  109  110 1    
   216  109  230 1    
   217  110  111 1    
   218  110  112 1    
   219  110  231 1    
   220  111  232 1    
   221  111  233 1    
   222  111  234 1    
   223  112  113 2    
   224  112  114 am   BACKBONE|DICT|INTERRES
   225  114  115 1    
   226  114  235 1    
   227  115  116 1    
   228  115  117 1    
   229  115  236 1    
   230  116  237 1    
   231  116  238 1    
   232  116  239 1    
   233  117  118 2    
   234  117  119 am   BACKBONE|DICT|INTERRES
   235  119  120 1    
   236  119  240 1    
   237  120  121 1    
   238  120  124 1    
   239  120  241 1    
   240  121  122 am   BACKBONE|DICT|INTERRES
   241  121  123 2    
   242  122  242 1    
   243  122  243 1    
   244  124  125 1    
   245  124  244 1    
   246  124  245 1    
   247  125  126 1    
   248  126  246 1    
   249  126  247 1    
@<TRIPOS>SUBSTRUCTURE
     1 UNK         1 GROUP             0       ****    0 ROOT    
