@<TRIPOS>MOLECULE
3R540
247   249    1
SMALL
USER_CHARGES


@<TRIPOS>ATOM
      1 CA          1.6028  -13.4831  -43.5426 C.3       0 UNK        -0.1800 
      2 C           0.1077  -13.2083  -43.4987 C.2       0 UNK         0.5000 
      3 O          -0.3135  -12.1741  -42.9814 O.2       0 UNK        -0.5000 
      4 N          -0.6947  -14.1428  -44.0244 N.am      1 UNK        -0.5000 
      5 CA         -2.1614  -14.0883  -44.0213 C.3       1 UNK         0.1400 
      6 C6         -2.7616  -15.4891  -44.2983 C.3       23 UNK        -0.0398 
      7 S7         -4.4063  -15.7314  -43.5402 S.3       23 UNK        -0.2404 
      8 C8         -5.5389  -15.5233  -44.9564 C.3       23 UNK        -0.0205 
      9 C9         -5.2451  -16.5034  -46.0818 C.ar      23 UNK        -0.0193 
     10 C10        -4.8130  -16.0412  -47.3263 C.ar      23 UNK        -0.1150 
     11 C11        -4.5076  -16.9412  -48.3498 C.ar      23 UNK        -0.0193 
     12 C12        -4.6236  -18.3154  -48.1178 C.ar      23 UNK        -0.1150 
     13 C13        -5.0563  -18.7930  -46.8755 C.ar      23 UNK        -0.0193 
     14 C14        -5.3876  -17.8755  -45.8717 C.ar      23 UNK        -0.1150 
     15 C15        -5.1859  -20.2960  -46.6455 C.3       23 UNK        -0.0205 
     16 S16        -4.7887  -20.8303  -44.9432 S.3       23 UNK        -0.2404 
     17 C17        -2.9639  -20.7176  -44.9166 C.3       23 UNK        -0.0398 
     18 CA         -2.2982  -22.0558  -45.3174 C.3       11 UNK         0.1400 
     19 N          -0.9612  -21.8798  -45.8959 N.am      11 UNK        -0.5000 
     20 C          -0.3173  -22.8106  -46.6169 C.2       10 UNK         0.5000 
     21 O          -0.7812  -23.9295  -46.8459 O.2       10 UNK        -0.5000 
     22 CA          1.0855  -22.4542  -47.1342 C.3       10 UNK         0.1400 
     23 CB          0.9915  -21.6706  -48.4509 C.3       10 UNK        -0.1800 
     24 N           1.8662  -21.6919  -46.1596 N.am      10 UNK        -0.5000 
     25 C           2.2913  -22.1785  -44.9846 C.2       9 UNK         0.5000 
     26 O           2.0935  -23.3357  -44.6173 O.2       9 UNK        -0.5000 
     27 CA          3.0256  -21.2047  -44.0449 C.3       9 UNK         0.1400 
     28 CB          4.4866  -21.0213  -44.4800 C.3       9 UNK        -0.1800 
     29 N           2.3696  -19.9002  -43.9606 N.am      9 UNK        -0.5000 
     30 C           1.1406  -19.6962  -43.4636 C.2       8 UNK         0.5000 
     31 O           0.4347  -20.5831  -42.9824 O.2       8 UNK        -0.5000 
     32 CA          0.5892  -18.2635  -43.5654 C.3       8 UNK         0.1400 
     33 CB          1.0974  -17.3868  -42.4107 C.3       8 UNK        -0.1800 
     34 N           0.9262  -17.6344  -44.8419 N.am      8 UNK        -0.5000 
     35 C           0.4336  -18.0250  -46.0256 C.2       7 UNK         0.5000 
     36 O          -0.3689  -18.9470  -46.1660 O.2       7 UNK        -0.5000 
     37 CA          0.9640  -17.2733  -47.2558 C.3       7 UNK         0.1400 
     38 CB          0.3250  -15.8771  -47.3350 C.3       7 UNK        -0.1800 
     39 N           2.4236  -17.1485  -47.2399 N.am      7 UNK        -0.5000 
     40 C           3.2749  -18.1845  -47.3124 C.2       6 UNK         0.5000 
     41 O           2.9124  -19.3511  -47.4434 O.2       6 UNK        -0.5000 
     42 CA          4.7826  -17.8901  -47.1726 C.3       6 UNK         0.1400 
     43 CB          5.4009  -17.6208  -48.5523 C.3       6 UNK        -0.1800 
     44 N           5.0888  -16.7679  -46.2871 N.am      6 UNK        -0.5000 
     45 C           4.7032  -16.6439  -45.0094 C.2       5 UNK         0.5000 
     46 O           4.1194  -17.5289  -44.3820 O.2       5 UNK        -0.5000 
     47 CA          4.9492  -15.2731  -44.3421 C.3       5 UNK         0.1400 
     48 CB          6.2217  -15.3212  -43.4841 C.3       5 UNK        -0.1800 
     49 N           5.0379  -14.1307  -45.2674 N.am      5 UNK        -0.5000 
     50 C           4.1395  -13.8010  -46.2081 C.2       4 UNK         0.5000 
     51 O           3.1282  -14.4683  -46.4376 O.2       4 UNK        -0.5000 
     52 CA          4.4568  -12.5566  -47.0643 C.3       4 UNK         0.1400 
     53 CB          5.7445  -12.7687  -47.8793 C.3       4 UNK        -0.1800 
     54 N           3.3728  -12.2461  -47.9985 N.am      4 UNK        -0.5000 
     55 C           2.1667  -11.7769  -47.6554 C.2       3 UNK         0.5000 
     56 O           1.8859  -11.4067  -46.5131 O.2       3 UNK        -0.5000 
     57 CA          1.0974  -11.7202  -48.7690 C.3       3 UNK         0.1400 
     58 CB          1.3896  -12.6577  -49.9592 C.3       3 UNK        -0.1800 
     59 N          -0.2152  -12.0604  -48.2210 N.am      3 UNK        -0.5000 
     60 C          -1.1003  -11.1721  -47.7504 C.2       2 UNK         0.5000 
     61 O          -0.9489   -9.9506  -47.7990 O.2       2 UNK        -0.5000 
     62 CA         -2.3562  -11.7534  -47.0916 C.3       2 UNK         0.1400 
     63 CB         -3.3013  -12.3872  -48.1292 C.3       2 UNK        -0.1800 
     64 N          -1.9848  -12.7317  -46.0705 N.am      2 UNK        -0.5000 
     65 C          -2.7257  -13.0277  -44.9954 C.2       1 UNK         0.5000 
     66 O          -3.8090  -12.4949  -44.7515 O.2       1 UNK        -0.5000 
     67 C          -2.3770  -23.1432  -44.2161 C.2       11 UNK         0.5000 
     68 O          -3.4773  -23.5990  -43.9039 O.2       11 UNK        -0.5000 
     69 N          -1.2317  -23.6449  -43.7273 N.am      12 UNK        -0.5000 
     70 CA         -1.1526  -24.8722  -42.9240 C.3       12 UNK         0.1400 
     71 CB          0.2861  -25.0664  -42.4252 C.3       12 UNK        -0.1800 
     72 C          -1.6374  -26.1309  -43.6832 C.2       12 UNK         0.5000 
     73 O          -2.0856  -27.0843  -43.0461 O.2       12 UNK        -0.5000 
     74 N          -1.5771  -26.0922  -45.0222 N.am      13 UNK        -0.5000 
     75 CA         -2.1407  -27.0792  -45.9441 C.3       13 UNK         0.1400 
     76 CB         -0.9984  -27.6580  -46.7977 C.3       13 UNK        -0.1800 
     77 C          -3.2459  -26.4391  -46.8143 C.2       13 UNK         0.5000 
     78 O          -3.4578  -26.8650  -47.9514 O.2       13 UNK        -0.5000 
     79 N          -3.9019  -25.3903  -46.2877 N.am      14 UNK        -0.5000 
     80 CA         -4.9519  -24.5672  -46.9089 C.3       14 UNK         0.1400 
     81 CB         -6.2194  -25.4069  -47.1664 C.3       14 UNK        -0.1800 
     82 C          -4.5087  -23.8035  -48.1768 C.2       14 UNK         0.5000 
     83 O          -5.3585  -23.2723  -48.8933 O.2       14 UNK        -0.5000 
     84 N          -3.1956  -23.7725  -48.4523 N.am      15 UNK        -0.5000 
     85 CA         -2.5411  -23.2091  -49.6353 C.3       15 UNK         0.1400 
     86 CB         -2.5797  -21.6675  -49.5871 C.3       15 UNK        -0.1800 
     87 C          -3.0878  -23.7898  -50.9548 C.2       15 UNK         0.5000 
     88 O          -3.1759  -23.0679  -51.9479 O.2       15 UNK        -0.5000 
     89 N          -3.4873  -25.0713  -50.9297 N.am      16 UNK        -0.5000 
     90 CA         -4.1846  -25.7911  -52.0033 C.3       16 UNK         0.1400 
     91 CB         -3.2481  -26.0092  -53.2106 C.3       16 UNK        -0.1800 
     92 C          -5.5280  -25.1275  -52.3888 C.2       16 UNK         0.5000 
     93 O          -5.8764  -25.0799  -53.5685 O.2       16 UNK        -0.5000 
     94 N          -6.2384  -24.6107  -51.3736 N.am      17 UNK        -0.5000 
     95 CA         -7.4432  -23.7784  -51.4524 C.3       17 UNK         0.1400 
     96 CB         -8.6136  -24.5259  -52.1265 C.3       17 UNK        -0.1800 
     97 C          -7.1384  -22.4013  -52.0778 C.2       17 UNK         0.5000 
     98 O          -7.8512  -21.9572  -52.9796 O.2       17 UNK        -0.5000 
     99 N          -6.0703  -21.7632  -51.5724 N.am      18 UNK        -0.5000 
    100 CA        -5.5180  -20.4700  -51.9977 C.3       18 UNK         0.1400 
    101 CB        -6.4602  -19.3177  -51.5935 C.3       18 UNK        -0.1800 
    102 C         -5.1271  -20.4471  -53.4910 C.2       18 UNK         0.5000 
    103 O         -5.5364  -19.5499  -54.2309 O.2       18 UNK        -0.5000 
    104 N         -4.3477  -21.4536  -53.9009 N.am      19 UNK        -0.5000 
    105 CA        -3.8343  -21.6276  -55.2593 C.3       19 UNK         0.1400 
    106 CB        -4.5020  -22.8537  -55.8998 C.3       19 UNK        -0.1800 
    107 C         -2.3033  -21.7752  -55.2788 C.2       19 UNK         0.5000 
    108 O         -1.6741  -21.3411  -56.2444 O.2       19 UNK        -0.5000 
    109 N         -1.7198  -22.3655  -54.2248 N.am      20 UNK        -0.5000 
    110 CA        -0.2717  -22.5269  -54.0639 C.3       20 UNK         0.1400 
    111 CB         0.0063  -23.6598  -53.0635 C.3       20 UNK        -0.1800 
    112 C          0.4128  -21.2279  -53.6007 C.2       20 UNK         0.5000 
    113 O          1.5969  -21.0316  -53.8764 O.2       20 UNK        -0.5000 
    114 N         -0.3463  -20.3658  -52.9177 N.am      21 UNK        -0.5000 
    115 CA         0.0494  -19.0390  -52.4710 C.3       21 UNK         0.1400 
    116 CB         0.7063  -19.1257  -51.0825 C.3       21 UNK        -0.1800 
    117 C         -1.2123  -18.1706  -52.4203 C.2       21 UNK         0.5000 
    118 O         -2.2966  -18.7060  -52.1717 O.2       21 UNK        -0.5000 
    119 N         -1.0279  -16.8633  -52.6489 N.am      22 UNK        -0.5000 
    120 CA        -1.9723  -15.7278  -52.5340 C.3       22 UNK         0.1400 
    121 C         -3.3980  -15.8304  -53.1644 C.2       22 UNK         0.5000 
    122 N         -3.8432  -16.9784  -53.6443 N.am      22 UNK        -0.7600 
    123 O         -4.0987  -14.8263  -53.2584 O.2       22 UNK        -0.5000 
    124 C124       -1.9900  -15.0912  -51.1139 C.3       23 UNK        -0.0398 
    125 S125       -2.2372  -16.2417  -49.7201 S.3       23 UNK        -0.2404 
    126 C126       -4.0419  -16.4178  -49.6971 C.3       23 UNK        -0.0205 
    127 H127        1.8206  -14.4258  -44.0435 H         1 UNK         0.0600 
    128 H128        2.0070  -13.5334  -42.5318 H         1 UNK         0.0600 
    129 H129        2.1168  -12.6853  -44.0779 H         1 UNK         0.0600 
    130 H130       -0.2864  -14.9750  -44.4210 H         1 UNK         0.3000 
    131 H131       -2.4594  -13.7854  -43.0148 H         1 UNK         0.0600 
    132 H132       -2.7744  -15.7155  -45.3650 H         1 UNK         0.0800 
    133 H133       -2.1251  -16.2561  -43.8547 H         1 UNK         0.0800 
    134 H134       -6.5630  -15.6746  -44.6129 H         1 UNK         0.0800 
    135 H135       -5.4875  -14.4944  -45.3138 H         1 UNK         0.0800 
    136 H136       -4.7033  -14.9804  -47.4978 H         1 UNK         0.1150 
    137 H137       -4.3740  -19.0103  -48.9073 H         1 UNK         0.1150 
    138 H138       -5.7346  -18.2232  -44.9093 H         1 UNK         0.1150 
    139 H139       -6.2118  -20.5891  -46.8712 H         1 UNK         0.0800 
    140 H140       -4.5494  -20.8425  -47.3421 H         1 UNK         0.0800 
    141 H141       -2.6297  -20.3922  -43.9301 H         1 UNK         0.0800 
    142 H142       -2.6755  -19.9255  -45.6077 H         1 UNK         0.0800 
    143 H143       -2.8962  -22.4482  -46.1377 H         1 UNK         0.0600 
    144 H144       -0.5351  -20.9652  -45.7838 H         1 UNK         0.3000 
    145 H145        1.6132  -23.3894  -47.3325 H         1 UNK         0.0600 
    146 H146        1.9809  -21.4741  -48.8637 H         1 UNK         0.0600 
    147 H147        0.4362  -22.2261  -49.2059 H         1 UNK         0.0600 
    148 H148        0.4921  -20.7116  -48.3086 H         1 UNK         0.0600 
    149 H149        2.1157  -20.7430  -46.4265 H         1 UNK         0.3000 
    150 H150        3.0228  -21.6413  -43.0439 H         1 UNK         0.0600 
    151 H151        5.0175  -21.9739  -44.4700 H         1 UNK         0.0600 
    152 H152        5.0177  -20.3440  -43.8108 H         1 UNK         0.0600 
    153 H153        4.5567  -20.6192  -45.4899 H         1 UNK         0.0600 
    154 H154        2.8981  -19.0997  -44.2934 H         1 UNK         0.3000 
    155 H155       -0.4991  -18.3226  -43.4927 H         1 UNK         0.0600 
    156 H156        0.8544  -17.8351  -41.4465 H         1 UNK         0.0600 
    157 H157        0.6377  -16.3990  -42.4320 H         1 UNK         0.0600 
    158 H158        2.1793  -17.2551  -42.4470 H         1 UNK         0.0600 
    159 H159        1.6600  -16.9414  -44.8313 H         1 UNK         0.3000 
    160 H160        0.6735  -17.8381  -48.1442 H         1 UNK         0.0600 
    161 H161        0.6655  -15.2246  -46.5321 H         1 UNK         0.0600 
    162 H162       -0.7608  -15.9387  -47.2575 H         1 UNK         0.0600 
    163 H163        0.5597  -15.3955  -48.2832 H         1 UNK         0.0600 
    164 H164        2.7943  -16.2140  -47.0859 H         1 UNK         0.3000 
    165 H165        5.2581  -18.7775  -46.7528 H         1 UNK         0.0600 
    166 H166        6.4823  -17.5005  -48.4843 H         1 UNK         0.0600 
    167 H167        5.2097  -18.4503  -49.2345 H         1 UNK         0.0600 
    168 H168        4.9896  -16.7191  -49.0080 H         1 UNK         0.0600 
    169 H169        5.5524  -15.9787  -46.7110 H         1 UNK         0.3000 
    170 H170        4.1038  -15.0886  -43.6781 H         1 UNK         0.0600 
    171 H171        6.1805  -16.1433  -42.7679 H         1 UNK         0.0600 
    172 H172        7.1134  -15.4630  -44.0959 H         1 UNK         0.0600 
    173 H173        6.3480  -14.4018  -42.9122 H         1 UNK         0.0600 
    174 H174        5.8486  -13.5396  -45.1532 H         1 UNK         0.3000 
    175 H175        4.5950  -11.7071  -46.3926 H         1 UNK         0.0600 
    176 H176        5.6655  -13.6338  -48.5392 H         1 UNK         0.0600 
    177 H177        5.9669  -11.8977  -48.4963 H         1 UNK         0.0600 
    178 H178        6.6072  -12.9272  -47.2314 H         1 UNK         0.0600 
    179 H179        3.5089  -12.5517  -48.9503 H         1 UNK         0.3000 
    180 H180        1.0869  -10.6968  -49.1492 H         1 UNK         0.0600 
    181 H181        1.5190  -13.6929  -49.6421 H         1 UNK         0.0600 
    182 H182        2.2915  -12.3554  -50.4925 H         1 UNK         0.0600 
    183 H183        0.5755  -12.6321  -50.6838 H         1 UNK         0.0600 
    184 H184       -0.4251  -13.0440  -48.1543 H         1 UNK         0.3000 
    185 H185       -2.8772  -10.9198  -46.6152 H         1 UNK         0.0600 
    186 H186       -2.8809  -13.2973  -48.5579 H         1 UNK         0.0600 
    187 H187       -4.2609  -12.6410  -47.6794 H         1 UNK         0.0600 
    188 H188       -3.5032  -11.6975  -48.9496 H         1 UNK         0.0600 
    189 H189       -1.0598  -13.1293  -46.1404 H         1 UNK         0.3000 
    190 H190       -0.3542  -23.2370  -44.0221 H         1 UNK         0.3000 
    191 H191       -1.7996  -24.7408  -42.0543 H         1 UNK         0.0600 
    192 H192        0.9687  -25.2865  -43.2463 H         1 UNK         0.0600 
    193 H193        0.6525  -24.1782  -41.9098 H         1 UNK         0.0600 
    194 H194        0.3440  -25.8988  -41.7229 H         1 UNK         0.0600 
    195 H195       -1.1859  -25.2672  -45.4680 H         1 UNK         0.3000 
    196 H196       -2.6079  -27.8976  -45.3934 H         1 UNK         0.0600 
    197 H197       -0.2245  -28.1002  -46.1701 H         1 UNK         0.0600 
    198 H198       -0.5307  -26.8889  -47.4140 H         1 UNK         0.0600 
    199 H199       -1.3605  -28.4419  -47.4639 H         1 UNK         0.0600 
    200 H200       -3.6544  -25.1090  -45.3454 H         1 UNK         0.3000 
    201 H201       -5.2088  -23.8017  -46.1756 H         1 UNK         0.0600 
    202 H202       -7.0510  -24.7765  -47.4837 H         1 UNK         0.0600 
    203 H203       -6.5374  -25.9267  -46.2626 H         1 UNK         0.0600 
    204 H204       -6.0618  -26.1535  -47.9451 H         1 UNK         0.0600 
    205 H205       -2.5630  -24.2195  -47.7979 H         1 UNK         0.3000 
    206 H206       -1.4979  -23.5209  -49.5883 H         1 UNK         0.0600 
    207 H207       -2.1206  -21.2889  -48.6742 H         1 UNK         0.0600 
    208 H208       -3.6006  -21.2913  -49.6191 H         1 UNK         0.0600 
    209 H209       -2.0381  -21.2274  -50.4252 H         1 UNK         0.0600 
    210 H210       -3.3804  -25.5811  -50.0611 H         1 UNK         0.3000 
    211 H211       -4.4367  -26.7731  -51.6006 H         1 UNK         0.0600 
    212 H212       -2.3184  -26.4892  -52.9056 H         1 UNK         0.0600 
    213 H213       -3.7151  -26.6537  -53.9561 H         1 UNK         0.0600 
    214 H214       -2.9941  -25.0720  -53.7049 H         1 UNK         0.0600 
    215 H215       -5.8258  -24.6500  -50.4501 H         1 UNK         0.3000 
    216 H216       -7.7404  -23.5815  -50.4212 H         1 UNK         0.0600 
    217 H217       -9.5375  -23.9528  -52.0421 H         1 UNK         0.0600 
    218 H218       -8.4356  -24.6964  -53.1884 H         1 UNK         0.0600 
    219 H219       -8.7875  -25.4930  -51.6550 H         1 UNK         0.0600 
    220 H220       -5.5711  -22.2274  -50.8230 H         1 UNK         0.3000 
    221 H221       -4.5868  -20.3293  -51.4494 H         1 UNK         0.0600 
    222 H222       -7.4187  -19.3768  -52.1097 H         1 UNK         0.0600 
    223 H223       -6.6540  -19.3259  -50.5209 H         1 UNK         0.0600 
    224 H224       -6.0183  -18.3504  -51.8349 H         1 UNK         0.0600 
    225 H225       -4.0516  -22.1374  -53.2080 H         1 UNK         0.3000 
    226 H226       -4.0750  -20.7539  -55.8684 H         1 UNK         0.0600 
    227 H227       -5.5870  -22.7483  -55.9139 H         1 UNK         0.0600 
    228 H228       -4.1720  -22.9853  -56.9309 H         1 UNK         0.0600 
    229 H229       -4.2639  -23.7695  -55.3587 H         1 UNK         0.0600 
    230 H230       -2.2936  -22.6895  -53.4502 H         1 UNK         0.3000 
    231 H231        0.1597  -22.8104  -55.0263 H         1 UNK         0.0600 
    232 H232        1.0758  -23.8618  -52.9946 H         1 UNK         0.0600 
    233 H233       -0.4800  -24.5865  -53.3674 H         1 UNK         0.0600 
    234 H234       -0.3410  -23.4072  -52.0617 H         1 UNK         0.0600 
    235 H235       -1.3252  -20.5757  -52.7700 H         1 UNK         0.3000 
    236 H236        0.7517  -18.6066  -53.1869 H         1 UNK         0.0600 
    237 H237        1.5790  -19.7787  -51.0928 H         1 UNK         0.0600 
    238 H238        1.0380  -18.1433  -50.7443 H         1 UNK         0.0600 
    239 H239        0.0084  -19.5086  -50.3374 H         1 UNK         0.0600 
    240 H240       -0.0880  -16.5771  -52.8807 H         1 UNK         0.3000 
    241 H241       -1.5062  -14.9764  -53.1729 H         1 UNK         0.0600 
    242 H242       -4.7564  -17.0460  -54.0647 H         1 UNK         0.3800 
    243 H243       -3.3245  -17.8206  -53.4183 H         1 UNK         0.3800 
    244 H244       -1.0240  -14.6163  -50.9409 H         1 UNK         0.0800 
    245 H245       -2.7140  -14.2775  -51.0457 H         1 UNK         0.0800 
    246 H246       -4.5150  -15.4571  -49.9058 H         1 UNK         0.0800 
    247 H247       -4.3456  -17.0967  -50.4950 H         1 UNK         0.0800 
@<TRIPOS>BOND
     1    1    2 1    
     2    1  127 1    
     3    1  128 1    
     4    1  129 1    
     5    2    3 2    
     6    2    4 am   BACKBONE|DICT|INTERRES
     7    4    5 1    
     8    4  130 1    
     9    5    6 1    
    10    5   65 1    
    11    5  131 1    
    12    6    7 1    
    13    6  132 1    
    14    6  133 1    
    15    7    8 1    
    16    8    9 1    
    17    8  134 1    
    18    8  135 1    
    19    9   10 ar   
    20    9   14 ar   
    21   10   11 ar   
    22   10  136 1    
    23   11   12 ar   
    24   11  126 1    
    25   12   13 ar   
    26   12  137 1    
    27   13   14 ar   
    28   13   15 1    
    29   14  138 1    
    30   15   16 1    
    31   15  139 1    
    32   15  140 1    
    33   16   17 1    
    34   17   18 1    
    35   17  141 1    
    36   17  142 1    
    37   18   19 1    
    38   18   67 1    
    39   18  143 1    
    40   19   20 am   BACKBONE|DICT|INTERRES
    41   19  144 1    
    42   20   21 2    
    43   20   22 1    
    44   22   23 1    
    45   22   24 1    
    46   22  145 1    
    47   23  146 1    
    48   23  147 1    
    49   23  148 1    
    50   24   25 am   BACKBONE|DICT|INTERRES
    51   24  149 1    
    52   25   26 2    
    53   25   27 1    
    54   27   28 1    
    55   27   29 1    
    56   27  150 1    
    57   28  151 1    
    58   28  152 1    
    59   28  153 1    
    60   29   30 am   BACKBONE|DICT|INTERRES
    61   29  154 1    
    62   30   31 2    
    63   30   32 1    
    64   32   33 1    
    65   32   34 1    
    66   32  155 1    
    67   33  156 1    
    68   33  157 1    
    69   33  158 1    
    70   34   35 am   BACKBONE|DICT|INTERRES
    71   34  159 1    
    72   35   36 2    
    73   35   37 1    
    74   37   38 1    
    75   37   39 1    
    76   37  160 1    
    77   38  161 1    
    78   38  162 1    
    79   38  163 1    
    80   39   40 am   BACKBONE|DICT|INTERRES
    81   39  164 1    
    82   40   41 2    
    83   40   42 1    
    84   42   43 1    
    85   42   44 1    
    86   42  165 1    
    87   43  166 1    
    88   43  167 1    
    89   43  168 1    
    90   44   45 am   BACKBONE|DICT|INTERRES
    91   44  169 1    
    92   45   46 2    
    93   45   47 1    
    94   47   48 1    
    95   47   49 1    
    96   47  170 1    
    97   48  171 1    
    98   48  172 1    
    99   48  173 1    
   100   49   50 am   BACKBONE|DICT|INTERRES
   101   49  174 1    
   102   50   51 2    
   103   50   52 1    
   104   52   53 1    
   105   52   54 1    
   106   52  175 1    
   107   53  176 1    
   108   53  177 1    
   109   53  178 1    
   110   54   55 am   BACKBONE|DICT|INTERRES
   111   54  179 1    
   112   55   56 2    
   113   55   57 1    
   114   57   58 1    
   115   57   59 1    
   116   57  180 1    
   117   58  181 1    
   118   58  182 1    
   119   58  183 1    
   120   59   60 am   BACKBONE|DICT|INTERRES
   121   59  184 1    
   122   60   61 2    
   123   60   62 1    
   124   62   63 1    
   125   62   64 1    
   126   62  185 1    
   127   63  186 1    
   128   63  187 1    
   129   63  188 1    
   130   64   65 am   BACKBONE|DICT|INTERRES
   131   64  189 1    
   132   65   66 2    
   133   67   68 2    
   134   67   69 am   BACKBONE|DICT|INTERRES
   135   69   70 1    
   136   69  190 1    
   137   70   71 1    
   138   70   72 1    
   139   70  191 1    
   140   71  192 1    
   141   71  193 1    
   142   71  194 1    
   143   72   73 2    
   144   72   74 am   BACKBONE|DICT|INTERRES
   145   74   75 1    
   146   74  195 1    
   147   75   76 1    
   148   75   77 1    
   149   75  196 1    
   150   76  197 1    
   151   76  198 1    
   152   76  199 1    
   153   77   78 2    
   154   77   79 am   BACKBONE|DICT|INTERRES
   155   79   80 1    
   156   79  200 1    
   157   80   81 1    
   158   80   82 1    
   159   80  201 1    
   160   81  202 1    
   161   81  203 1    
   162   81  204 1    
   163   82   83 2    
   164   82   84 am   BACKBONE|DICT|INTERRES
   165   84   85 1    
   166   84  205 1    
   167   85   86 1    
   168   85   87 1    
   169   85  206 1    
   170   86  207 1    
   171   86  208 1    
   172   86  209 1    
   173   87   88 2    
   174   87   89 am   BACKBONE|DICT|INTERRES
   175   89   90 1    
   176   89  210 1    
   177   90   91 1    
   178   90   92 1    
   179   90  211 1    
   180   91  212 1    
   181   91  213 1    
   182   91  214 1    
   183   92   93 2    
   184   92   94 am   BACKBONE|DICT|INTERRES
   185   94   95 1    
   186   94  215 1    
   187   95   96 1    
   188   95   97 1    
   189   95  216 1    
   190   96  217 1    
   191   96  218 1    
   192   96  219 1    
   193   97   98 2    
   194   97   99 am   BACKBONE|DICT|INTERRES
   195   99  100 1    
   196   99  220 1    
   197  100  101 1    
   198  100  102 1    
   199  100  221 1    
   200  101  222 1    
   201  101  223 1    
   202  101  224 1    
   203  102  103 2    
   204  102  104 am   BACKBONE|DICT|INTERRES
   205  104  105 1    
   206  104  225 1    
   207  105  106 1    
   208  105  107 1    
   209  105  226 1    
   210  106  227 1    
   211  106  228 1    
   212  106  229 1    
   213  107  108 2    
   214  107  109 am   BACKBONE|DICT|INTERRES
   215  109  110 1    
   216  109  230 1    
   217  110  111 1    
   218  110  112 1    
   219  110  231 1    
   220  111  232 1    
   221  111  233 1    
   222  111  234 1    
   223  112  113 2    
   224  112  114 am   BACKBONE|DICT|INTERRES
   225  114  115 1    
   226  114  235 1    
   227  115  116 1    
   228  115  117 1    
   229  115  236 1    
   230  116  237 1    
   231  116  238 1    
   232  116  239 1    
   233  117  118 2    
   234  117  119 am   BACKBONE|DICT|INTERRES
   235  119  120 1    
   236  119  240 1    
   237  120  121 1    
   238  120  124 1    
   239  120  241 1    
   240  121  122 am   BACKBONE|DICT|INTERRES
   241  121  123 2    
   242  122  242 1    
   243  122  243 1    
   244  124  125 1    
   245  124  244 1    
   246  124  245 1    
   247  125  126 1    
   248  126  246 1    
   249  126  247 1    
@<TRIPOS>SUBSTRUCTURE
     1 UNK         1 GROUP             0       ****    0 ROOT    
