@<TRIPOS>MOLECULE
3R540
247   249    1
SMALL
USER_CHARGES


@<TRIPOS>ATOM
      1 CA          5.5245  -10.4034  -51.9072 C.3       0 UNK        -0.1800 
      2 C           5.2698  -10.5114  -50.4102 C.2       0 UNK         0.5000 
      3 O           5.2741   -9.4964  -49.7126 O.2       0 UNK        -0.5000 
      4 N           5.0584  -11.7359  -49.9143 N.am      1 UNK        -0.5000 
      5 CA          4.7169  -12.0344  -48.5206 C.3       1 UNK         0.1400 
      6 C6          4.9690  -13.5256  -48.1760 C.3       23 UNK        -0.0398 
      7 S7          4.0984  -14.7126  -49.2623 S.3       23 UNK        -0.2404 
      8 C8          2.8935  -15.4070  -48.0946 C.3       23 UNK        -0.0205 
      9 C9          1.8295  -16.2260  -48.8044 C.ar      23 UNK        -0.0193 
     10 C10         0.5487  -15.6984  -48.9900 C.ar      23 UNK        -0.1150 
     11 C11        -0.4539  -16.4657  -49.5875 C.ar      23 UNK        -0.0193 
     12 C12        -0.1612  -17.7609  -50.0263 C.ar      23 UNK        -0.1150 
     13 C13         1.1237  -18.2904  -49.8690 C.ar      23 UNK        -0.0193 
     14 C14         2.1125  -17.5210  -49.2483 C.ar      23 UNK        -0.1150 
     15 C15         1.4518  -19.6841  -50.3864 C.3       23 UNK        -0.0205 
     16 S16         1.5633  -20.9121  -49.0480 S.3       23 UNK        -0.2404 
     17 C17        -0.1682  -20.9823  -48.4906 C.3       23 UNK        -0.0398 
     18 CA         -0.4415  -22.2011  -47.5785 C.3       11 UNK         0.1400 
     19 N           0.2181  -22.1136  -46.2724 N.am      11 UNK        -0.5000 
     20 C           0.2507  -23.1088  -45.3728 C.2       10 UNK         0.5000 
     21 O          -0.1871  -24.2395  -45.5889 O.2       10 UNK        -0.5000 
     22 CA          0.8159  -22.7764  -43.9791 C.3       10 UNK         0.1400 
     23 CB          2.3496  -22.8557  -43.9695 C.3       10 UNK        -0.1800 
     24 N           0.3808  -21.4660  -43.4921 N.am      10 UNK        -0.5000 
     25 C          -0.8925  -21.1412  -43.2233 C.2       9 UNK         0.5000 
     26 O          -1.8304  -21.9350  -43.3024 O.2       9 UNK        -0.5000 
     27 CA         -1.1749  -19.6715  -42.8566 C.3       9 UNK         0.1400 
     28 CB         -0.8628  -19.3989  -41.3780 C.3       9 UNK        -0.1800 
     29 N          -0.4341  -18.7323  -43.6991 N.am      9 UNK        -0.5000 
     30 C          -0.5957  -18.6139  -45.0247 C.2       8 UNK         0.5000 
     31 O          -1.4344  -19.2391  -45.6711 O.2       8 UNK        -0.5000 
     32 CA          0.3793  -17.6828  -45.7608 C.3       8 UNK         0.1400 
     33 CB         -0.0940  -16.2282  -45.6728 C.3       8 UNK        -0.1800 
     34 N           1.7433  -17.7942  -45.2447 N.am      8 UNK        -0.5000 
     35 C           2.5059  -18.8890  -45.3741 C.2       7 UNK         0.5000 
     36 O           2.1405  -19.9089  -45.9540 O.2       7 UNK        -0.5000 
     37 CA          3.8838  -18.8607  -44.6890 C.3       7 UNK         0.1400 
     38 CB          4.9061  -18.1028  -45.5495 C.3       7 UNK        -0.1800 
     39 N           3.8292  -18.2592  -43.3570 N.am      7 UNK        -0.5000 
     40 C           3.1540  -18.7704  -42.3171 C.2       6 UNK         0.5000 
     41 O           2.5709  -19.8535  -42.3469 O.2       6 UNK        -0.5000 
     42 CA          3.0687  -17.8922  -41.0530 C.3       6 UNK         0.1400 
     43 CB          4.2525  -18.1753  -40.1167 C.3       6 UNK        -0.1800 
     44 N           3.0195  -16.4579  -41.3580 N.am      6 UNK        -0.5000 
     45 C           2.0379  -15.8664  -42.0524 C.2       5 UNK         0.5000 
     46 O           1.0505  -16.4699  -42.4779 O.2       5 UNK        -0.5000 
     47 CA          2.2506  -14.3795  -42.3945 C.3       5 UNK         0.1400 
     48 CB          3.2241  -14.2499  -43.5782 C.3       5 UNK        -0.1800 
     49 N           1.0052  -13.6832  -42.7265 N.am      5 UNK        -0.5000 
     50 C           0.0307  -13.4087  -41.8449 C.2       4 UNK         0.5000 
     51 O           0.0935  -13.7198  -40.6541 O.2       4 UNK        -0.5000 
     52 CA         -1.2035  -12.6237  -42.3405 C.3       4 UNK         0.1400 
     53 CB         -1.2991  -11.2648  -41.6263 C.3       4 UNK        -0.1800 
     54 N          -1.1888  -12.3791  -43.7824 N.am      4 UNK        -0.5000 
     55 C          -1.7438  -13.1691  -44.7100 C.2       3 UNK         0.5000 
     56 O          -2.4030  -14.1732  -44.4419 O.2       3 UNK        -0.5000 
     57 CA         -1.5274  -12.7766  -46.1895 C.3       3 UNK         0.1400 
     58 CB         -2.8375  -12.2766  -46.8174 C.3       3 UNK        -0.1800 
     59 N          -0.4842  -11.7646  -46.3992 N.am      3 UNK        -0.5000 
     60 C           0.8229  -11.9659  -46.1923 C.2       2 UNK         0.5000 
     61 O           1.2871  -13.0233  -45.7657 O.2       2 UNK        -0.5000 
     62 CA          1.7528  -10.7620  -46.4145 C.3       2 UNK         0.1400 
     63 CB          1.9597  -10.0086  -45.0911 C.3       2 UNK        -0.1800 
     64 N           3.0563  -11.1802  -46.9288 N.am      2 UNK        -0.5000 
     65 C           3.2754  -11.5864  -48.1854 C.2       1 UNK         0.5000 
     66 O           2.3992  -11.6120  -49.0546 O.2       1 UNK        -0.5000 
     67 C          -1.9561  -22.4285  -47.4251 C.2       11 UNK         0.5000 
     68 O          -2.4833  -23.3442  -48.0527 O.2       11 UNK        -0.5000 
     69 N          -2.6225  -21.6282  -46.5807 N.am      12 UNK        -0.5000 
     70 CA         -4.0593  -21.7091  -46.3038 C.3       12 UNK         0.1400 
     71 CB         -4.4791  -20.5538  -45.3844 C.3       12 UNK        -0.1800 
     72 C          -4.4999  -23.0638  -45.7258 C.2       12 UNK         0.5000 
     73 O          -5.5298  -23.5905  -46.1471 O.2       12 UNK        -0.5000 
     74 N          -3.6843  -23.6364  -44.8303 N.am      13 UNK        -0.5000 
     75 CA         -3.8777  -24.9713  -44.2565 C.3       13 UNK         0.1400 
     76 CB         -2.8315  -25.2002  -43.1553 C.3       13 UNK        -0.1800 
     77 C          -3.8266  -26.1107  -45.2971 C.2       13 UNK         0.5000 
     78 O          -4.4580  -27.1472  -45.0888 O.2       13 UNK        -0.5000 
     79 N          -3.0975  -25.8925  -46.3987 N.am      14 UNK        -0.5000 
     80 CA         -2.9688  -26.8125  -47.5291 C.3       14 UNK         0.1400 
     81 CB         -1.4914  -26.8290  -47.9583 C.3       14 UNK        -0.1800 
     82 C          -3.8672  -26.4192  -48.7207 C.2       14 UNK         0.5000 
     83 O          -3.7989  -27.0800  -49.7584 O.2       14 UNK        -0.5000 
     84 N          -4.6352  -25.3236  -48.5891 N.am      15 UNK        -0.5000 
     85 CA         -5.4240  -24.6452  -49.6302 C.3       15 UNK         0.1400 
     86 CB         -6.6490  -25.4974  -50.0168 C.3       15 UNK        -0.1800 
     87 C          -4.5885  -24.2247  -50.8628 C.2       15 UNK         0.5000 
     88 O          -5.1185  -24.1530  -51.9735 O.2       15 UNK        -0.5000 
     89 N          -3.2834  -23.9967  -50.6437 N.am      16 UNK        -0.5000 
     90 CA         -2.2173  -23.7984  -51.6299 C.3       16 UNK         0.1400 
     91 CB         -2.2489  -22.3570  -52.1615 C.3       16 UNK        -0.1800 
     92 C          -2.2311  -24.8656  -52.7462 C.2       16 UNK         0.5000 
     93 O          -2.1338  -24.5296  -53.9298 O.2       16 UNK        -0.5000 
     94 N          -2.4335  -26.1285  -52.3380 N.am      17 UNK        -0.5000 
     95 CA         -2.6517  -27.3393  -53.1382 C.3       17 UNK         0.1400 
     96 CB         -1.4474  -27.6503  -54.0482 C.3       17 UNK        -0.1800 
     97 C          -3.9751  -27.3166  -53.9278 C.2       17 UNK         0.5000 
     98 O          -4.7974  -28.2191  -53.7652 O.2       17 UNK        -0.5000 
     99 N          -4.1569  -26.2831  -54.7536 N.am      18 UNK        -0.5000 
    100 CA        -5.3520  -26.0218  -55.5513 C.3       18 UNK         0.1400 
    101 CB        -5.2855  -26.8346  -56.8579 C.3       18 UNK        -0.1800 
    102 C         -5.5613  -24.5221  -55.8403 C.2       18 UNK         0.5000 
    103 O         -6.6013  -24.1712  -56.3995 O.2       18 UNK        -0.5000 
    104 N         -4.5984  -23.6549  -55.4837 N.am      19 UNK        -0.5000 
    105 CA        -4.6431  -22.2177  -55.7784 C.3       19 UNK         0.1400 
    106 CB        -3.2076  -21.6708  -55.8385 C.3       19 UNK        -0.1800 
    107 C         -5.5258  -21.3989  -54.8109 C.2       19 UNK         0.5000 
    108 O         -5.7155  -20.2053  -55.0442 O.2       19 UNK        -0.5000 
    109 N         -6.0406  -22.0373  -53.7492 N.am      20 UNK        -0.5000 
    110 CA        -6.9811  -21.5252  -52.7412 C.3       20 UNK         0.1400 
    111 CB        -8.2702  -20.9817  -53.3921 C.3       20 UNK        -0.1800 
    112 C         -6.3748  -20.5335  -51.7262 C.2       20 UNK         0.5000 
    113 O         -7.1041  -20.0503  -50.8599 O.2       20 UNK        -0.5000 
    114 N         -5.0583  -20.2950  -51.8161 N.am      21 UNK        -0.5000 
    115 CA        -4.2332  -19.4610  -50.9386 C.3       21 UNK         0.1400 
    116 CB        -4.1317  -20.0859  -49.5337 C.3       21 UNK        -0.1800 
    117 C         -4.6910  -17.9902  -50.9147 C.2       21 UNK         0.5000 
    118 O         -5.1517  -17.4934  -49.8849 O.2       21 UNK        -0.5000 
    119 N         -4.5139  -17.3213  -52.0604 N.am      22 UNK        -0.5000 
    120 CA        -4.7921  -15.8911  -52.2835 C.3       22 UNK         0.1400 
    121 C         -6.3163  -15.5503  -52.2917 C.2       22 UNK         0.5000 
    122 N         -6.6933  -14.2786  -52.2415 N.am      22 UNK        -0.7600 
    123 O         -7.1748  -16.4234  -52.3985 O.2       22 UNK        -0.5000 
    124 C124       -3.9500  -14.9499  -51.3650 C.3       23 UNK        -0.0398 
    125 S125       -2.1537  -15.2872  -51.4248 S.3       23 UNK        -0.2404 
    126 C126       -1.8583  -15.9062  -49.7388 C.3       23 UNK        -0.0205 
    127 H127        4.7669   -9.7723  -52.3719 H         1 UNK         0.0600 
    128 H128        5.4994  -11.3788  -52.3940 H         1 UNK         0.0600 
    129 H129        6.5017   -9.9569  -52.0909 H         1 UNK         0.0600 
    130 H130        5.0271  -12.5287  -50.5397 H         1 UNK         0.3000 
    131 H131        5.3900  -11.4449  -47.8939 H         1 UNK         0.0600 
    132 H132        6.0364  -13.7334  -48.2609 H         1 UNK         0.0800 
    133 H133        4.7228  -13.7236  -47.1311 H         1 UNK         0.0800 
    134 H134        3.4094  -16.0306  -47.3648 H         1 UNK         0.0800 
    135 H135        2.4283  -14.5957  -47.5343 H         1 UNK         0.0800 
    136 H136        0.3274  -14.6968  -48.6481 H         1 UNK         0.1150 
    137 H137       -0.9335  -18.3518  -50.4976 H         1 UNK         0.1150 
    138 H138        3.1032  -17.9309  -49.1098 H         1 UNK         0.1150 
    139 H139        0.7129  -20.0100  -51.1201 H         1 UNK         0.0800 
    140 H140        2.4068  -19.6536  -50.9128 H         1 UNK         0.0800 
    141 H141       -0.7985  -21.0213  -49.3806 H         1 UNK         0.0800 
    142 H142       -0.4129  -20.0501  -47.9811 H         1 UNK         0.0800 
    143 H143       -0.0440  -23.0866  -48.0798 H         1 UNK         0.0600 
    144 H144        0.6754  -21.2339  -46.0510 H         1 UNK         0.3000 
    145 H145        0.4370  -23.5280  -43.2833 H         1 UNK         0.0600 
    146 H146        2.6904  -23.8405  -44.2911 H         1 UNK         0.0600 
    147 H147        2.7981  -22.1202  -44.6367 H         1 UNK         0.0600 
    148 H148        2.7465  -22.6843  -42.9687 H         1 UNK         0.0600 
    149 H149        1.1047  -20.7686  -43.3510 H         1 UNK         0.3000 
    150 H150       -2.2391  -19.4871  -43.0156 H         1 UNK         0.0600 
    151 H151       -1.0861  -18.3656  -41.1113 H         1 UNK         0.0600 
    152 H152        0.1847  -19.5857  -41.1438 H         1 UNK         0.0600 
    153 H153       -1.4618  -20.0404  -40.7305 H         1 UNK         0.0600 
    154 H154        0.2425  -18.1305  -43.2398 H         1 UNK         0.3000 
    155 H155        0.3932  -17.9738  -46.8128 H         1 UNK         0.0600 
    156 H156       -1.0531  -16.1072  -46.1774 H         1 UNK         0.0600 
    157 H157        0.6135  -15.5507  -46.1456 H         1 UNK         0.0600 
    158 H158       -0.2246  -15.9018  -44.6419 H         1 UNK         0.0600 
    159 H159        2.0793  -17.0250  -44.6865 H         1 UNK         0.3000 
    160 H160        4.2233  -19.8933  -44.5833 H         1 UNK         0.0600 
    161 H161        4.9302  -18.4953  -46.5672 H         1 UNK         0.0600 
    162 H162        5.9118  -18.2008  -45.1405 H         1 UNK         0.0600 
    163 H163        4.6740  -17.0394  -45.6111 H         1 UNK         0.0600 
    164 H164        4.2906  -17.3701  -43.2379 H         1 UNK         0.3000 
    165 H165        2.1476  -18.1551  -40.5290 H         1 UNK         0.0600 
    166 H166        4.1602  -17.6179  -39.1844 H         1 UNK         0.0600 
    167 H167        4.2997  -19.2339  -39.8574 H         1 UNK         0.0600 
    168 H168        5.2045  -17.9072  -40.5766 H         1 UNK         0.0600 
    169 H169        3.8029  -15.9038  -41.0429 H         1 UNK         0.3000 
    170 H170        2.6910  -13.8863  -41.5255 H         1 UNK         0.0600 
    171 H171        3.3886  -13.2049  -43.8415 H         1 UNK         0.0600 
    172 H172        4.1983  -14.6779  -43.3395 H         1 UNK         0.0600 
    173 H173        2.8501  -14.7622  -44.4656 H         1 UNK         0.0600 
    174 H174        0.8774  -13.4361  -43.7003 H         1 UNK         0.3000 
    175 H175       -2.0870  -13.2082  -42.0755 H         1 UNK         0.0600 
    176 H176       -0.4303  -10.6389  -41.8338 H         1 UNK         0.0600 
    177 H177       -2.1893  -10.7178  -41.9376 H         1 UNK         0.0600 
    178 H178       -1.3616  -11.3919  -40.5447 H         1 UNK         0.0600 
    179 H179       -0.6756  -11.5693  -44.0959 H         1 UNK         0.3000 
    180 H180       -1.2249  -13.6810  -46.7203 H         1 UNK         0.0600 
    181 H181       -2.7149  -12.0802  -47.8828 H         1 UNK         0.0600 
    182 H182       -3.1863  -11.3588  -46.3425 H         1 UNK         0.0600 
    183 H183       -3.6293  -13.0201  -46.7164 H         1 UNK         0.0600 
    184 H184       -0.7967  -10.8621  -46.7280 H         1 UNK         0.3000 
    185 H185        1.2925  -10.0832  -47.1359 H         1 UNK         0.0600 
    186 H186        2.4108  -10.6465  -44.3295 H         1 UNK         0.0600 
    187 H187        2.6059   -9.1413  -45.2278 H         1 UNK         0.0600 
    188 H188        1.0113   -9.6444  -44.6940 H         1 UNK         0.0600 
    189 H189        3.8100  -11.2116  -46.2582 H         1 UNK         0.3000 
    190 H190       -2.1205  -20.8679  -46.1253 H         1 UNK         0.3000 
    191 H191       -4.5832  -21.5899  -47.2520 H         1 UNK         0.0600 
    192 H192       -3.9689  -20.5995  -44.4225 H         1 UNK         0.0600 
    193 H193       -5.5519  -20.5788  -45.1895 H         1 UNK         0.0600 
    194 H194       -4.2535  -19.5886  -45.8382 H         1 UNK         0.0600 
    195 H195       -2.8810  -23.1097  -44.4982 H         1 UNK         0.3000 
    196 H196       -4.8676  -24.9935  -43.7966 H         1 UNK         0.0600 
    197 H197       -2.9636  -26.1756  -42.6854 H         1 UNK         0.0600 
    198 H198       -2.9135  -24.4477  -42.3708 H         1 UNK         0.0600 
    199 H199       -1.8165  -25.1605  -43.5517 H         1 UNK         0.0600 
    200 H200       -2.6126  -25.0080  -46.4904 H         1 UNK         0.3000 
    201 H201       -3.2491  -27.8241  -47.2294 H         1 UNK         0.0600 
    202 H202       -0.8451  -27.1215  -47.1305 H         1 UNK         0.0600 
    203 H203       -1.1627  -25.8485  -48.3056 H         1 UNK         0.0600 
    204 H204       -1.3216  -27.5400  -48.7678 H         1 UNK         0.0600 
    205 H205       -4.6134  -24.8477  -47.6956 H         1 UNK         0.3000 
    206 H206       -5.7877  -23.7194  -49.1823 H         1 UNK         0.0600 
    207 H207       -7.3156  -24.9477  -50.6824 H         1 UNK         0.0600 
    208 H208       -6.3565  -26.4137  -50.5307 H         1 UNK         0.0600 
    209 H209       -7.2287  -25.7758  -49.1367 H         1 UNK         0.0600 
    210 H210       -2.9776  -24.0014  -49.6722 H         1 UNK         0.3000 
    211 H211       -1.2748  -23.9315  -51.0968 H         1 UNK         0.0600 
    212 H212       -3.1831  -22.1509  -52.6799 H         1 UNK         0.0600 
    213 H213       -1.4284  -22.1745  -52.8563 H         1 UNK         0.0600 
    214 H214       -2.1445  -21.6408  -51.3486 H         1 UNK         0.0600 
    215 H215       -2.6115  -26.2640  -51.3490 H         1 UNK         0.3000 
    216 H216       -2.7320  -28.1539  -52.4165 H         1 UNK         0.0600 
    217 H217       -1.5884  -28.6011  -54.5635 H         1 UNK         0.0600 
    218 H218       -0.5275  -27.7281  -53.4688 H         1 UNK         0.0600 
    219 H219       -1.2978  -26.8876  -54.8125 H         1 UNK         0.0600 
    220 H220       -3.4136  -25.5928  -54.7836 H         1 UNK         0.3000 
    221 H221       -6.2270  -26.3452  -54.9837 H         1 UNK         0.0600 
    222 H222       -4.4137  -26.5611  -57.4533 H         1 UNK         0.0600 
    223 H223       -5.2320  -27.9047  -56.6574 H         1 UNK         0.0600 
    224 H224       -6.1707  -26.6669  -57.4727 H         1 UNK         0.0600 
    225 H225       -3.7736  -23.9772  -54.9926 H         1 UNK         0.3000 
    226 H226       -5.0765  -22.0839  -56.7719 H         1 UNK         0.0600 
    227 H227       -2.6322  -22.1716  -56.6172 H         1 UNK         0.0600 
    228 H228       -3.1996  -20.6047  -56.0685 H         1 UNK         0.0600 
    229 H229       -2.6772  -21.8076  -54.8991 H         1 UNK         0.0600 
    230 H230       -5.7490  -22.9963  -53.5893 H         1 UNK         0.3000 
    231 H231       -7.2683  -22.3981  -52.1533 H         1 UNK         0.0600 
    232 H232       -8.0951  -20.0464  -53.9241 H         1 UNK         0.0600 
    233 H233       -8.6895  -21.6988  -54.0978 H         1 UNK         0.0600 
    234 H234       -9.0339  -20.7850  -52.6389 H         1 UNK         0.0600 
    235 H235       -4.5776  -20.7334  -52.5868 H         1 UNK         0.3000 
    236 H236       -3.2288  -19.4639  -51.3641 H         1 UNK         0.0600 
    237 H237       -5.0931  -20.0788  -49.0197 H         1 UNK         0.0600 
    238 H238       -3.7883  -21.1186  -49.5855 H         1 UNK         0.0600 
    239 H239       -3.4245  -19.5363  -48.9110 H         1 UNK         0.0600 
    240 H240       -4.1765  -17.8259  -52.8669 H         1 UNK         0.3000 
    241 H241       -4.4702  -15.7070  -53.3089 H         1 UNK         0.0600 
    242 H242       -7.6785  -14.0650  -52.2678 H         1 UNK         0.3800 
    243 H243       -6.0287  -13.5228  -52.1921 H         1 UNK         0.3800 
    244 H244       -4.0771  -13.9106  -51.6691 H         1 UNK         0.0800 
    245 H245       -4.3032  -15.0018  -50.3341 H         1 UNK         0.0800 
    246 H246       -2.5788  -16.6845  -49.4907 H         1 UNK         0.0800 
    247 H247       -2.0262  -15.0976  -49.0255 H         1 UNK         0.0800 
@<TRIPOS>BOND
     1    1    2 1    
     2    1  127 1    
     3    1  128 1    
     4    1  129 1    
     5    2    3 2    
     6    2    4 am   BACKBONE|DICT|INTERRES
     7    4    5 1    
     8    4  130 1    
     9    5    6 1    
    10    5   65 1    
    11    5  131 1    
    12    6    7 1    
    13    6  132 1    
    14    6  133 1    
    15    7    8 1    
    16    8    9 1    
    17    8  134 1    
    18    8  135 1    
    19    9   10 ar   
    20    9   14 ar   
    21   10   11 ar   
    22   10  136 1    
    23   11   12 ar   
    24   11  126 1    
    25   12   13 ar   
    26   12  137 1    
    27   13   14 ar   
    28   13   15 1    
    29   14  138 1    
    30   15   16 1    
    31   15  139 1    
    32   15  140 1    
    33   16   17 1    
    34   17   18 1    
    35   17  141 1    
    36   17  142 1    
    37   18   19 1    
    38   18   67 1    
    39   18  143 1    
    40   19   20 am   BACKBONE|DICT|INTERRES
    41   19  144 1    
    42   20   21 2    
    43   20   22 1    
    44   22   23 1    
    45   22   24 1    
    46   22  145 1    
    47   23  146 1    
    48   23  147 1    
    49   23  148 1    
    50   24   25 am   BACKBONE|DICT|INTERRES
    51   24  149 1    
    52   25   26 2    
    53   25   27 1    
    54   27   28 1    
    55   27   29 1    
    56   27  150 1    
    57   28  151 1    
    58   28  152 1    
    59   28  153 1    
    60   29   30 am   BACKBONE|DICT|INTERRES
    61   29  154 1    
    62   30   31 2    
    63   30   32 1    
    64   32   33 1    
    65   32   34 1    
    66   32  155 1    
    67   33  156 1    
    68   33  157 1    
    69   33  158 1    
    70   34   35 am   BACKBONE|DICT|INTERRES
    71   34  159 1    
    72   35   36 2    
    73   35   37 1    
    74   37   38 1    
    75   37   39 1    
    76   37  160 1    
    77   38  161 1    
    78   38  162 1    
    79   38  163 1    
    80   39   40 am   BACKBONE|DICT|INTERRES
    81   39  164 1    
    82   40   41 2    
    83   40   42 1    
    84   42   43 1    
    85   42   44 1    
    86   42  165 1    
    87   43  166 1    
    88   43  167 1    
    89   43  168 1    
    90   44   45 am   BACKBONE|DICT|INTERRES
    91   44  169 1    
    92   45   46 2    
    93   45   47 1    
    94   47   48 1    
    95   47   49 1    
    96   47  170 1    
    97   48  171 1    
    98   48  172 1    
    99   48  173 1    
   100   49   50 am   BACKBONE|DICT|INTERRES
   101   49  174 1    
   102   50   51 2    
   103   50   52 1    
   104   52   53 1    
   105   52   54 1    
   106   52  175 1    
   107   53  176 1    
   108   53  177 1    
   109   53  178 1    
   110   54   55 am   BACKBONE|DICT|INTERRES
   111   54  179 1    
   112   55   56 2    
   113   55   57 1    
   114   57   58 1    
   115   57   59 1    
   116   57  180 1    
   117   58  181 1    
   118   58  182 1    
   119   58  183 1    
   120   59   60 am   BACKBONE|DICT|INTERRES
   121   59  184 1    
   122   60   61 2    
   123   60   62 1    
   124   62   63 1    
   125   62   64 1    
   126   62  185 1    
   127   63  186 1    
   128   63  187 1    
   129   63  188 1    
   130   64   65 am   BACKBONE|DICT|INTERRES
   131   64  189 1    
   132   65   66 2    
   133   67   68 2    
   134   67   69 am   BACKBONE|DICT|INTERRES
   135   69   70 1    
   136   69  190 1    
   137   70   71 1    
   138   70   72 1    
   139   70  191 1    
   140   71  192 1    
   141   71  193 1    
   142   71  194 1    
   143   72   73 2    
   144   72   74 am   BACKBONE|DICT|INTERRES
   145   74   75 1    
   146   74  195 1    
   147   75   76 1    
   148   75   77 1    
   149   75  196 1    
   150   76  197 1    
   151   76  198 1    
   152   76  199 1    
   153   77   78 2    
   154   77   79 am   BACKBONE|DICT|INTERRES
   155   79   80 1    
   156   79  200 1    
   157   80   81 1    
   158   80   82 1    
   159   80  201 1    
   160   81  202 1    
   161   81  203 1    
   162   81  204 1    
   163   82   83 2    
   164   82   84 am   BACKBONE|DICT|INTERRES
   165   84   85 1    
   166   84  205 1    
   167   85   86 1    
   168   85   87 1    
   169   85  206 1    
   170   86  207 1    
   171   86  208 1    
   172   86  209 1    
   173   87   88 2    
   174   87   89 am   BACKBONE|DICT|INTERRES
   175   89   90 1    
   176   89  210 1    
   177   90   91 1    
   178   90   92 1    
   179   90  211 1    
   180   91  212 1    
   181   91  213 1    
   182   91  214 1    
   183   92   93 2    
   184   92   94 am   BACKBONE|DICT|INTERRES
   185   94   95 1    
   186   94  215 1    
   187   95   96 1    
   188   95   97 1    
   189   95  216 1    
   190   96  217 1    
   191   96  218 1    
   192   96  219 1    
   193   97   98 2    
   194   97   99 am   BACKBONE|DICT|INTERRES
   195   99  100 1    
   196   99  220 1    
   197  100  101 1    
   198  100  102 1    
   199  100  221 1    
   200  101  222 1    
   201  101  223 1    
   202  101  224 1    
   203  102  103 2    
   204  102  104 am   BACKBONE|DICT|INTERRES
   205  104  105 1    
   206  104  225 1    
   207  105  106 1    
   208  105  107 1    
   209  105  226 1    
   210  106  227 1    
   211  106  228 1    
   212  106  229 1    
   213  107  108 2    
   214  107  109 am   BACKBONE|DICT|INTERRES
   215  109  110 1    
   216  109  230 1    
   217  110  111 1    
   218  110  112 1    
   219  110  231 1    
   220  111  232 1    
   221  111  233 1    
   222  111  234 1    
   223  112  113 2    
   224  112  114 am   BACKBONE|DICT|INTERRES
   225  114  115 1    
   226  114  235 1    
   227  115  116 1    
   228  115  117 1    
   229  115  236 1    
   230  116  237 1    
   231  116  238 1    
   232  116  239 1    
   233  117  118 2    
   234  117  119 am   BACKBONE|DICT|INTERRES
   235  119  120 1    
   236  119  240 1    
   237  120  121 1    
   238  120  124 1    
   239  120  241 1    
   240  121  122 am   BACKBONE|DICT|INTERRES
   241  121  123 2    
   242  122  242 1    
   243  122  243 1    
   244  124  125 1    
   245  124  244 1    
   246  124  245 1    
   247  125  126 1    
   248  126  246 1    
   249  126  247 1    
@<TRIPOS>SUBSTRUCTURE
     1 UNK         1 GROUP             0       ****    0 ROOT    
