@<TRIPOS>MOLECULE
3R540
247   249    1
SMALL
USER_CHARGES


@<TRIPOS>ATOM
      1 CA         -6.7903  -15.8825  -45.0047 C.3       0 UNK        -0.1800 
      2 C          -5.6353  -14.8963  -44.9021 C.2       0 UNK         0.5000 
      3 O          -5.6592  -14.0180  -44.0392 O.2       0 UNK        -0.5000 
      4 N          -4.6323  -15.0273  -45.7785 N.am      1 UNK        -0.5000 
      5 CA         -3.4148  -14.2148  -45.7695 C.3       1 UNK         0.1400 
      6 C6         -2.6268  -14.3233  -47.0958 C.3       23 UNK        -0.0398 
      7 S7         -3.4261  -13.4973  -48.5187 S.3       23 UNK        -0.2404 
      8 C8         -4.5940  -14.7205  -49.2156 C.3       23 UNK        -0.0205 
      9 C9         -4.1257  -16.1656  -49.1184 C.ar      23 UNK        -0.0193 
     10 C10        -2.9151  -16.5707  -49.6900 C.ar      23 UNK        -0.1150 
     11 C11        -2.4688  -17.8884  -49.5458 C.ar      23 UNK        -0.0193 
     12 C12        -3.2531  -18.8065  -48.8428 C.ar      23 UNK        -0.1150 
     13 C13        -4.4587  -18.4086  -48.2597 C.ar      23 UNK        -0.0193 
     14 C14        -4.8996  -17.0948  -48.4198 C.ar      23 UNK        -0.1150 
     15 C15        -5.2645  -19.3804  -47.4148 C.3       23 UNK        -0.0205 
     16 S16        -4.9707  -19.1345  -45.6265 S.3       23 UNK        -0.2404 
     17 C17        -3.1541  -19.2918  -45.4502 C.3       23 UNK        -0.0398 
     18 CA         -2.6149  -20.6903  -45.8343 C.3       11 UNK         0.1400 
     19 N          -1.1994  -20.6605  -46.2123 N.am      11 UNK        -0.5000 
     20 C          -0.6093  -21.6033  -46.9613 C.2       10 UNK         0.5000 
     21 O          -1.2090  -22.5646  -47.4355 O.2       10 UNK        -0.5000 
     22 CA          0.9096  -21.4919  -47.1821 C.3       10 UNK         0.1400 
     23 CB          1.2366  -20.5489  -48.3479 C.3       10 UNK        -0.1800 
     24 N           1.6218  -21.0681  -45.9778 N.am      10 UNK        -0.5000 
     25 C           1.6858  -21.7954  -44.8537 C.2       9 UNK         0.5000 
     26 O           1.1861  -22.9143  -44.7388 O.2       9 UNK        -0.5000 
     27 CA          2.3864  -21.1541  -43.6434 C.3       9 UNK         0.1400 
     28 CB          3.9097  -21.3154  -43.7519 C.3       9 UNK        -0.1800 
     29 N           2.0474  -19.7404  -43.4724 N.am      9 UNK        -0.5000 
     30 C           0.8174  -19.2776  -43.2038 C.2       8 UNK         0.5000 
     31 O          -0.1640  -20.0013  -43.0423 O.2       8 UNK        -0.5000 
     32 CA          0.6413  -17.7488  -43.1619 C.3       8 UNK         0.1400 
     33 CB          1.1863  -17.1683  -41.8476 C.3       8 UNK        -0.1800 
     34 N           1.2815  -17.0870  -44.2976 N.am      8 UNK        -0.5000 
     35 C           0.9555  -17.2952  -45.5820 C.2       7 UNK         0.5000 
     36 O           0.0476  -18.0385  -45.9542 O.2       7 UNK        -0.5000 
     37 CA          1.8411  -16.6014  -46.6293 C.3       7 UNK         0.1400 
     38 CB          1.4331  -15.1310  -46.8087 C.3       7 UNK        -0.1800 
     39 N           3.2604  -16.6875  -46.2806 N.am      7 UNK        -0.5000 
     40 C           3.9705  -17.8254  -46.2930 C.2       6 UNK         0.5000 
     41 O           3.5084  -18.9157  -46.6258 O.2       6 UNK        -0.5000 
     42 CA          5.4309  -17.7381  -45.8145 C.3       6 UNK         0.1400 
     43 CB          6.3422  -17.2305  -46.9418 C.3       6 UNK        -0.1800 
     44 N           5.5870  -16.8802  -44.6399 N.am      6 UNK        -0.5000 
     45 C           5.0742  -17.1484  -43.4306 C.2       5 UNK         0.5000 
     46 O           4.4434  -18.1702  -43.1660 O.2       5 UNK        -0.5000 
     47 CA          5.2502  -16.0667  -42.3492 C.3       5 UNK         0.1400 
     48 CB          6.5828  -16.2540  -41.6092 C.3       5 UNK        -0.1800 
     49 N           5.1738  -14.7025  -42.8797 N.am      5 UNK        -0.5000 
     50 C           4.1014  -14.1874  -43.4930 C.2       4 UNK         0.5000 
     51 O           3.0563  -14.8154  -43.6969 O.2       4 UNK        -0.5000 
     52 CA          4.2335  -12.7481  -44.0037 C.3       4 UNK         0.1400 
     53 CB          4.9641  -12.7097  -45.3564 C.3       4 UNK        -0.1800 
     54 N           2.8896  -12.2177  -44.1637 N.am      4 UNK        -0.5000 
     55 C           2.4985  -10.9591  -43.9489 C.2       3 UNK         0.5000 
     56 O           3.2693  -10.0377  -43.6769 O.2       3 UNK        -0.5000 
     57 CA          0.9842  -10.6847  -44.0488 C.3       3 UNK         0.1400 
     58 CB          0.6494  -10.0086  -45.3876 C.3       3 UNK        -0.1800 
     59 N           0.1632  -11.8936  -43.9149 N.am      3 UNK        -0.5000 
     60 C          -0.0343  -12.5696  -42.7717 C.2       2 UNK         0.5000 
     61 O           0.4538  -12.2316  -41.6928 O.2       2 UNK        -0.5000 
     62 CA         -0.9347  -13.8167  -42.8582 C.3       2 UNK         0.1400 
     63 CB         -1.6093  -14.1750  -41.5197 C.3       2 UNK        -0.1800 
     64 N          -1.9398  -13.6456  -43.9069 N.am      2 UNK        -0.5000 
     65 C          -2.5035  -14.6386  -44.6010 C.2       1 UNK         0.5000 
     66 O          -2.2916  -15.8342  -44.3902 O.2       1 UNK        -0.5000 
     67 C          -2.9244  -21.7659  -44.7715 C.2       11 UNK         0.5000 
     68 O          -3.9925  -22.3743  -44.8311 O.2       11 UNK        -0.5000 
     69 N          -1.9794  -22.0533  -43.8640 N.am      12 UNK        -0.5000 
     70 CA         -2.0571  -23.1836  -42.9299 C.3       12 UNK         0.1400 
     71 CB         -0.9272  -23.0861  -41.8944 C.3       12 UNK        -0.1800 
     72 C          -2.0321  -24.5485  -43.6504 C.2       12 UNK         0.5000 
     73 O          -2.6986  -25.4846  -43.2093 O.2       12 UNK        -0.5000 
     74 N          -1.3154  -24.6125  -44.7803 N.am      13 UNK        -0.5000 
     75 CA         -1.3026  -25.7271  -45.7302 C.3       13 UNK         0.1400 
     76 CB          0.0746  -25.7645  -46.4144 C.3       13 UNK        -0.1800 
     77 C          -2.4430  -25.6466  -46.7733 C.2       13 UNK         0.5000 
     78 O          -2.4301  -26.4103  -47.7403 O.2       13 UNK        -0.5000 
     79 N          -3.3919  -24.7176  -46.5844 N.am      14 UNK        -0.5000 
     80 CA         -4.5536  -24.3719  -47.4108 C.3       14 UNK         0.1400 
     81 CB         -5.4992  -25.5730  -47.6003 C.3       14 UNK        -0.1800 
     82 C          -4.2155  -23.7163  -48.7612 C.2       14 UNK         0.5000 
     83 O          -4.8720  -22.7415  -49.1307 O.2       14 UNK        -0.5000 
     84 N          -3.2497  -24.2833  -49.4987 N.am      15 UNK        -0.5000 
     85 CA         -2.8254  -23.9006  -50.8536 C.3       15 UNK         0.1400 
     86 CB         -2.0911  -22.5430  -50.8323 C.3       15 UNK        -0.1800 
     87 C          -3.9843  -23.9261  -51.8753 C.2       15 UNK         0.5000 
     88 O          -4.0162  -23.1045  -52.7933 O.2       15 UNK        -0.5000 
     89 N          -4.9449  -24.8389  -51.6590 N.am      16 UNK        -0.5000 
     90 CA         -6.2235  -24.9633  -52.3685 C.3       16 UNK         0.1400 
     91 CB         -5.9904  -25.4353  -53.8192 C.3       16 UNK        -0.1800 
     92 C          -7.0884  -23.6842  -52.2761 C.2       16 UNK         0.5000 
     93 O          -7.7589  -23.3258  -53.2430 O.2       16 UNK        -0.5000 
     94 N          -7.0265  -22.9973  -51.1234 N.am      17 UNK        -0.5000 
     95 CA         -7.6016  -21.6736  -50.8507 C.3       17 UNK         0.1400 
     96 CB         -9.1434  -21.7016  -50.9097 C.3       17 UNK        -0.1800 
     97 C          -6.9664  -20.5905  -51.7478 C.2       17 UNK         0.5000 
     98 O          -7.6719  -19.7773  -52.3459 O.2       17 UNK        -0.5000 
     99 N          -5.6304  -20.6497  -51.8430 N.am      18 UNK        -0.5000 
    100 CA        -4.7273  -19.8372  -52.6668 C.3       18 UNK         0.1400 
    101 CB        -4.8997  -18.3324  -52.3805 C.3       18 UNK        -0.1800 
    102 C         -4.7818  -20.1418  -54.1802 C.2       18 UNK         0.5000 
    103 O         -4.0209  -19.5334  -54.9346 O.2       18 UNK        -0.5000 
    104 N         -5.6236  -21.0917  -54.6184 N.am      19 UNK        -0.5000 
    105 CA        -5.7611  -21.4949  -56.0228 C.3       19 UNK         0.1400 
    106 CB        -7.0257  -22.3455  -56.2044 C.3       19 UNK        -0.1800 
    107 C         -4.5262  -22.2288  -56.5832 C.2       19 UNK         0.5000 
    108 O         -4.3463  -22.2532  -57.8010 O.2       19 UNK        -0.5000 
    109 N         -3.6726  -22.7702  -55.7009 N.am      20 UNK        -0.5000 
    110 CA        -2.3640  -23.3362  -56.0441 C.3       20 UNK         0.1400 
    111 CB        -1.9432  -24.3264  -54.9452 C.3       20 UNK        -0.1800 
    112 C         -1.2750  -22.2594  -56.2581 C.2       20 UNK         0.5000 
    113 O         -0.1136  -22.6149  -56.4630 O.2       20 UNK        -0.5000 
    114 N         -1.6498  -20.9722  -56.1726 N.am      21 UNK        -0.5000 
    115 CA        -0.8083  -19.7769  -56.3029 C.3       21 UNK         0.1400 
    116 CB        -0.1611  -19.6947  -57.7015 C.3       21 UNK        -0.1800 
    117 C          0.2098  -19.6201  -55.1551 C.2       21 UNK         0.5000 
    118 O          1.2229  -18.9390  -55.3222 O.2       21 UNK        -0.5000 
    119 N         -0.0930  -20.2408  -54.0060 N.am      22 UNK        -0.5000 
    120 CA         0.6766  -20.1878  -52.7507 C.3       22 UNK         0.1400 
    121 C          2.0755  -20.8752  -52.8107 C.2       22 UNK         0.5000 
    122 N          2.3552  -21.7174  -53.7988 N.am      22 UNK        -0.7600 
    123 O          2.9094  -20.6740  -51.9325 O.2       22 UNK        -0.5000 
    124 C124        0.7247  -18.7600  -52.1375 C.3       23 UNK        -0.0398 
    125 S125       -0.9463  -18.0678  -51.8705 S.3       23 UNK        -0.2404 
    126 C126       -1.1089  -18.3086  -50.0780 C.3       23 UNK        -0.0205 
    127 H127       -7.7299  -15.3481  -45.1443 H         1 UNK         0.0600 
    128 H128       -6.8627  -16.4696  -44.0892 H         1 UNK         0.0600 
    129 H129       -6.6665  -16.5724  -45.8379 H         1 UNK         0.0600 
    130 H130       -4.6364  -15.7947  -46.4345 H         1 UNK         0.3000 
    131 H131       -3.7028  -13.1706  -45.6276 H         1 UNK         0.0600 
    132 H132       -1.6620  -13.8246  -46.9894 H         1 UNK         0.0800 
    133 H133       -2.3836  -15.3617  -47.3201 H         1 UNK         0.0800 
    134 H134       -5.5532  -14.5948  -48.7111 H         1 UNK         0.0800 
    135 H135       -4.7714  -14.4779  -50.2640 H         1 UNK         0.0800 
    136 H136       -2.3050  -15.8521  -50.2190 H         1 UNK         0.1150 
    137 H137       -2.9068  -19.8222  -48.7173 H         1 UNK         0.1150 
    138 H138       -5.8380  -16.7924  -47.9787 H         1 UNK         0.1150 
    139 H139       -6.3272  -19.2370  -47.6148 H         1 UNK         0.0800 
    140 H140       -5.0514  -20.4112  -47.6982 H         1 UNK         0.0800 
    141 H141       -2.8717  -19.0347  -44.4276 H         1 UNK         0.0800 
    142 H142       -2.6943  -18.5226  -46.0721 H         1 UNK         0.0800 
    143 H143       -3.1452  -21.0129  -46.7296 H         1 UNK         0.0600 
    144 H144       -0.6546  -19.8615  -45.8989 H         1 UNK         0.3000 
    145 H145        1.2751  -22.4859  -47.4483 H         1 UNK         0.0600 
    146 H146        2.3081  -20.5250  -48.5466 H         1 UNK         0.0600 
    147 H147        0.7495  -20.8821  -49.2646 H         1 UNK         0.0600 
    148 H148        0.9124  -19.5287  -48.1435 H         1 UNK         0.0600 
    149 H149        2.1047  -20.1759  -46.0218 H         1 UNK         0.3000 
    150 H150        2.0538  -21.6847  -42.7492 H         1 UNK         0.0600 
    151 H151        4.1847  -22.3634  -43.8766 H         1 UNK         0.0600 
    152 H152        4.4086  -20.9537  -42.8527 H         1 UNK         0.0600 
    153 H153        4.3132  -20.7651  -44.6026 H         1 UNK         0.0600 
    154 H154        2.8174  -19.0807  -43.5456 H         1 UNK         0.3000 
    155 H155       -0.4279  -17.5330  -43.2133 H         1 UNK         0.0600 
    156 H156        0.6684  -17.5985  -40.9898 H         1 UNK         0.0600 
    157 H157        1.0518  -16.0882  -41.8005 H         1 UNK         0.0600 
    158 H158        2.2493  -17.3746  -41.7251 H         1 UNK         0.0600 
    159 H159        2.0323  -16.4370  -44.0854 H         1 UNK         0.3000 
    160 H160        1.6947  -17.1117  -47.5838 H         1 UNK         0.0600 
    161 H161        1.5139  -14.5673  -45.8796 H         1 UNK         0.0600 
    162 H162        0.3995  -15.0603  -47.1469 H         1 UNK         0.0600 
    163 H163        2.0531  -14.6370  -47.5570 H         1 UNK         0.0600 
    164 H164        3.6979  -15.8456  -45.9386 H         1 UNK         0.3000 
    165 H165        5.7526  -18.7457  -45.5429 H         1 UNK         0.0600 
    166 H166        7.3890  -17.2424  -46.6376 H         1 UNK         0.0600 
    167 H167        6.2552  -17.8618  -47.8272 H         1 UNK         0.0600 
    168 H168        6.0900  -16.2117  -47.2387 H         1 UNK         0.0600 
    169 H169        6.0930  -16.0165  -44.7669 H         1 UNK         0.3000 
    170 H170        4.4399  -16.1881  -41.6276 H         1 UNK         0.0600 
    171 H171        6.6570  -17.2574  -41.1875 H         1 UNK         0.0600 
    172 H172        7.4367  -16.1129  -42.2730 H         1 UNK         0.0600 
    173 H173        6.6782  -15.5486  -40.7836 H         1 UNK         0.0600 
    174 H174        5.9944  -14.1264  -42.7580 H         1 UNK         0.3000 
    175 H175        4.7832  -12.1629  -43.2635 H         1 UNK         0.0600 
    176 H176        4.4424  -13.2978  -46.1128 H         1 UNK         0.0600 
    177 H177        5.0471  -11.6883  -45.7283 H         1 UNK         0.0600 
    178 H178        5.9764  -13.1057  -45.2695 H         1 UNK         0.0600 
    179 H179        2.1859  -12.9288  -44.3094 H         1 UNK         0.3000 
    180 H180        0.7211   -9.9976  -43.2418 H         1 UNK         0.0600 
    181 H181        0.8834  -10.6546  -46.2349 H         1 UNK         0.0600 
    182 H182        1.2176   -9.0858  -45.5124 H         1 UNK         0.0600 
    183 H183       -0.4074   -9.7470  -45.4450 H         1 UNK         0.0600 
    184 H184       -0.2472  -12.2479  -44.7656 H         1 UNK         0.3000 
    185 H185       -0.2750  -14.6389  -43.1420 H         1 UNK         0.0600 
    186 H186       -0.8684  -14.3444  -40.7375 H         1 UNK         0.0600 
    187 H187       -2.2730  -13.3785  -41.1818 H         1 UNK         0.0600 
    188 H188       -2.1980  -15.0884  -41.6050 H         1 UNK         0.0600 
    189 H189       -2.2009  -12.6895  -44.1077 H         1 UNK         0.3000 
    190 H190       -1.1532  -21.4643  -43.8039 H         1 UNK         0.3000 
    191 H191       -3.0075  -23.1099  -42.3971 H         1 UNK         0.0600 
    192 H192        0.0553  -23.1627  -42.3582 H         1 UNK         0.0600 
    193 H193       -0.9693  -22.1415  -41.3519 H         1 UNK         0.0600 
    194 H194       -1.0042  -23.8874  -41.1586 H         1 UNK         0.0600 
    195 H195       -0.7529  -23.8081  -45.0338 H         1 UNK         0.3000 
    196 H196       -1.4330  -26.6632  -45.1838 H         1 UNK         0.0600 
    197 H197        0.8777  -25.8310  -45.6801 H         1 UNK         0.0600 
    198 H198        0.2474  -24.8723  -47.0168 H         1 UNK         0.0600 
    199 H199        0.1659  -26.6290  -47.0728 H         1 UNK         0.0600 
    200 H200       -3.2806  -24.1131  -45.7799 H         1 UNK         0.3000 
    201 H201       -5.1050  -23.6228  -46.8417 H         1 UNK         0.0600 
    202 H202       -6.4091  -25.2719  -48.1210 H         1 UNK         0.0600 
    203 H203       -5.7995  -25.9913  -46.6395 H         1 UNK         0.0600 
    204 H204       -5.0407  -26.3710  -48.1844 H         1 UNK         0.0600 
    205 H205       -2.7836  -25.0896  -49.0914 H         1 UNK         0.3000 
    206 H206       -2.1141  -24.6585  -51.1838 H         1 UNK         0.0600 
    207 H207       -1.2321  -22.5723  -50.1627 H         1 UNK         0.0600 
    208 H208       -2.7419  -21.7317  -50.5056 H         1 UNK         0.0600 
    209 H209       -1.7184  -22.2851  -51.8234 H         1 UNK         0.0600 
    210 H210       -4.8169  -25.4675  -50.8790 H         1 UNK         0.3000 
    211 H211       -6.7873  -25.7435  -51.8554 H         1 UNK         0.0600 
    212 H212       -5.4145  -26.3602  -53.8431 H         1 UNK         0.0600 
    213 H213       -6.9358  -25.6305  -54.3264 H         1 UNK         0.0600 
    214 H214       -5.4504  -24.6933  -54.4064 H         1 UNK         0.0600 
    215 H215       -6.3929  -23.3305  -50.4063 H         1 UNK         0.3000 
    216 H216       -7.3197  -21.4230  -49.8268 H         1 UNK         0.0600 
    217 H217       -9.5608  -20.7520  -50.5733 H         1 UNK         0.0600 
    218 H218       -9.5127  -21.8775  -51.9202 H         1 UNK         0.0600 
    219 H219       -9.5480  -22.4808  -50.2639 H         1 UNK         0.0600 
    220 H220       -5.1725  -21.3940  -51.3337 H         1 UNK         0.3000 
    221 H221       -3.7216  -20.1126  -52.3458 H         1 UNK         0.0600 
    222 H222       -5.8235  -17.9392  -52.8048 H         1 UNK         0.0600 
    223 H223       -4.9114  -18.1328  -51.3101 H         1 UNK         0.0600 
    224 H224       -4.0761  -17.7589  -52.8074 H         1 UNK         0.0600 
    225 H225       -6.2001  -21.5791  -53.9460 H         1 UNK         0.3000 
    226 H226       -5.8884  -20.5842  -56.6117 H         1 UNK         0.0600 
    227 H227       -7.9024  -21.8507  -55.7858 H         1 UNK         0.0600 
    228 H228       -7.2253  -22.5218  -57.2620 H         1 UNK         0.0600 
    229 H229       -6.9281  -23.3202  -55.7285 H         1 UNK         0.0600 
    230 H230       -3.8991  -22.7314  -54.7101 H         1 UNK         0.3000 
    231 H231       -2.4581  -23.8927  -56.9787 H         1 UNK         0.0600 
    232 H232       -1.0511  -24.8804  -55.2396 H         1 UNK         0.0600 
    233 H233       -2.7273  -25.0574  -54.7470 H         1 UNK         0.0600 
    234 H234       -1.7132  -23.8146  -54.0106 H         1 UNK         0.0600 
    235 H235       -2.6200  -20.7765  -55.9544 H         1 UNK         0.3000 
    236 H236       -1.4873  -18.9281  -56.2102 H         1 UNK         0.0600 
    237 H237       -0.9056  -19.8159  -58.4882 H         1 UNK         0.0600 
    238 H238        0.3153  -18.7257  -57.8545 H         1 UNK         0.0600 
    239 H239        0.6046  -20.4579  -57.8418 H         1 UNK         0.0600 
    240 H240       -0.9481  -20.7744  -53.9768 H         1 UNK         0.3000 
    241 H241        0.1185  -20.8057  -52.0481 H         1 UNK         0.0600 
    242 H242        3.2566  -22.1671  -53.8265 H         1 UNK         0.3800 
    243 H243        1.6827  -21.8942  -54.5301 H         1 UNK         0.3800 
    244 H244        1.2619  -18.7652  -51.1877 H         1 UNK         0.0800 
    245 H245        1.2794  -18.0818  -52.7868 H         1 UNK         0.0800 
    246 H246       -0.9314  -19.3608  -49.8573 H         1 UNK         0.0800 
    247 H247       -0.3359  -17.7395  -49.5596 H         1 UNK         0.0800 
@<TRIPOS>BOND
     1    1    2 1    
     2    1  127 1    
     3    1  128 1    
     4    1  129 1    
     5    2    3 2    
     6    2    4 am   BACKBONE|DICT|INTERRES
     7    4    5 1    
     8    4  130 1    
     9    5    6 1    
    10    5   65 1    
    11    5  131 1    
    12    6    7 1    
    13    6  132 1    
    14    6  133 1    
    15    7    8 1    
    16    8    9 1    
    17    8  134 1    
    18    8  135 1    
    19    9   10 ar   
    20    9   14 ar   
    21   10   11 ar   
    22   10  136 1    
    23   11   12 ar   
    24   11  126 1    
    25   12   13 ar   
    26   12  137 1    
    27   13   14 ar   
    28   13   15 1    
    29   14  138 1    
    30   15   16 1    
    31   15  139 1    
    32   15  140 1    
    33   16   17 1    
    34   17   18 1    
    35   17  141 1    
    36   17  142 1    
    37   18   19 1    
    38   18   67 1    
    39   18  143 1    
    40   19   20 am   BACKBONE|DICT|INTERRES
    41   19  144 1    
    42   20   21 2    
    43   20   22 1    
    44   22   23 1    
    45   22   24 1    
    46   22  145 1    
    47   23  146 1    
    48   23  147 1    
    49   23  148 1    
    50   24   25 am   BACKBONE|DICT|INTERRES
    51   24  149 1    
    52   25   26 2    
    53   25   27 1    
    54   27   28 1    
    55   27   29 1    
    56   27  150 1    
    57   28  151 1    
    58   28  152 1    
    59   28  153 1    
    60   29   30 am   BACKBONE|DICT|INTERRES
    61   29  154 1    
    62   30   31 2    
    63   30   32 1    
    64   32   33 1    
    65   32   34 1    
    66   32  155 1    
    67   33  156 1    
    68   33  157 1    
    69   33  158 1    
    70   34   35 am   BACKBONE|DICT|INTERRES
    71   34  159 1    
    72   35   36 2    
    73   35   37 1    
    74   37   38 1    
    75   37   39 1    
    76   37  160 1    
    77   38  161 1    
    78   38  162 1    
    79   38  163 1    
    80   39   40 am   BACKBONE|DICT|INTERRES
    81   39  164 1    
    82   40   41 2    
    83   40   42 1    
    84   42   43 1    
    85   42   44 1    
    86   42  165 1    
    87   43  166 1    
    88   43  167 1    
    89   43  168 1    
    90   44   45 am   BACKBONE|DICT|INTERRES
    91   44  169 1    
    92   45   46 2    
    93   45   47 1    
    94   47   48 1    
    95   47   49 1    
    96   47  170 1    
    97   48  171 1    
    98   48  172 1    
    99   48  173 1    
   100   49   50 am   BACKBONE|DICT|INTERRES
   101   49  174 1    
   102   50   51 2    
   103   50   52 1    
   104   52   53 1    
   105   52   54 1    
   106   52  175 1    
   107   53  176 1    
   108   53  177 1    
   109   53  178 1    
   110   54   55 am   BACKBONE|DICT|INTERRES
   111   54  179 1    
   112   55   56 2    
   113   55   57 1    
   114   57   58 1    
   115   57   59 1    
   116   57  180 1    
   117   58  181 1    
   118   58  182 1    
   119   58  183 1    
   120   59   60 am   BACKBONE|DICT|INTERRES
   121   59  184 1    
   122   60   61 2    
   123   60   62 1    
   124   62   63 1    
   125   62   64 1    
   126   62  185 1    
   127   63  186 1    
   128   63  187 1    
   129   63  188 1    
   130   64   65 am   BACKBONE|DICT|INTERRES
   131   64  189 1    
   132   65   66 2    
   133   67   68 2    
   134   67   69 am   BACKBONE|DICT|INTERRES
   135   69   70 1    
   136   69  190 1    
   137   70   71 1    
   138   70   72 1    
   139   70  191 1    
   140   71  192 1    
   141   71  193 1    
   142   71  194 1    
   143   72   73 2    
   144   72   74 am   BACKBONE|DICT|INTERRES
   145   74   75 1    
   146   74  195 1    
   147   75   76 1    
   148   75   77 1    
   149   75  196 1    
   150   76  197 1    
   151   76  198 1    
   152   76  199 1    
   153   77   78 2    
   154   77   79 am   BACKBONE|DICT|INTERRES
   155   79   80 1    
   156   79  200 1    
   157   80   81 1    
   158   80   82 1    
   159   80  201 1    
   160   81  202 1    
   161   81  203 1    
   162   81  204 1    
   163   82   83 2    
   164   82   84 am   BACKBONE|DICT|INTERRES
   165   84   85 1    
   166   84  205 1    
   167   85   86 1    
   168   85   87 1    
   169   85  206 1    
   170   86  207 1    
   171   86  208 1    
   172   86  209 1    
   173   87   88 2    
   174   87   89 am   BACKBONE|DICT|INTERRES
   175   89   90 1    
   176   89  210 1    
   177   90   91 1    
   178   90   92 1    
   179   90  211 1    
   180   91  212 1    
   181   91  213 1    
   182   91  214 1    
   183   92   93 2    
   184   92   94 am   BACKBONE|DICT|INTERRES
   185   94   95 1    
   186   94  215 1    
   187   95   96 1    
   188   95   97 1    
   189   95  216 1    
   190   96  217 1    
   191   96  218 1    
   192   96  219 1    
   193   97   98 2    
   194   97   99 am   BACKBONE|DICT|INTERRES
   195   99  100 1    
   196   99  220 1    
   197  100  101 1    
   198  100  102 1    
   199  100  221 1    
   200  101  222 1    
   201  101  223 1    
   202  101  224 1    
   203  102  103 2    
   204  102  104 am   BACKBONE|DICT|INTERRES
   205  104  105 1    
   206  104  225 1    
   207  105  106 1    
   208  105  107 1    
   209  105  226 1    
   210  106  227 1    
   211  106  228 1    
   212  106  229 1    
   213  107  108 2    
   214  107  109 am   BACKBONE|DICT|INTERRES
   215  109  110 1    
   216  109  230 1    
   217  110  111 1    
   218  110  112 1    
   219  110  231 1    
   220  111  232 1    
   221  111  233 1    
   222  111  234 1    
   223  112  113 2    
   224  112  114 am   BACKBONE|DICT|INTERRES
   225  114  115 1    
   226  114  235 1    
   227  115  116 1    
   228  115  117 1    
   229  115  236 1    
   230  116  237 1    
   231  116  238 1    
   232  116  239 1    
   233  117  118 2    
   234  117  119 am   BACKBONE|DICT|INTERRES
   235  119  120 1    
   236  119  240 1    
   237  120  121 1    
   238  120  124 1    
   239  120  241 1    
   240  121  122 am   BACKBONE|DICT|INTERRES
   241  121  123 2    
   242  122  242 1    
   243  122  243 1    
   244  124  125 1    
   245  124  244 1    
   246  124  245 1    
   247  125  126 1    
   248  126  246 1    
   249  126  247 1    
@<TRIPOS>SUBSTRUCTURE
     1 UNK         1 GROUP             0       ****    0 ROOT    
