@<TRIPOS>MOLECULE
3R540
247   249    1
SMALL
USER_CHARGES


@<TRIPOS>ATOM
      1 CA         -2.8374  -13.0603  -50.7432 C.3       0 UNK        -0.1800 
      2 C          -1.3555  -12.7993  -50.9633 C.2       0 UNK         0.5000 
      3 O          -0.8619  -11.7312  -50.6034 O.2       0 UNK        -0.5000 
      4 N          -0.6484  -13.7660  -51.5624 N.am      1 UNK        -0.5000 
      5 CA          0.7626  -13.6520  -51.9490 C.3       1 UNK         0.1400 
      6 C6          1.1576  -14.6985  -53.0214 C.3       23 UNK        -0.0398 
      7 S7          0.9230  -16.4451  -52.5223 S.3       23 UNK        -0.2404 
      8 C8          2.6594  -16.9785  -52.4156 C.3       23 UNK        -0.0205 
      9 C9          2.8096  -18.4690  -52.1463 C.ar      23 UNK        -0.0193 
     10 C10         2.4398  -19.3973  -53.1249 C.ar      23 UNK        -0.1150 
     11 C11         2.6798  -20.7627  -52.9412 C.ar      23 UNK        -0.0193 
     12 C12         3.3076  -21.1864  -51.7675 C.ar      23 UNK        -0.1150 
     13 C13         3.6358  -20.2813  -50.7546 C.ar      23 UNK        -0.0193 
     14 C14         3.3839  -18.9200  -50.9525 C.ar      23 UNK        -0.1150 
     15 C15         4.3374  -20.7616  -49.4874 C.3       23 UNK        -0.0205 
     16 S16         3.5648  -22.2332  -48.7258 S.3       23 UNK        -0.2404 
     17 C17         2.2127  -21.5110  -47.7393 C.3       23 UNK        -0.0398 
     18 CA          0.8038  -21.9952  -48.1739 C.3       11 UNK         0.1400 
     19 N          -0.1586  -21.8633  -47.0825 N.am      11 UNK        -0.5000 
     20 C          -1.2056  -22.6703  -46.8725 C.2       10 UNK         0.5000 
     21 O          -1.4314  -23.6782  -47.5404 O.2       10 UNK        -0.5000 
     22 CA         -2.1606  -22.3023  -45.7204 C.3       10 UNK         0.1400 
     23 CB         -1.9189  -23.2158  -44.5082 C.3       10 UNK        -0.1800 
     24 N          -2.0100  -20.9069  -45.3088 N.am      10 UNK        -0.5000 
     25 C          -2.7194  -19.8768  -45.7924 C.2       9 UNK         0.5000 
     26 O          -3.7333  -20.0081  -46.4812 O.2       9 UNK        -0.5000 
     27 CA         -2.2262  -18.4542  -45.4438 C.3       9 UNK         0.1400 
     28 CB         -3.2472  -17.7247  -44.5593 C.3       9 UNK        -0.1800 
     29 N          -0.9219  -18.4190  -44.7761 N.am      9 UNK        -0.5000 
     30 C           0.2584  -18.7248  -45.3299 C.2       8 UNK         0.5000 
     31 O           0.3884  -19.0331  -46.5129 O.2       8 UNK        -0.5000 
     32 CA          1.4736  -18.7934  -44.3874 C.3       8 UNK         0.1400 
     33 CB          2.1835  -17.4413  -44.2785 C.3       8 UNK        -0.1800 
     34 N           1.0926  -19.2446  -43.0500 N.am      8 UNK        -0.5000 
     35 C           0.8640  -20.5237  -42.7270 C.2       7 UNK         0.5000 
     36 O           0.9807  -21.4548  -43.5228 O.2       7 UNK        -0.5000 
     37 CA          0.4016  -20.8021  -41.2848 C.3       7 UNK         0.1400 
     38 CB          1.6110  -20.9515  -40.3498 C.3       7 UNK        -0.1800 
     39 N          -0.4832  -19.7565  -40.7671 N.am      7 UNK        -0.5000 
     40 C          -1.7404  -19.5587  -41.1869 C.2       6 UNK         0.5000 
     41 O          -2.2984  -20.2624  -42.0283 O.2       6 UNK        -0.5000 
     42 CA         -2.4899  -18.3509  -40.5902 C.3       6 UNK         0.1400 
     43 CB         -3.2109  -18.7551  -39.2957 C.3       6 UNK        -0.1800 
     44 N          -1.6478  -17.1765  -40.3286 N.am      6 UNK        -0.5000 
     45 C          -0.9278  -16.5243  -41.2505 C.2       5 UNK         0.5000 
     46 O          -0.8048  -16.9029  -42.4176 O.2       5 UNK        -0.5000 
     47 CA         -0.1978  -15.2560  -40.7938 C.3       5 UNK         0.1400 
     48 CB          1.1216  -15.6070  -40.0862 C.3       5 UNK        -0.1800 
     49 N           0.0837  -14.4476  -41.9745 N.am      5 UNK        -0.5000 
     50 C           0.1295  -13.1127  -42.0287 C.2       4 UNK         0.5000 
     51 O          -0.0260  -12.3856  -41.0466 O.2       4 UNK        -0.5000 
     52 CA          0.4019  -12.4749  -43.4063 C.3       4 UNK         0.1400 
     53 CB          1.8523  -11.9735  -43.4855 C.3       4 UNK        -0.1800 
     54 N           0.1685  -13.3928  -44.5231 N.am      4 UNK        -0.5000 
     55 C          -1.0188  -13.6783  -45.0677 C.2       3 UNK         0.5000 
     56 O          -2.0724  -13.1629  -44.6915 O.2       3 UNK        -0.5000 
     57 CA         -1.0204  -14.7107  -46.2221 C.3       3 UNK         0.1400 
     58 CB         -2.4027  -14.8606  -46.8827 C.3       3 UNK        -0.1800 
     59 N          -0.0306  -14.4470  -47.2759 N.am      3 UNK        -0.5000 
     60 C           1.2939  -14.6347  -47.1762 C.2       2 UNK         0.5000 
     61 O           1.8463  -14.9304  -46.1186 O.2       2 UNK        -0.5000 
     62 CA          2.1537  -14.4763  -48.4427 C.3       2 UNK         0.1400 
     63 CB          3.1351  -15.6539  -48.6056 C.3       2 UNK        -0.1800 
     64 N           1.3495  -14.3388  -49.6584 N.am      2 UNK        -0.5000 
     65 C           1.7318  -13.6581  -50.7470 C.2       1 UNK         0.5000 
     66 O           2.7981  -13.0469  -50.8321 O.2       1 UNK        -0.5000 
     67 C           0.2875  -21.2198  -49.3974 C.2       11 UNK         0.5000 
     68 O           0.2076  -21.7836  -50.4862 O.2       11 UNK        -0.5000 
     69 N          -0.0536  -19.9423  -49.1698 N.am      12 UNK        -0.5000 
     70 CA         -0.4294  -18.9343  -50.1550 C.3       12 UNK         0.1400 
     71 CB         -0.6469  -17.5983  -49.4209 C.3       12 UNK        -0.1800 
     72 C          -1.6539  -19.3102  -51.0076 C.2       12 UNK         0.5000 
     73 O          -2.7829  -18.9799  -50.6417 O.2       12 UNK        -0.5000 
     74 N          -1.4095  -19.9493  -52.1579 N.am      13 UNK        -0.5000 
     75 CA         -2.4291  -20.3699  -53.1226 C.3       13 UNK         0.1400 
     76 CB         -1.7723  -21.2426  -54.2001 C.3       13 UNK        -0.1800 
     77 C          -3.2130  -19.2128  -53.7705 C.2       13 UNK         0.5000 
     78 O          -4.3312  -19.4324  -54.2352 O.2       13 UNK        -0.5000 
     79 N          -2.6348  -18.0029  -53.7737 N.am      14 UNK        -0.5000 
     80 CA         -3.3068  -16.7761  -54.2064 C.3       14 UNK         0.1400 
     81 CB         -2.2638  -15.6682  -54.4025 C.3       14 UNK        -0.1800 
     82 C          -4.4026  -16.3188  -53.2222 C.2       14 UNK         0.5000 
     83 O          -5.3583  -15.6703  -53.6493 O.2       14 UNK        -0.5000 
     84 N          -4.2535  -16.6687  -51.9357 N.am      15 UNK        -0.5000 
     85 CA         -5.2815  -16.4841  -50.9142 C.3       15 UNK         0.1400 
     86 CB         -4.6278  -16.2541  -49.5390 C.3       15 UNK        -0.1800 
     87 C          -6.2013  -17.7121  -50.8721 C.2       15 UNK         0.5000 
     88 O          -7.4205  -17.5633  -50.9564 O.2       15 UNK        -0.5000 
     89 N          -5.5845  -18.8964  -50.7238 N.am      16 UNK        -0.5000 
     90 CA         -6.2047  -20.2133  -50.5386 C.3       16 UNK         0.1400 
     91 CB         -6.9130  -20.6692  -51.8303 C.3       16 UNK        -0.1800 
     92 C          -7.1221  -20.2778  -49.2949 C.2       16 UNK         0.5000 
     93 O          -8.1096  -21.0147  -49.2948 O.2       16 UNK        -0.5000 
     94 N          -6.8064  -19.4607  -48.2791 N.am      17 UNK        -0.5000 
     95 CA         -7.6731  -19.1702  -47.1400 C.3       17 UNK         0.1400 
     96 CB         -7.1706  -17.9068  -46.4257 C.3       17 UNK        -0.1800 
     97 C          -7.7961  -20.3538  -46.1712 C.2       17 UNK         0.5000 
     98 O          -8.9117  -20.8037  -45.9050 O.2       17 UNK        -0.5000 
     99 N          -6.6527  -20.8415  -45.6741 N.am      18 UNK        -0.5000 
    100 CA        -6.5942  -22.0304  -44.8220 C.3       18 UNK         0.1400 
    101 CB        -5.4910  -21.8527  -43.7687 C.3       18 UNK        -0.1800 
    102 C         -6.3766  -23.3035  -45.6583 C.2       18 UNK         0.5000 
    103 O         -6.8968  -24.3598  -45.2992 O.2       18 UNK        -0.5000 
    104 N         -5.6361  -23.1679  -46.7640 N.am      19 UNK        -0.5000 
    105 CA        -5.2697  -24.1890  -47.7405 C.3       19 UNK         0.1400 
    106 CB        -4.4695  -25.3356  -47.0819 C.3       19 UNK        -0.1800 
    107 C         -4.4401  -23.5003  -48.8380 C.2       19 UNK         0.5000 
    108 O         -4.1314  -22.3129  -48.7174 O.2       19 UNK        -0.5000 
    109 N         -4.0792  -24.2596  -49.8748 N.am      20 UNK        -0.5000 
    110 CA        -3.1719  -23.8523  -50.9482 C.3       20 UNK         0.1400 
    111 CB        -3.9827  -23.7010  -52.2489 C.3       20 UNK        -0.1800 
    112 C         -2.0424  -24.8937  -51.0600 C.2       20 UNK         0.5000 
    113 O         -1.7310  -25.3686  -52.1538 O.2       20 UNK        -0.5000 
    114 N         -1.4898  -25.2859  -49.9060 N.am      21 UNK        -0.5000 
    115 CA        -0.4951  -26.3418  -49.7599 C.3       21 UNK         0.1400 
    116 CB        -0.6794  -27.0002  -48.3803 C.3       21 UNK        -0.1800 
    117 C          0.9210  -25.7780  -49.9638 C.2       21 UNK         0.5000 
    118 O          1.6599  -25.5972  -48.9945 O.2       21 UNK        -0.5000 
    119 N          1.2681  -25.5001  -51.2263 N.am      22 UNK        -0.5000 
    120 CA         2.5793  -24.9645  -51.6328 C.3       22 UNK         0.1400 
    121 C          3.7872  -25.9263  -51.4180 C.2       22 UNK         0.5000 
    122 N          3.5838  -27.2225  -51.2139 N.am      22 UNK        -0.7600 
    123 O          4.9331  -25.4862  -51.4411 O.2       22 UNK        -0.5000 
    124 C124        2.5776  -24.4471  -53.0965 C.3       23 UNK        -0.0398 
    125 S125        1.3159  -23.1709  -53.4383 S.3       23 UNK        -0.2404 
    126 C126        2.3110  -21.7592  -54.0368 C.3       23 UNK        -0.0205 
    127 H127       -3.4256  -12.2332  -51.1404 H         1 UNK         0.0600 
    128 H128       -3.0505  -13.1482  -49.6786 H         1 UNK         0.0600 
    129 H129       -3.1638  -13.9719  -51.2433 H         1 UNK         0.0600 
    130 H130       -1.1021  -14.6265  -51.8286 H         1 UNK         0.3000 
    131 H131        0.8796  -12.6723  -52.4183 H         1 UNK         0.0600 
    132 H132        0.5604  -14.5322  -53.9186 H         1 UNK         0.0800 
    133 H133        2.1890  -14.5363  -53.3392 H         1 UNK         0.0800 
    134 H134        3.1647  -16.7468  -53.3543 H         1 UNK         0.0800 
    135 H135        3.1634  -16.3953  -51.6442 H         1 UNK         0.0800 
    136 H136        1.9934  -19.0471  -54.0452 H         1 UNK         0.1150 
    137 H137        3.5474  -22.2279  -51.6390 H         1 UNK         0.1150 
    138 H138        3.6762  -18.2073  -50.1951 H         1 UNK         0.1150 
    139 H139        5.3648  -21.0157  -49.7506 H         1 UNK         0.0800 
    140 H140        4.4041  -19.9620  -48.7481 H         1 UNK         0.0800 
    141 H141        2.2876  -20.4226  -47.7376 H         1 UNK         0.0800 
    142 H142        2.3976  -21.8145  -46.7076 H         1 UNK         0.0800 
    143 H143        0.8747  -23.0496  -48.4479 H         1 UNK         0.0600 
    144 H144       -0.0756  -21.0231  -46.5261 H         1 UNK         0.3000 
    145 H145       -3.1761  -22.4693  -46.0734 H         1 UNK         0.0600 
    146 H146       -2.5637  -22.9488  -43.6711 H         1 UNK         0.0600 
    147 H147       -2.1236  -24.2572  -44.7577 H         1 UNK         0.0600 
    148 H148       -0.8871  -23.1640  -44.1626 H         1 UNK         0.0600 
    149 H149       -1.2533  -20.7065  -44.6704 H         1 UNK         0.3000 
    150 H150       -2.1348  -17.9059  -46.3823 H         1 UNK         0.0600 
    151 H151       -3.4786  -18.2971  -43.6616 H         1 UNK         0.0600 
    152 H152       -2.8823  -16.7453  -44.2497 H         1 UNK         0.0600 
    153 H153       -4.1805  -17.5633  -45.0951 H         1 UNK         0.0600 
    154 H154       -0.9265  -18.1096  -43.8071 H         1 UNK         0.3000 
    155 H155        2.1836  -19.5086  -44.8089 H         1 UNK         0.0600 
    156 H156        1.4999  -16.6426  -43.9887 H         1 UNK         0.0600 
    157 H157        2.6301  -17.1745  -45.2360 H         1 UNK         0.0600 
    158 H158        2.9917  -17.4735  -43.5478 H         1 UNK         0.0600 
    159 H159        0.9134  -18.5273  -42.3622 H         1 UNK         0.3000 
    160 H160       -0.1463  -21.7470  -41.2881 H         1 UNK         0.0600 
    161 H161        2.1907  -20.0296  -40.2881 H         1 UNK         0.0600 
    162 H162        2.2807  -21.7378  -40.7010 H         1 UNK         0.0600 
    163 H163        1.2980  -21.2199  -39.3406 H         1 UNK         0.0600 
    164 H164       -0.1038  -19.1352  -40.0680 H         1 UNK         0.3000 
    165 H165       -3.2480  -18.0495  -41.3150 H         1 UNK         0.0600 
    166 H166       -3.8348  -17.9435  -38.9209 H         1 UNK         0.0600 
    167 H167       -3.8637  -19.6130  -39.4633 H         1 UNK         0.0600 
    168 H168       -2.5053  -19.0279  -38.5099 H         1 UNK         0.0600 
    169 H169       -1.6780  -16.8098  -39.3880 H         1 UNK         0.3000 
    170 H170       -0.8516  -14.7069  -40.1130 H         1 UNK         0.0600 
    171 H171        0.9437  -16.2154  -39.1988 H         1 UNK         0.0600 
    172 H172        1.7923  -16.1652  -40.7409 H         1 UNK         0.0600 
    173 H173        1.6451  -14.7074  -39.7620 H         1 UNK         0.0600 
    174 H174        0.1516  -14.9773  -42.8333 H         1 UNK         0.3000 
    175 H175       -0.2635  -11.6153  -43.5095 H         1 UNK         0.0600 
    176 H176        2.5660  -12.7938  -43.3974 H         1 UNK         0.0600 
    177 H177        2.0421  -11.4643  -44.4306 H         1 UNK         0.0600 
    178 H178        2.0664  -11.2633  -42.6857 H         1 UNK         0.0600 
    179 H179        0.9813  -13.8685  -44.9096 H         1 UNK         0.3000 
    180 H180       -0.7730  -15.6721  -45.7679 H         1 UNK         0.0600 
    181 H181       -2.7207  -13.9342  -47.3614 H         1 UNK         0.0600 
    182 H182       -3.1654  -15.1287  -46.1510 H         1 UNK         0.0600 
    183 H183       -2.3940  -15.6452  -47.6381 H         1 UNK         0.0600 
    184 H184       -0.3972  -14.0832  -48.1411 H         1 UNK         0.3000 
    185 H185        2.7330  -13.5632  -48.2913 H         1 UNK         0.0600 
    186 H186        3.8007  -15.5005  -49.4547 H         1 UNK         0.0600 
    187 H187        3.7670  -15.7702  -47.7243 H         1 UNK         0.0600 
    188 H188        2.6062  -16.5950  -48.7565 H         1 UNK         0.0600 
    189 H189        0.4763  -14.8423  -49.6888 H         1 UNK         0.3000 
    190 H190        0.0417  -19.5946  -48.2190 H         1 UNK         0.3000 
    191 H191        0.4180  -18.8136  -50.8277 H         1 UNK         0.0600 
    192 H192       -0.9443  -16.8097  -50.1123 H         1 UNK         0.0600 
    193 H193        0.2641  -17.2714  -48.9206 H         1 UNK         0.0600 
    194 H194       -1.4283  -17.6827  -48.6659 H         1 UNK         0.0600 
    195 H195       -0.4620  -20.2507  -52.3429 H         1 UNK         0.3000 
    196 H196       -3.1576  -20.9765  -52.5827 H         1 UNK         0.0600 
    197 H197       -0.9636  -20.7168  -54.7089 H         1 UNK         0.0600 
    198 H198       -1.3631  -22.1525  -53.7638 H         1 UNK         0.0600 
    199 H199       -2.4961  -21.5485  -54.9568 H         1 UNK         0.0600 
    200 H200       -1.6996  -17.9124  -53.4047 H         1 UNK         0.3000 
    201 H201       -3.7838  -16.9676  -55.1700 H         1 UNK         0.0600 
    202 H202       -1.4948  -15.9672  -55.1150 H         1 UNK         0.0600 
    203 H203       -1.7750  -15.4166  -53.4639 H         1 UNK         0.0600 
    204 H204       -2.7271  -14.7578  -54.7851 H         1 UNK         0.0600 
    205 H205       -3.4758  -17.2638  -51.6814 H         1 UNK         0.3000 
    206 H206       -5.8882  -15.6063  -51.1475 H         1 UNK         0.0600 
    207 H207       -4.0121  -15.3580  -49.5385 H         1 UNK         0.0600 
    208 H208       -5.3859  -16.1211  -48.7663 H         1 UNK         0.0600 
    209 H209       -3.9954  -17.0879  -49.2339 H         1 UNK         0.0600 
    210 H210       -4.5673  -18.8972  -50.6567 H         1 UNK         0.3000 
    211 H211       -5.3837  -20.9045  -50.3617 H         1 UNK         0.0600 
    212 H212       -7.2572  -21.7005  -51.7449 H         1 UNK         0.0600 
    213 H213       -6.2389  -20.6256  -52.6851 H         1 UNK         0.0600 
    214 H214       -7.7818  -20.0505  -52.0560 H         1 UNK         0.0600 
    215 H215       -5.9511  -18.9296  -48.3469 H         1 UNK         0.3000 
    216 H216       -8.6722  -18.9557  -47.5259 H         1 UNK         0.0600 
    217 H217       -6.1451  -18.0248  -46.0805 H         1 UNK         0.0600 
    218 H218       -7.7877  -17.6756  -45.5564 H         1 UNK         0.0600 
    219 H219       -7.2039  -17.0412  -47.0874 H         1 UNK         0.0600 
    220 H220       -5.7705  -20.4277  -45.9561 H         1 UNK         0.3000 
    221 H221       -7.5362  -22.1527  -44.2830 H         1 UNK         0.0600 
    222 H222       -5.7164  -21.0209  -43.1013 H         1 UNK         0.0600 
    223 H223       -4.5247  -21.6536  -44.2249 H         1 UNK         0.0600 
    224 H224       -5.3871  -22.7463  -43.1520 H         1 UNK         0.0600 
    225 H225       -5.2638  -22.2551  -47.0031 H         1 UNK         0.3000 
    226 H226       -6.1810  -24.5831  -48.1936 H         1 UNK         0.0600 
    227 H227       -3.5906  -24.9628  -46.5581 H         1 UNK         0.0600 
    228 H228       -5.0727  -25.8890  -46.3633 H         1 UNK         0.0600 
    229 H229       -4.1244  -26.0611  -47.8188 H         1 UNK         0.0600 
    230 H230       -4.3523  -25.2326  -49.8862 H         1 UNK         0.3000 
    231 H231       -2.6949  -22.8963  -50.7193 H         1 UNK         0.0600 
    232 H232       -4.4894  -24.6292  -52.5151 H         1 UNK         0.0600 
    233 H233       -3.3415  -23.4290  -53.0867 H         1 UNK         0.0600 
    234 H234       -4.7402  -22.9234  -52.1510 H         1 UNK         0.0600 
    235 H235       -1.7110  -24.7712  -49.0560 H         1 UNK         0.3000 
    236 H236       -0.6628  -27.1115  -50.5163 H         1 UNK         0.0600 
    237 H237       -1.6745  -27.4342  -48.2814 H         1 UNK         0.0600 
    238 H238        0.0426  -27.8039  -48.2318 H         1 UNK         0.0600 
    239 H239       -0.5468  -26.2844  -47.5680 H         1 UNK         0.0600 
    240 H240        0.5762  -25.6086  -51.9567 H         1 UNK         0.3000 
    241 H241        2.7650  -24.1162  -50.9756 H         1 UNK         0.0600 
    242 H242        4.3742  -27.8326  -51.0745 H         1 UNK         0.3800 
    243 H243        2.6505  -27.6004  -51.1952 H         1 UNK         0.3800 
    244 H244        2.4041  -25.2763  -53.7843 H         1 UNK         0.0800 
    245 H245        3.5600  -24.0490  -53.3549 H         1 UNK         0.0800 
    246 H246        1.7277  -21.2575  -54.8102 H         1 UNK         0.0800 
    247 H247        3.2181  -22.1097  -54.5300 H         1 UNK         0.0800 
@<TRIPOS>BOND
     1    1    2 1    
     2    1  127 1    
     3    1  128 1    
     4    1  129 1    
     5    2    3 2    
     6    2    4 am   BACKBONE|DICT|INTERRES
     7    4    5 1    
     8    4  130 1    
     9    5    6 1    
    10    5   65 1    
    11    5  131 1    
    12    6    7 1    
    13    6  132 1    
    14    6  133 1    
    15    7    8 1    
    16    8    9 1    
    17    8  134 1    
    18    8  135 1    
    19    9   10 ar   
    20    9   14 ar   
    21   10   11 ar   
    22   10  136 1    
    23   11   12 ar   
    24   11  126 1    
    25   12   13 ar   
    26   12  137 1    
    27   13   14 ar   
    28   13   15 1    
    29   14  138 1    
    30   15   16 1    
    31   15  139 1    
    32   15  140 1    
    33   16   17 1    
    34   17   18 1    
    35   17  141 1    
    36   17  142 1    
    37   18   19 1    
    38   18   67 1    
    39   18  143 1    
    40   19   20 am   BACKBONE|DICT|INTERRES
    41   19  144 1    
    42   20   21 2    
    43   20   22 1    
    44   22   23 1    
    45   22   24 1    
    46   22  145 1    
    47   23  146 1    
    48   23  147 1    
    49   23  148 1    
    50   24   25 am   BACKBONE|DICT|INTERRES
    51   24  149 1    
    52   25   26 2    
    53   25   27 1    
    54   27   28 1    
    55   27   29 1    
    56   27  150 1    
    57   28  151 1    
    58   28  152 1    
    59   28  153 1    
    60   29   30 am   BACKBONE|DICT|INTERRES
    61   29  154 1    
    62   30   31 2    
    63   30   32 1    
    64   32   33 1    
    65   32   34 1    
    66   32  155 1    
    67   33  156 1    
    68   33  157 1    
    69   33  158 1    
    70   34   35 am   BACKBONE|DICT|INTERRES
    71   34  159 1    
    72   35   36 2    
    73   35   37 1    
    74   37   38 1    
    75   37   39 1    
    76   37  160 1    
    77   38  161 1    
    78   38  162 1    
    79   38  163 1    
    80   39   40 am   BACKBONE|DICT|INTERRES
    81   39  164 1    
    82   40   41 2    
    83   40   42 1    
    84   42   43 1    
    85   42   44 1    
    86   42  165 1    
    87   43  166 1    
    88   43  167 1    
    89   43  168 1    
    90   44   45 am   BACKBONE|DICT|INTERRES
    91   44  169 1    
    92   45   46 2    
    93   45   47 1    
    94   47   48 1    
    95   47   49 1    
    96   47  170 1    
    97   48  171 1    
    98   48  172 1    
    99   48  173 1    
   100   49   50 am   BACKBONE|DICT|INTERRES
   101   49  174 1    
   102   50   51 2    
   103   50   52 1    
   104   52   53 1    
   105   52   54 1    
   106   52  175 1    
   107   53  176 1    
   108   53  177 1    
   109   53  178 1    
   110   54   55 am   BACKBONE|DICT|INTERRES
   111   54  179 1    
   112   55   56 2    
   113   55   57 1    
   114   57   58 1    
   115   57   59 1    
   116   57  180 1    
   117   58  181 1    
   118   58  182 1    
   119   58  183 1    
   120   59   60 am   BACKBONE|DICT|INTERRES
   121   59  184 1    
   122   60   61 2    
   123   60   62 1    
   124   62   63 1    
   125   62   64 1    
   126   62  185 1    
   127   63  186 1    
   128   63  187 1    
   129   63  188 1    
   130   64   65 am   BACKBONE|DICT|INTERRES
   131   64  189 1    
   132   65   66 2    
   133   67   68 2    
   134   67   69 am   BACKBONE|DICT|INTERRES
   135   69   70 1    
   136   69  190 1    
   137   70   71 1    
   138   70   72 1    
   139   70  191 1    
   140   71  192 1    
   141   71  193 1    
   142   71  194 1    
   143   72   73 2    
   144   72   74 am   BACKBONE|DICT|INTERRES
   145   74   75 1    
   146   74  195 1    
   147   75   76 1    
   148   75   77 1    
   149   75  196 1    
   150   76  197 1    
   151   76  198 1    
   152   76  199 1    
   153   77   78 2    
   154   77   79 am   BACKBONE|DICT|INTERRES
   155   79   80 1    
   156   79  200 1    
   157   80   81 1    
   158   80   82 1    
   159   80  201 1    
   160   81  202 1    
   161   81  203 1    
   162   81  204 1    
   163   82   83 2    
   164   82   84 am   BACKBONE|DICT|INTERRES
   165   84   85 1    
   166   84  205 1    
   167   85   86 1    
   168   85   87 1    
   169   85  206 1    
   170   86  207 1    
   171   86  208 1    
   172   86  209 1    
   173   87   88 2    
   174   87   89 am   BACKBONE|DICT|INTERRES
   175   89   90 1    
   176   89  210 1    
   177   90   91 1    
   178   90   92 1    
   179   90  211 1    
   180   91  212 1    
   181   91  213 1    
   182   91  214 1    
   183   92   93 2    
   184   92   94 am   BACKBONE|DICT|INTERRES
   185   94   95 1    
   186   94  215 1    
   187   95   96 1    
   188   95   97 1    
   189   95  216 1    
   190   96  217 1    
   191   96  218 1    
   192   96  219 1    
   193   97   98 2    
   194   97   99 am   BACKBONE|DICT|INTERRES
   195   99  100 1    
   196   99  220 1    
   197  100  101 1    
   198  100  102 1    
   199  100  221 1    
   200  101  222 1    
   201  101  223 1    
   202  101  224 1    
   203  102  103 2    
   204  102  104 am   BACKBONE|DICT|INTERRES
   205  104  105 1    
   206  104  225 1    
   207  105  106 1    
   208  105  107 1    
   209  105  226 1    
   210  106  227 1    
   211  106  228 1    
   212  106  229 1    
   213  107  108 2    
   214  107  109 am   BACKBONE|DICT|INTERRES
   215  109  110 1    
   216  109  230 1    
   217  110  111 1    
   218  110  112 1    
   219  110  231 1    
   220  111  232 1    
   221  111  233 1    
   222  111  234 1    
   223  112  113 2    
   224  112  114 am   BACKBONE|DICT|INTERRES
   225  114  115 1    
   226  114  235 1    
   227  115  116 1    
   228  115  117 1    
   229  115  236 1    
   230  116  237 1    
   231  116  238 1    
   232  116  239 1    
   233  117  118 2    
   234  117  119 am   BACKBONE|DICT|INTERRES
   235  119  120 1    
   236  119  240 1    
   237  120  121 1    
   238  120  124 1    
   239  120  241 1    
   240  121  122 am   BACKBONE|DICT|INTERRES
   241  121  123 2    
   242  122  242 1    
   243  122  243 1    
   244  124  125 1    
   245  124  244 1    
   246  124  245 1    
   247  125  126 1    
   248  126  246 1    
   249  126  247 1    
@<TRIPOS>SUBSTRUCTURE
     1 UNK         1 GROUP             0       ****    0 ROOT    
