@<TRIPOS>MOLECULE
3R540
247   249    1
SMALL
USER_CHARGES


@<TRIPOS>ATOM
      1 CA         -0.1083   -9.9125  -47.7508 C.3       0 UNK        -0.1800 
      2 C          -0.1260  -11.1671  -46.8803 C.2       0 UNK         0.5000 
      3 O          -1.0448  -11.3271  -46.0813 O.2       0 UNK        -0.5000 
      4 N           0.8477  -12.0800  -46.9995 N.am      1 UNK        -0.5000 
      5 CA          2.0311  -11.9986  -47.8615 C.3       1 UNK         0.1400 
      6 C6          2.4259  -13.4012  -48.3966 C.3       23 UNK        -0.0398 
      7 S7          3.1071  -14.5514  -47.1453 S.3       23 UNK        -0.2404 
      8 C8          4.4492  -15.3614  -48.0759 C.3       23 UNK        -0.0205 
      9 C9          3.9407  -16.5277  -48.9122 C.ar      23 UNK        -0.0193 
     10 C10         3.1657  -16.2986  -50.0531 C.ar      23 UNK        -0.1150 
     11 C11         2.6759  -17.3664  -50.8077 C.ar      23 UNK        -0.0193 
     12 C12         3.0058  -18.6738  -50.4448 C.ar      23 UNK        -0.1150 
     13 C13         3.7970  -18.9177  -49.3202 C.ar      23 UNK        -0.0193 
     14 C14         4.2529  -17.8424  -48.5513 C.ar      23 UNK        -0.1150 
     15 C15         4.1633  -20.3435  -48.9420 C.3       23 UNK        -0.0205 
     16 S16         3.1012  -20.9831  -47.6143 S.3       23 UNK        -0.2404 
     17 C17         1.4770  -21.0721  -48.4449 C.3       23 UNK        -0.0398 
     18 CA          0.5482  -22.0824  -47.7394 C.3       11 UNK         0.1400 
     19 N           0.2008  -21.6643  -46.3795 N.am      11 UNK        -0.5000 
     20 C          -0.3016  -22.4842  -45.4491 C.2       10 UNK         0.5000 
     21 O          -0.5046  -23.6824  -45.6384 O.2       10 UNK        -0.5000 
     22 CA         -0.6877  -21.8567  -44.0988 C.3       10 UNK         0.1400 
     23 CB          0.5449  -21.6951  -43.1973 C.3       10 UNK        -0.1800 
     24 N          -1.3732  -20.5721  -44.2522 N.am      10 UNK        -0.5000 
     25 C          -2.5609  -20.4246  -44.8571 C.2       9 UNK         0.5000 
     26 O          -3.2148  -21.3643  -45.3083 O.2       9 UNK        -0.5000 
     27 CA         -3.0980  -18.9926  -45.0200 C.3       9 UNK         0.1400 
     28 CB         -3.7683  -18.5167  -43.7229 C.3       9 UNK        -0.1800 
     29 N          -2.0653  -18.0382  -45.4206 N.am      9 UNK        -0.5000 
     30 C          -1.3971  -18.0718  -46.5827 C.2       8 UNK         0.5000 
     31 O          -1.6016  -18.9021  -47.4688 O.2       8 UNK        -0.5000 
     32 CA         -0.2664  -17.0387  -46.7564 C.3       8 UNK         0.1400 
     33 CB         -0.8285  -15.6513  -47.1004 C.3       8 UNK        -0.1800 
     34 N           0.5893  -16.9426  -45.5737 N.am      8 UNK        -0.5000 
     35 C           1.2923  -17.9674  -45.0706 C.2       7 UNK         0.5000 
     36 O           1.2999  -19.0976  -45.5546 O.2       7 UNK        -0.5000 
     37 CA          2.0670  -17.7005  -43.7726 C.3       7 UNK         0.1400 
     38 CB          3.3696  -16.9484  -44.0629 C.3       7 UNK        -0.1800 
     39 N           1.2656  -16.9501  -42.8074 N.am      7 UNK        -0.5000 
     40 C           0.1978  -17.4529  -42.1713 C.2       6 UNK         0.5000 
     41 O          -0.2001  -18.6093  -42.3085 O.2       6 UNK        -0.5000 
     42 CA         -0.5847  -16.4876  -41.2638 C.3       6 UNK         0.1400 
     43 CB          0.1047  -16.3425  -39.8989 C.3       6 UNK        -0.1800 
     44 N          -0.7579  -15.1650  -41.8635 N.am      6 UNK        -0.5000 
     45 C          -1.4320  -14.9244  -42.9969 C.2       5 UNK         0.5000 
     46 O          -2.0052  -15.7942  -43.6502 O.2       5 UNK        -0.5000 
     47 CA         -1.4461  -13.4738  -43.5045 C.3       5 UNK         0.1400 
     48 CB         -2.6937  -12.7376  -42.9949 C.3       5 UNK        -0.1800 
     49 N          -0.2517  -12.7112  -43.1359 N.am      5 UNK        -0.5000 
     50 C           0.9881  -12.9730  -43.5695 C.2       4 UNK         0.5000 
     51 O           1.2615  -13.9265  -44.3039 O.2       4 UNK        -0.5000 
     52 CA          2.0682  -11.9657  -43.1284 C.3       4 UNK         0.1400 
     53 CB          2.1166  -11.7860  -41.5948 C.3       4 UNK        -0.1800 
     54 N           3.3957  -12.2531  -43.6792 N.am      4 UNK        -0.5000 
     55 C           4.2527  -13.2291  -43.3410 C.2       3 UNK         0.5000 
     56 O           4.0395  -14.0489  -42.4468 O.2       3 UNK        -0.5000 
     57 CA          5.5877  -13.2806  -44.1195 C.3       3 UNK         0.1400 
     58 CB          6.0817  -14.7178  -44.3574 C.3       3 UNK        -0.1800 
     59 N           5.4888  -12.6018  -45.4127 N.am      3 UNK        -0.5000 
     60 C           5.9829  -11.3909  -45.7026 C.2       2 UNK         0.5000 
     61 O           6.6600  -10.7216  -44.9220 O.2       2 UNK        -0.5000 
     62 CA          5.6366  -10.8129  -47.0929 C.3       2 UNK         0.1400 
     63 CB          6.7993  -11.0419  -48.0706 C.3       2 UNK        -0.1800 
     64 N           4.4086  -11.3633  -47.6805 N.am      2 UNK        -0.5000 
     65 C           3.1829  -11.2478  -47.1485 C.2       1 UNK         0.5000 
     66 O           2.9616  -10.6024  -46.1207 O.2       1 UNK        -0.5000 
     67 C          -0.7032  -22.4181  -48.5798 C.2       11 UNK         0.5000 
     68 O          -0.6668  -23.3871  -49.3380 O.2       11 UNK        -0.5000 
     69 N          -1.8086  -21.6798  -48.3890 N.am      12 UNK        -0.5000 
     70 CA         -3.1139  -21.9984  -48.9780 C.3       12 UNK         0.1400 
     71 CB         -4.1026  -20.8487  -48.7296 C.3       12 UNK        -0.1800 
     72 C          -3.6853  -23.3311  -48.4526 C.2       12 UNK         0.5000 
     73 O          -4.2058  -24.1232  -49.2390 O.2       12 UNK        -0.5000 
     74 N          -3.5423  -23.5774  -47.1423 N.am      13 UNK        -0.5000 
     75 CA         -3.9185  -24.8306  -46.4860 C.3       13 UNK         0.1400 
     76 CB         -3.8691  -24.6565  -44.9612 C.3       13 UNK        -0.1800 
     77 C          -3.0512  -26.0214  -46.9353 C.2       13 UNK         0.5000 
     78 O          -3.5861  -27.1103  -47.1418 O.2       13 UNK        -0.5000 
     79 N          -1.7444  -25.7934  -47.1336 N.am      14 UNK        -0.5000 
     80 CA         -0.8021  -26.7676  -47.6963 C.3       14 UNK         0.1400 
     81 CB          0.6329  -26.2363  -47.5683 C.3       14 UNK        -0.1800 
     82 C          -1.1217  -27.1329  -49.1603 C.2       14 UNK         0.5000 
     83 O          -0.9041  -28.2753  -49.5637 O.2       14 UNK        -0.5000 
     84 N          -1.6917  -26.1771  -49.9068 N.am      15 UNK        -0.5000 
     85 CA         -2.2615  -26.3572  -51.2444 C.3       15 UNK         0.1400 
     86 CB         -2.2171  -25.0106  -51.9880 C.3       15 UNK        -0.1800 
     87 C          -3.6921  -26.9467  -51.2226 C.2       15 UNK         0.5000 
     88 O          -4.3613  -26.9424  -52.2569 O.2       15 UNK        -0.5000 
     89 N          -4.1486  -27.4257  -50.0541 N.am      16 UNK        -0.5000 
     90 CA         -5.4316  -28.0825  -49.7793 C.3       16 UNK         0.1400 
     91 CB         -5.5385  -29.4104  -50.5583 C.3       16 UNK        -0.1800 
     92 C          -6.6614  -27.1756  -49.9868 C.2       16 UNK         0.5000 
     93 O          -7.7682  -27.6892  -50.1592 O.2       16 UNK        -0.5000 
     94 N          -6.4505  -25.8494  -49.9745 N.am      17 UNK        -0.5000 
     95 CA         -7.4303  -24.7963  -50.2577 C.3       17 UNK         0.1400 
     96 CB         -8.4692  -24.6982  -49.1220 C.3       17 UNK        -0.1800 
     97 C          -8.0684  -24.9263  -51.6593 C.2       17 UNK         0.5000 
     98 O          -9.2404  -24.5902  -51.8391 O.2       17 UNK        -0.5000 
     99 N          -7.2809  -25.4107  -52.6339 N.am      18 UNK        -0.5000 
    100 CA        -7.6818  -25.5913  -54.0339 C.3       18 UNK         0.1400 
    101 CB        -6.5940  -26.3943  -54.7627 C.3       18 UNK        -0.1800 
    102 C         -7.9624  -24.2650  -54.7702 C.2       18 UNK         0.5000 
    103 O         -8.6885  -24.2588  -55.7652 O.2       18 UNK        -0.5000 
    104 N         -7.4005  -23.1708  -54.2511 N.am      19 UNK        -0.5000 
    105 CA        -7.6813  -21.7920  -54.6174 C.3       19 UNK         0.1400 
    106 CB        -6.6087  -21.2977  -55.6033 C.3       19 UNK        -0.1800 
    107 C         -7.6739  -20.9599  -53.3264 C.2       19 UNK         0.5000 
    108 O         -7.1629  -21.4194  -52.3002 O.2       19 UNK        -0.5000 
    109 N         -8.2184  -19.7398  -53.4041 N.am      20 UNK        -0.5000 
    110 CA        -8.1807  -18.7555  -52.3173 C.3       20 UNK         0.1400 
    111 CB        -9.2366  -17.6724  -52.5879 C.3       20 UNK        -0.1800 
    112 C         -6.7865  -18.1191  -52.1372 C.2       20 UNK         0.5000 
    113 O         -6.4874  -17.6028  -51.0598 O.2       20 UNK        -0.5000 
    114 N         -5.9679  -18.1600  -53.1970 N.am      21 UNK        -0.5000 
    115 CA        -4.5792  -17.7109  -53.2121 C.3       21 UNK         0.1400 
    116 CB        -4.1222  -17.5920  -54.6750 C.3       21 UNK        -0.1800 
    117 C         -3.6519  -18.6651  -52.4359 C.2       21 UNK         0.5000 
    118 O         -3.9588  -19.8486  -52.2787 O.2       21 UNK        -0.5000 
    119 N         -2.5076  -18.1281  -52.0053 N.am      22 UNK        -0.5000 
    120 CA        -1.4389  -18.8479  -51.2958 C.3       22 UNK         0.1400 
    121 C         -0.6074  -19.8448  -52.1565 C.2       22 UNK         0.5000 
    122 N         -0.7565  -19.8786  -53.4750 N.am      22 UNK        -0.7600 
    123 O          0.1880  -20.6051  -51.6149 O.2       22 UNK        -0.5000 
    124 C124       -0.5342  -17.8639  -50.5130 C.3       23 UNK        -0.0398 
    125 S125        0.1378  -16.4858  -51.5146 S.3       23 UNK        -0.2404 
    126 C126        1.7796  -17.1063  -52.0074 C.3       23 UNK        -0.0205 
    127 H127       -0.9152   -9.2377  -47.4640 H         1 UNK         0.0600 
    128 H128        0.8301   -9.3695  -47.6398 H         1 UNK         0.0600 
    129 H129       -0.2474  -10.1703  -48.8006 H         1 UNK         0.0600 
    130 H130        0.8454  -12.8728  -46.3705 H         1 UNK         0.3000 
    131 H131        1.7866  -11.4015  -48.7408 H         1 UNK         0.0600 
    132 H132        1.5542  -13.8767  -48.8487 H         1 UNK         0.0800 
    133 H133        3.1387  -13.2865  -49.2134 H         1 UNK         0.0800 
    134 H134        4.9649  -14.6423  -48.7133 H         1 UNK         0.0800 
    135 H135        5.1953  -15.7141  -47.3630 H         1 UNK         0.0800 
    136 H136        2.9191  -15.2909  -50.3500 H         1 UNK         0.1150 
    137 H137        2.6370  -19.5035  -51.0317 H         1 UNK         0.1150 
    138 H138        4.8532  -18.0332  -47.6728 H         1 UNK         0.1150 
    139 H139        4.1029  -21.0028  -49.8093 H         1 UNK         0.0800 
    140 H140        5.2014  -20.3751  -48.6082 H         1 UNK         0.0800 
    141 H141        1.6380  -21.3651  -49.4836 H         1 UNK         0.0800 
    142 H142        1.0284  -20.0778  -48.4607 H         1 UNK         0.0800 
    143 H143        1.1076  -23.0161  -47.6510 H         1 UNK         0.0600 
    144 H144        0.4052  -20.6989  -46.1321 H         1 UNK         0.3000 
    145 H145       -1.3777  -22.5424  -43.6028 H         1 UNK         0.0600 
    146 H146        0.2637  -21.3400  -42.2059 H         1 UNK         0.0600 
    147 H147        1.0601  -22.6475  -43.0668 H         1 UNK         0.0600 
    148 H148        1.2621  -20.9890  -43.6154 H         1 UNK         0.0600 
    149 H149       -0.9060  -19.7576  -43.8683 H         1 UNK         0.3000 
    150 H150       -3.8553  -19.0103  -45.8062 H         1 UNK         0.0600 
    151 H151       -4.5486  -19.2105  -43.4077 H         1 UNK         0.0600 
    152 H152       -4.2353  -17.5408  -43.8567 H         1 UNK         0.0600 
    153 H153       -3.0501  -18.4341  -42.9061 H         1 UNK         0.0600 
    154 H154       -1.8596  -17.2945  -44.7574 H         1 UNK         0.3000 
    155 H155        0.3635  -17.3663  -47.5862 H         1 UNK         0.0600 
    156 H156       -0.0273  -14.9319  -47.2634 H         1 UNK         0.0600 
    157 H157       -1.4669  -15.2652  -46.3062 H         1 UNK         0.0600 
    158 H158       -1.4256  -15.6848  -48.0119 H         1 UNK         0.0600 
    159 H159        0.6506  -16.0411  -45.1175 H         1 UNK         0.3000 
    160 H160        2.3246  -18.6651  -43.3304 H         1 UNK         0.0600 
    161 H161        3.1708  -15.9518  -44.4565 H         1 UNK         0.0600 
    162 H162        3.9744  -17.4792  -44.7994 H         1 UNK         0.0600 
    163 H163        3.9715  -16.8387  -43.1609 H         1 UNK         0.0600 
    164 H164        1.5020  -15.9757  -42.6808 H         1 UNK         0.3000 
    165 H165       -1.5769  -16.9146  -41.1028 H         1 UNK         0.0600 
    166 H166        1.0912  -15.8862  -39.9910 H         1 UNK         0.0600 
    167 H167       -0.4879  -15.7279  -39.2211 H         1 UNK         0.0600 
    168 H168        0.2357  -17.3154  -39.4232 H         1 UNK         0.0600 
    169 H169       -0.3136  -14.3883  -41.3972 H         1 UNK         0.3000 
    170 H170       -1.4952  -13.5135  -44.5939 H         1 UNK         0.0600 
    171 H171       -3.6030  -13.2734  -43.2710 H         1 UNK         0.0600 
    172 H172       -2.6879  -12.6366  -41.9090 H         1 UNK         0.0600 
    173 H173       -2.7638  -11.7390  -43.4271 H         1 UNK         0.0600 
    174 H174       -0.4050  -11.8984  -42.5574 H         1 UNK         0.3000 
    175 H175        1.7821  -11.0069  -43.5633 H         1 UNK         0.0600 
    176 H176        2.9380  -11.1327  -41.3002 H         1 UNK         0.0600 
    177 H177        1.1996  -11.3316  -41.2192 H         1 UNK         0.0600 
    178 H178        2.2420  -12.7365  -41.0754 H         1 UNK         0.0600 
    179 H179        3.6451  -11.6656  -44.4661 H         1 UNK         0.3000 
    180 H180        6.3258  -12.7817  -43.4888 H         1 UNK         0.0600 
    181 H181        5.4045  -15.2716  -45.0051 H         1 UNK         0.0600 
    182 H182        6.1728  -15.2695  -43.4212 H         1 UNK         0.0600 
    183 H183        7.0646  -14.7193  -44.8285 H         1 UNK         0.0600 
    184 H184        4.9206  -13.0655  -46.1082 H         1 UNK         0.3000 
    185 H185        5.4959   -9.7368  -46.9726 H         1 UNK         0.0600 
    186 H186        6.6075  -10.5648  -49.0319 H         1 UNK         0.0600 
    187 H187        7.7270  -10.6207  -47.6807 H         1 UNK         0.0600 
    188 H188        6.9711  -12.1041  -48.2496 H         1 UNK         0.0600 
    189 H189        4.5278  -11.8894  -48.5333 H         1 UNK         0.3000 
    190 H190       -1.7626  -20.8629  -47.7876 H         1 UNK         0.3000 
    191 H191       -2.9772  -22.0957  -50.0572 H         1 UNK         0.0600 
    192 H192       -3.7286  -19.9054  -49.1261 H         1 UNK         0.0600 
    193 H193       -5.0567  -21.0470  -49.2200 H         1 UNK         0.0600 
    194 H194       -4.3025  -20.7070  -47.6680 H         1 UNK         0.0600 
    195 H195       -3.1661  -22.8461  -46.5452 H         1 UNK         0.3000 
    196 H196       -4.9507  -25.0530  -46.7648 H         1 UNK         0.0600 
    197 H197       -4.1823  -25.5699  -44.4540 H         1 UNK         0.0600 
    198 H198       -4.5353  -23.8578  -44.6347 H         1 UNK         0.0600 
    199 H199       -2.8649  -24.4160  -44.6130 H         1 UNK         0.0600 
    200 H200       -1.3603  -24.8947  -46.8548 H         1 UNK         0.3000 
    201 H201       -0.8784  -27.6815  -47.1038 H         1 UNK         0.0600 
    202 H202        0.8767  -25.9984  -46.5327 H         1 UNK         0.0600 
    203 H203        0.7842  -25.3376  -48.1649 H         1 UNK         0.0600 
    204 H204        1.3542  -26.9796  -47.9100 H         1 UNK         0.0600 
    205 H205       -1.7794  -25.2494  -49.5081 H         1 UNK         0.3000 
    206 H206       -1.6376  -27.0626  -51.7965 H         1 UNK         0.0600 
    207 H207       -1.2054  -24.6047  -52.0087 H         1 UNK         0.0600 
    208 H208       -2.5420  -25.1208  -53.0232 H         1 UNK         0.0600 
    209 H209       -2.8629  -24.2681  -51.5201 H         1 UNK         0.0600 
    210 H210       -3.5523  -27.3281  -49.2414 H         1 UNK         0.3000 
    211 H211       -5.4222  -28.3289  -48.7172 H         1 UNK         0.0600 
    212 H212       -5.6376  -29.2438  -51.6314 H         1 UNK         0.0600 
    213 H213       -6.4072  -29.9857  -50.2364 H         1 UNK         0.0600 
    214 H214       -4.6604  -30.0351  -50.3948 H         1 UNK         0.0600 
    215 H215       -5.5065  -25.5139  -49.8028 H         1 UNK         0.3000 
    216 H216       -6.8714  -23.8593  -50.2710 H         1 UNK         0.0600 
    217 H217       -7.9824  -24.5911  -48.1526 H         1 UNK         0.0600 
    218 H218       -9.1101  -25.5793  -49.0811 H         1 UNK         0.0600 
    219 H219       -9.1149  -23.8298  -49.2570 H         1 UNK         0.0600 
    220 H220       -6.3408  -25.7029  -52.3961 H         1 UNK         0.3000 
    221 H221       -8.6050  -26.1742  -54.0463 H         1 UNK         0.0600 
    222 H222       -5.6377  -25.8696  -54.7589 H         1 UNK         0.0600 
    223 H223       -6.4426  -27.3674  -54.2949 H         1 UNK         0.0600 
    224 H224       -6.8683  -26.5728  -55.8032 H         1 UNK         0.0600 
    225 H225       -6.8734  -23.2626  -53.3919 H         1 UNK         0.3000 
    226 H226       -8.6710  -21.7174  -55.0732 H         1 UNK         0.0600 
    227 H227       -6.5831  -21.9178  -56.4996 H         1 UNK         0.0600 
    228 H228       -6.8083  -20.2748  -55.9238 H         1 UNK         0.0600 
    229 H229       -5.6136  -21.3155  -55.1562 H         1 UNK         0.0600 
    230 H230       -8.6371  -19.4380  -54.2725 H         1 UNK         0.3000 
    231 H231       -8.4380  -19.2567  -51.3816 H         1 UNK         0.0600 
    232 H232       -9.2559  -16.9365  -51.7829 H         1 UNK         0.0600 
    233 H233      -10.2356  -18.1034  -52.6560 H         1 UNK         0.0600 
    234 H234       -9.0364  -17.1372  -53.5169 H         1 UNK         0.0600 
    235 H235       -6.2938  -18.6328  -54.0252 H         1 UNK         0.3000 
    236 H236       -4.5319  -16.7235  -52.7477 H         1 UNK         0.0600 
    237 H237       -3.1006  -17.2156  -54.7396 H         1 UNK         0.0600 
    238 H238       -4.1504  -18.5560  -55.1850 H         1 UNK         0.0600 
    239 H239       -4.7553  -16.9002  -55.2310 H         1 UNK         0.0600 
    240 H240       -2.3117  -17.1566  -52.2005 H         1 UNK         0.3000 
    241 H241       -1.9259  -19.4768  -50.5495 H         1 UNK         0.0600 
    242 H242       -1.4070  -19.2645  -53.9356 H         1 UNK         0.3800 
    243 H243       -0.2148  -20.5341  -54.0153 H         1 UNK         0.3800 
    244 H244       -1.1306  -17.4090  -49.7230 H         1 UNK         0.0800 
    245 H245        0.2651  -18.3905  -49.9930 H         1 UNK         0.0800 
    246 H246        1.6633  -18.0076  -52.6105 H         1 UNK         0.0800 
    247 H247        2.2549  -16.3680  -52.6546 H         1 UNK         0.0800 
@<TRIPOS>BOND
     1    1    2 1    
     2    1  127 1    
     3    1  128 1    
     4    1  129 1    
     5    2    3 2    
     6    2    4 am   BACKBONE|DICT|INTERRES
     7    4    5 1    
     8    4  130 1    
     9    5    6 1    
    10    5   65 1    
    11    5  131 1    
    12    6    7 1    
    13    6  132 1    
    14    6  133 1    
    15    7    8 1    
    16    8    9 1    
    17    8  134 1    
    18    8  135 1    
    19    9   10 ar   
    20    9   14 ar   
    21   10   11 ar   
    22   10  136 1    
    23   11   12 ar   
    24   11  126 1    
    25   12   13 ar   
    26   12  137 1    
    27   13   14 ar   
    28   13   15 1    
    29   14  138 1    
    30   15   16 1    
    31   15  139 1    
    32   15  140 1    
    33   16   17 1    
    34   17   18 1    
    35   17  141 1    
    36   17  142 1    
    37   18   19 1    
    38   18   67 1    
    39   18  143 1    
    40   19   20 am   BACKBONE|DICT|INTERRES
    41   19  144 1    
    42   20   21 2    
    43   20   22 1    
    44   22   23 1    
    45   22   24 1    
    46   22  145 1    
    47   23  146 1    
    48   23  147 1    
    49   23  148 1    
    50   24   25 am   BACKBONE|DICT|INTERRES
    51   24  149 1    
    52   25   26 2    
    53   25   27 1    
    54   27   28 1    
    55   27   29 1    
    56   27  150 1    
    57   28  151 1    
    58   28  152 1    
    59   28  153 1    
    60   29   30 am   BACKBONE|DICT|INTERRES
    61   29  154 1    
    62   30   31 2    
    63   30   32 1    
    64   32   33 1    
    65   32   34 1    
    66   32  155 1    
    67   33  156 1    
    68   33  157 1    
    69   33  158 1    
    70   34   35 am   BACKBONE|DICT|INTERRES
    71   34  159 1    
    72   35   36 2    
    73   35   37 1    
    74   37   38 1    
    75   37   39 1    
    76   37  160 1    
    77   38  161 1    
    78   38  162 1    
    79   38  163 1    
    80   39   40 am   BACKBONE|DICT|INTERRES
    81   39  164 1    
    82   40   41 2    
    83   40   42 1    
    84   42   43 1    
    85   42   44 1    
    86   42  165 1    
    87   43  166 1    
    88   43  167 1    
    89   43  168 1    
    90   44   45 am   BACKBONE|DICT|INTERRES
    91   44  169 1    
    92   45   46 2    
    93   45   47 1    
    94   47   48 1    
    95   47   49 1    
    96   47  170 1    
    97   48  171 1    
    98   48  172 1    
    99   48  173 1    
   100   49   50 am   BACKBONE|DICT|INTERRES
   101   49  174 1    
   102   50   51 2    
   103   50   52 1    
   104   52   53 1    
   105   52   54 1    
   106   52  175 1    
   107   53  176 1    
   108   53  177 1    
   109   53  178 1    
   110   54   55 am   BACKBONE|DICT|INTERRES
   111   54  179 1    
   112   55   56 2    
   113   55   57 1    
   114   57   58 1    
   115   57   59 1    
   116   57  180 1    
   117   58  181 1    
   118   58  182 1    
   119   58  183 1    
   120   59   60 am   BACKBONE|DICT|INTERRES
   121   59  184 1    
   122   60   61 2    
   123   60   62 1    
   124   62   63 1    
   125   62   64 1    
   126   62  185 1    
   127   63  186 1    
   128   63  187 1    
   129   63  188 1    
   130   64   65 am   BACKBONE|DICT|INTERRES
   131   64  189 1    
   132   65   66 2    
   133   67   68 2    
   134   67   69 am   BACKBONE|DICT|INTERRES
   135   69   70 1    
   136   69  190 1    
   137   70   71 1    
   138   70   72 1    
   139   70  191 1    
   140   71  192 1    
   141   71  193 1    
   142   71  194 1    
   143   72   73 2    
   144   72   74 am   BACKBONE|DICT|INTERRES
   145   74   75 1    
   146   74  195 1    
   147   75   76 1    
   148   75   77 1    
   149   75  196 1    
   150   76  197 1    
   151   76  198 1    
   152   76  199 1    
   153   77   78 2    
   154   77   79 am   BACKBONE|DICT|INTERRES
   155   79   80 1    
   156   79  200 1    
   157   80   81 1    
   158   80   82 1    
   159   80  201 1    
   160   81  202 1    
   161   81  203 1    
   162   81  204 1    
   163   82   83 2    
   164   82   84 am   BACKBONE|DICT|INTERRES
   165   84   85 1    
   166   84  205 1    
   167   85   86 1    
   168   85   87 1    
   169   85  206 1    
   170   86  207 1    
   171   86  208 1    
   172   86  209 1    
   173   87   88 2    
   174   87   89 am   BACKBONE|DICT|INTERRES
   175   89   90 1    
   176   89  210 1    
   177   90   91 1    
   178   90   92 1    
   179   90  211 1    
   180   91  212 1    
   181   91  213 1    
   182   91  214 1    
   183   92   93 2    
   184   92   94 am   BACKBONE|DICT|INTERRES
   185   94   95 1    
   186   94  215 1    
   187   95   96 1    
   188   95   97 1    
   189   95  216 1    
   190   96  217 1    
   191   96  218 1    
   192   96  219 1    
   193   97   98 2    
   194   97   99 am   BACKBONE|DICT|INTERRES
   195   99  100 1    
   196   99  220 1    
   197  100  101 1    
   198  100  102 1    
   199  100  221 1    
   200  101  222 1    
   201  101  223 1    
   202  101  224 1    
   203  102  103 2    
   204  102  104 am   BACKBONE|DICT|INTERRES
   205  104  105 1    
   206  104  225 1    
   207  105  106 1    
   208  105  107 1    
   209  105  226 1    
   210  106  227 1    
   211  106  228 1    
   212  106  229 1    
   213  107  108 2    
   214  107  109 am   BACKBONE|DICT|INTERRES
   215  109  110 1    
   216  109  230 1    
   217  110  111 1    
   218  110  112 1    
   219  110  231 1    
   220  111  232 1    
   221  111  233 1    
   222  111  234 1    
   223  112  113 2    
   224  112  114 am   BACKBONE|DICT|INTERRES
   225  114  115 1    
   226  114  235 1    
   227  115  116 1    
   228  115  117 1    
   229  115  236 1    
   230  116  237 1    
   231  116  238 1    
   232  116  239 1    
   233  117  118 2    
   234  117  119 am   BACKBONE|DICT|INTERRES
   235  119  120 1    
   236  119  240 1    
   237  120  121 1    
   238  120  124 1    
   239  120  241 1    
   240  121  122 am   BACKBONE|DICT|INTERRES
   241  121  123 2    
   242  122  242 1    
   243  122  243 1    
   244  124  125 1    
   245  124  244 1    
   246  124  245 1    
   247  125  126 1    
   248  126  246 1    
   249  126  247 1    
@<TRIPOS>SUBSTRUCTURE
     1 UNK         1 GROUP             0       ****    0 ROOT    
