@<TRIPOS>MOLECULE
3R540
247   249    1
SMALL
USER_CHARGES


@<TRIPOS>ATOM
      1 CA          0.4819  -11.4089  -46.6371 C.3       0 UNK        -0.1800 
      2 C           0.4452  -12.8953  -46.9608 C.2       0 UNK         0.5000 
      3 O           0.8413  -13.2910  -48.0560 O.2       0 UNK        -0.5000 
      4 N          -0.0350  -13.7139  -46.0190 N.am      1 UNK        -0.5000 
      5 CA         -0.1316  -15.1695  -46.1241 C.3       1 UNK         0.1400 
      6 C6         -1.2216  -15.6361  -47.1359 C.3       23 UNK        -0.0398 
      7 S7         -0.7256  -17.1446  -48.0325 S.3       23 UNK        -0.2404 
      8 C8          0.1861  -16.3974  -49.4283 C.3       23 UNK        -0.0205 
      9 C9          0.7252  -17.4275  -50.4128 C.ar      23 UNK        -0.0193 
     10 C10         0.4656  -17.3076  -51.7814 C.ar      23 UNK        -0.1150 
     11 C11         0.9930  -18.2295  -52.6930 C.ar      23 UNK        -0.0193 
     12 C12         1.7634  -19.2988  -52.2188 C.ar      23 UNK        -0.1150 
     13 C13         2.0135  -19.4411  -50.8508 C.ar      23 UNK        -0.0193 
     14 C14         1.5172  -18.4841  -49.9621 C.ar      23 UNK        -0.1150 
     15 C15         2.8074  -20.6287  -50.3161 C.3       23 UNK        -0.0205 
     16 S16         1.8837  -22.2020  -50.3729 S.3       23 UNK        -0.2404 
     17 C17         0.2587  -21.7350  -49.6939 C.3       23 UNK        -0.0398 
     18 CA         -0.2726  -22.6706  -48.5909 C.3       11 UNK         0.1400 
     19 N           0.5464  -22.6656  -47.3739 N.am      11 UNK        -0.5000 
     20 C           0.3966  -23.5600  -46.3849 C.2       10 UNK         0.5000 
     21 O          -0.4312  -24.4704  -46.4129 O.2       10 UNK        -0.5000 
     22 CA          1.2791  -23.3913  -45.1340 C.3       10 UNK         0.1400 
     23 CB          2.6442  -24.0616  -45.3476 C.3       10 UNK        -0.1800 
     24 N           1.4857  -22.0002  -44.7302 N.am      10 UNK        -0.5000 
     25 C           0.5224  -21.1082  -44.4601 C.2       9 UNK         0.5000 
     26 O          -0.6807  -21.3602  -44.5242 O.2       9 UNK        -0.5000 
     27 CA          0.9693  -19.6872  -44.0658 C.3       9 UNK         0.1400 
     28 CB          0.9750  -19.5555  -42.5348 C.3       9 UNK        -0.1800 
     29 N           2.2832  -19.2710  -44.5630 N.am      9 UNK        -0.5000 
     30 C           2.7261  -19.3006  -45.8254 C.2       8 UNK         0.5000 
     31 O           2.0810  -19.7601  -46.7691 O.2       8 UNK        -0.5000 
     32 CA          4.1403  -18.7237  -46.0441 C.3       8 UNK         0.1400 
     33 CB          4.7803  -19.2063  -47.3559 C.3       8 UNK        -0.1800 
     34 N           4.1655  -17.2609  -46.0317 N.am      8 UNK        -0.5000 
     35 C           3.9778  -16.4672  -44.9696 C.2       7 UNK         0.5000 
     36 O           3.7161  -16.8878  -43.8400 O.2       7 UNK        -0.5000 
     37 CA          4.1600  -14.9566  -45.1995 C.3       7 UNK         0.1400 
     38 CB          3.8729  -14.4946  -46.6442 C.3       7 UNK        -0.1800 
     39 N           3.3499  -14.2038  -44.2452 N.am      7 UNK        -0.5000 
     40 C           3.6873  -13.0098  -43.7441 C.2       6 UNK         0.5000 
     41 O           4.6779  -12.3745  -44.1096 O.2       6 UNK        -0.5000 
     42 CA          2.7903  -12.4140  -42.6420 C.3       6 UNK         0.1400 
     43 CB          1.8307  -11.3684  -43.2258 C.3       6 UNK        -0.1800 
     44 N           2.0123  -13.3990  -41.8920 N.am      6 UNK        -0.5000 
     45 C           2.5224  -14.3133  -41.0542 C.2       5 UNK         0.5000 
     46 O           3.7310  -14.4637  -40.8648 O.2       5 UNK        -0.5000 
     47 CA          1.4974  -15.1661  -40.2706 C.3       5 UNK         0.1400 
     48 CB          2.1174  -15.9098  -39.0706 C.3       5 UNK        -0.1800 
     49 N           0.3220  -14.3948  -39.8459 N.am      5 UNK        -0.5000 
     50 C           0.3050  -13.2522  -39.1377 C.2       4 UNK         0.5000 
     51 O           1.3047  -12.7644  -38.6076 O.2       4 UNK        -0.5000 
     52 CA         -1.0517  -12.5170  -39.0134 C.3       4 UNK         0.1400 
     53 CB         -0.8850  -10.9832  -39.0476 C.3       4 UNK        -0.1800 
     54 N          -2.0628  -12.9417  -39.9926 N.am      4 UNK        -0.5000 
     55 C          -1.9826  -12.8770  -41.3300 C.2       3 UNK         0.5000 
     56 O          -1.0241  -12.4134  -41.9508 O.2       3 UNK        -0.5000 
     57 CA         -3.1334  -13.5445  -42.1052 C.3       3 UNK         0.1400 
     58 CB         -3.6998  -12.6015  -43.1789 C.3       3 UNK        -0.1800 
     59 N          -2.6858  -14.7817  -42.7467 N.am      3 UNK        -0.5000 
     60 C          -2.1234  -15.8308  -42.1272 C.2       2 UNK         0.5000 
     61 O          -1.9941  -15.9170  -40.9056 O.2       2 UNK        -0.5000 
     62 CA         -1.5810  -16.9655  -43.0157 C.3       2 UNK         0.1400 
     63 CB         -2.5647  -18.1448  -43.0425 C.3       2 UNK        -0.1800 
     64 N          -1.2578  -16.5393  -44.3839 N.am      2 UNK        -0.5000 
     65 C          -0.2462  -15.7105  -44.6853 C.2       1 UNK         0.5000 
     66 O           0.5741  -15.3252  -43.8491 O.2       1 UNK        -0.5000 
     67 C          -1.7349  -22.2923  -48.2933 C.2       11 UNK         0.5000 
     68 O          -2.6392  -22.8654  -48.8966 O.2       11 UNK        -0.5000 
     69 N          -1.9528  -21.3287  -47.3902 N.am      12 UNK        -0.5000 
     70 CA         -3.2873  -20.8901  -46.9833 C.3       12 UNK         0.1400 
     71 CB         -3.2027  -19.5075  -46.3271 C.3       12 UNK        -0.1800 
     72 C          -3.9777  -21.9199  -46.0752 C.2       12 UNK         0.5000 
     73 O          -5.1746  -22.1547  -46.2364 O.2       12 UNK        -0.5000 
     74 N          -3.2035  -22.5680  -45.1935 N.am      13 UNK        -0.5000 
     75 CA         -3.6444  -23.6862  -44.3558 C.3       13 UNK         0.1400 
     76 CB         -2.5284  -24.0498  -43.3653 C.3       13 UNK        -0.1800 
     77 C          -4.0697  -24.9183  -45.1805 C.2       13 UNK         0.5000 
     78 O          -5.0499  -25.5765  -44.8316 O.2       13 UNK        -0.5000 
     79 N          -3.3528  -25.1785  -46.2826 N.am      14 UNK        -0.5000 
     80 CA         -3.6687  -26.2146  -47.2690 C.3       14 UNK         0.1400 
     81 CB         -2.3900  -26.5412  -48.0579 C.3       14 UNK        -0.1800 
     82 C          -4.8041  -25.8223  -48.2396 C.2       14 UNK         0.5000 
     83 O          -5.2437  -26.6716  -49.0149 O.2       14 UNK        -0.5000 
     84 N          -5.2266  -24.5482  -48.2121 N.am      15 UNK        -0.5000 
     85 CA         -6.1882  -23.8871  -49.1053 C.3       15 UNK         0.1400 
     86 CB         -7.5787  -24.5491  -49.0327 C.3       15 UNK        -0.1800 
     87 C          -5.6888  -23.7233  -50.5582 C.2       15 UNK         0.5000 
     88 O          -6.4623  -23.3309  -51.4319 O.2       15 UNK        -0.5000 
     89 N          -4.3930  -23.9582  -50.7915 N.am      16 UNK        -0.5000 
     90 CA         -3.7199  -23.7929  -52.0754 C.3       16 UNK         0.1400 
     91 CB         -2.3512  -24.4863  -52.0230 C.3       16 UNK        -0.1800 
     92 C          -3.5625  -22.3154  -52.4687 C.2       16 UNK         0.5000 
     93 O          -3.6388  -22.0107  -53.6568 O.2       16 UNK        -0.5000 
     94 N          -3.3624  -21.4368  -51.4748 N.am      17 UNK        -0.5000 
     95 CA         -3.3150  -19.9804  -51.6572 C.3       17 UNK         0.1400 
     96 CB         -2.3520  -19.3558  -50.6366 C.3       17 UNK        -0.1800 
     97 C          -4.7038  -19.3191  -51.5618 C.2       17 UNK         0.5000 
     98 O          -4.8397  -18.1545  -51.9390 O.2       17 UNK        -0.5000 
     99 N          -5.7107  -20.0554  -51.0655 N.am      18 UNK        -0.5000 
    100 CA        -7.1204  -19.6627  -51.1532 C.3       18 UNK         0.1400 
    101 CB        -7.9476  -20.4302  -50.1099 C.3       18 UNK        -0.1800 
    102 C         -7.6505  -19.8978  -52.5807 C.2       18 UNK         0.5000 
    103 O         -8.3706  -19.0552  -53.1180 O.2       18 UNK        -0.5000 
    104 N         -7.2281  -21.0181  -53.1818 N.am      19 UNK        -0.5000 
    105 CA        -7.2974  -21.2950  -54.6135 C.3       19 UNK         0.1400 
    106 CB        -7.1397  -22.8147  -54.8079 C.3       19 UNK        -0.1800 
    107 C         -6.2122  -20.5166  -55.3934 C.2       19 UNK         0.5000 
    108 O         -5.4354  -19.7574  -54.8120 O.2       19 UNK        -0.5000 
    109 N         -6.1579  -20.7384  -56.7112 N.am      20 UNK        -0.5000 
    110 CA        -5.1287  -20.1894  -57.6008 C.3       20 UNK         0.1400 
    111 CB        -5.7602  -19.9660  -58.9858 C.3       20 UNK        -0.1800 
    112 C         -3.8786  -21.0930  -57.7069 C.2       20 UNK         0.5000 
    113 O         -2.9735  -20.7749  -58.4796 O.2       20 UNK        -0.5000 
    114 N         -3.8672  -22.2220  -56.9834 N.am      21 UNK        -0.5000 
    115 CA        -2.8582  -23.2760  -57.0744 C.3       21 UNK         0.1400 
    116 CB        -3.3556  -24.5210  -56.3211 C.3       21 UNK        -0.1800 
    117 C         -1.4660  -22.8498  -56.5761 C.2       21 UNK         0.5000 
    118 O         -0.4880  -23.0255  -57.3038 O.2       21 UNK        -0.5000 
    119 N         -1.4027  -22.3202  -55.3461 N.am      22 UNK        -0.5000 
    120 CA        -0.1765  -21.8879  -54.6441 C.3       22 UNK         0.1400 
    121 C          0.8814  -23.0110  -54.3878 C.2       22 UNK         0.5000 
    122 N          0.5332  -24.2888  -54.4787 N.am      22 UNK        -0.7600 
    123 O          2.0332  -22.7277  -54.0715 O.2       22 UNK        -0.5000 
    124 C124        0.4374  -20.6112  -55.2851 C.3       23 UNK        -0.0398 
    125 S125       -0.5262  -19.1168  -54.8717 S.3       23 UNK        -0.2404 
    126 C126        0.7664  -18.0279  -54.1871 C.3       23 UNK        -0.0205 
    127 H127        1.4995  -11.1038  -46.3934 H         1 UNK         0.0600 
    128 H128       -0.1659  -11.1631  -45.7954 H         1 UNK         0.0600 
    129 H129        0.1474  -10.8279  -47.4966 H         1 UNK         0.0600 
    130 H130       -0.2961  -13.3409  -45.1161 H         1 UNK         0.3000 
    131 H131        0.8375  -15.5217  -46.4774 H         1 UNK         0.0600 
    132 H132       -2.1961  -15.7869  -46.6713 H         1 UNK         0.0800 
    133 H133       -1.4042  -14.8646  -47.8845 H         1 UNK         0.0800 
    134 H134       -0.4680  -15.6901  -49.9404 H         1 UNK         0.0800 
    135 H135        1.0257  -15.8198  -49.0400 H         1 UNK         0.0800 
    136 H136       -0.1311  -16.4814  -52.1417 H         1 UNK         0.1150 
    137 H137        2.1715  -20.0255  -52.9051 H         1 UNK         0.1150 
    138 H138        1.7217  -18.5730  -48.9065 H         1 UNK         0.1150 
    139 H139        3.7323  -20.7354  -50.8842 H         1 UNK         0.0800 
    140 H140        3.0995  -20.4559  -49.2818 H         1 UNK         0.0800 
    141 H141       -0.4239  -21.7256  -50.5454 H         1 UNK         0.0800 
    142 H142        0.2863  -20.7185  -49.3047 H         1 UNK         0.0800 
    143 H143       -0.2773  -23.6884  -48.9877 H         1 UNK         0.0600 
    144 H144        1.2244  -21.9202  -47.2739 H         1 UNK         0.3000 
    145 H145        0.7763  -23.8976  -44.3079 H         1 UNK         0.0600 
    146 H146        3.2420  -24.0402  -44.4362 H         1 UNK         0.0600 
    147 H147        2.5255  -25.1081  -45.6319 H         1 UNK         0.0600 
    148 H148        3.2150  -23.5696  -46.1364 H         1 UNK         0.0600 
    149 H149        2.4430  -21.6904  -44.6583 H         1 UNK         0.3000 
    150 H150        0.2371  -18.9920  -44.4784 H         1 UNK         0.0600 
    151 H151        1.6771  -20.2537  -42.0772 H         1 UNK         0.0600 
    152 H152       -0.0110  -19.7636  -42.1171 H         1 UNK         0.0600 
    153 H153        1.2607  -18.5510  -42.2220 H         1 UNK         0.0600 
    154 H154        2.8695  -18.7830  -43.8949 H         1 UNK         0.3000 
    155 H155        4.7667  -19.0832  -45.2250 H         1 UNK         0.0600 
    156 H156        4.2798  -18.7808  -48.2259 H         1 UNK         0.0600 
    157 H157        4.7370  -20.2931  -47.4399 H         1 UNK         0.0600 
    158 H158        5.8312  -18.9212  -47.4069 H         1 UNK         0.0600 
    159 H159        4.3582  -16.8218  -46.9198 H         1 UNK         0.3000 
    160 H160        5.2128  -14.7585  -44.9878 H         1 UNK         0.0600 
    161 H161        2.8940  -14.8198  -46.9897 H         1 UNK         0.0600 
    162 H162        4.6146  -14.8875  -47.3400 H         1 UNK         0.0600 
    163 H163        3.9081  -13.4084  -46.7295 H         1 UNK         0.0600 
    164 H164        2.5342  -14.6843  -43.8757 H         1 UNK         0.3000 
    165 H165        3.4497  -11.9062  -41.9352 H         1 UNK         0.0600 
    166 H166        1.3166  -10.8228  -42.4342 H         1 UNK         0.0600 
    167 H167        2.3613  -10.6356  -43.8351 H         1 UNK         0.0600 
    168 H168        1.0722  -11.8371  -43.8510 H         1 UNK         0.0600 
    169 H169        1.0050  -13.3343  -41.9823 H         1 UNK         0.3000 
    170 H170        1.1332  -15.9174  -40.9730 H         1 UNK         0.0600 
    171 H171        2.9162  -16.5777  -39.3949 H         1 UNK         0.0600 
    172 H172        2.5426  -15.2184  -38.3425 H         1 UNK         0.0600 
    173 H173        1.3732  -16.5203  -38.5592 H         1 UNK         0.0600 
    174 H174       -0.5653  -14.7358  -40.2028 H         1 UNK         0.3000 
    175 H175       -1.4478  -12.7847  -38.0329 H         1 UNK         0.0600 
    176 H176       -0.2600  -10.6368  -38.2238 H         1 UNK         0.0600 
    177 H177       -0.4179  -10.6480  -39.9743 H         1 UNK         0.0600 
    178 H178       -1.8470  -10.4793  -38.9552 H         1 UNK         0.0600 
    179 H179       -2.8699  -13.4017  -39.5940 H         1 UNK         0.3000 
    180 H180       -3.9377  -13.7947  -41.4105 H         1 UNK         0.0600 
    181 H181       -2.9524  -12.3510  -43.9331 H         1 UNK         0.0600 
    182 H182       -4.0424  -11.6664  -42.7339 H         1 UNK         0.0600 
    183 H183       -4.5530  -13.0499  -43.6881 H         1 UNK         0.0600 
    184 H184       -2.7435  -14.8041  -43.7527 H         1 UNK         0.3000 
    185 H185       -0.6616  -17.3049  -42.5397 H         1 UNK         0.0600 
    186 H186       -2.9076  -18.3942  -42.0373 H         1 UNK         0.0600 
    187 H187       -3.4476  -17.9240  -43.6430 H         1 UNK         0.0600 
    188 H188       -2.0922  -19.0420  -43.4383 H         1 UNK         0.0600 
    189 H189       -1.8859  -16.8419  -45.1136 H         1 UNK         0.3000 
    190 H190       -1.1675  -20.9279  -46.8971 H         1 UNK         0.3000 
    191 H191       -3.9104  -20.7897  -47.8749 H         1 UNK         0.0600 
    192 H192       -3.0227  -18.7370  -47.0756 H         1 UNK         0.0600 
    193 H193       -4.1304  -19.2489  -45.8150 H         1 UNK         0.0600 
    194 H194       -2.3920  -19.4623  -45.6035 H         1 UNK         0.0600 
    195 H195       -2.2377  -22.2686  -45.0839 H         1 UNK         0.3000 
    196 H196       -4.5128  -23.3518  -43.7845 H         1 UNK         0.0600 
    197 H197       -2.8470  -24.8481  -42.6940 H         1 UNK         0.0600 
    198 H198       -2.2541  -23.1940  -42.7481 H         1 UNK         0.0600 
    199 H199       -1.6305  -24.3921  -43.8798 H         1 UNK         0.0600 
    200 H200       -2.5126  -24.6367  -46.4541 H         1 UNK         0.3000 
    201 H201       -3.9855  -27.1169  -46.7419 H         1 UNK         0.0600 
    202 H202       -2.5651  -27.3375  -48.7824 H         1 UNK         0.0600 
    203 H203       -1.5931  -26.8779  -47.3945 H         1 UNK         0.0600 
    204 H204       -2.0235  -25.6727  -48.6065 H         1 UNK         0.0600 
    205 H205       -4.8040  -23.9379  -47.5244 H         1 UNK         0.3000 
    206 H206       -6.2941  -22.8732  -48.7176 H         1 UNK         0.0600 
    207 H207       -7.9152  -24.6462  -48.0005 H         1 UNK         0.0600 
    208 H208       -8.3236  -23.9527  -49.5605 H         1 UNK         0.0600 
    209 H209       -7.5822  -25.5416  -49.4835 H         1 UNK         0.0600 
    210 H210       -3.7988  -24.1465  -49.9930 H         1 UNK         0.3000 
    211 H211       -4.3246  -24.2827  -52.8414 H         1 UNK         0.0600 
    212 H212       -1.6903  -24.0279  -51.2866 H         1 UNK         0.0600 
    213 H213       -1.8539  -24.4310  -52.9906 H         1 UNK         0.0600 
    214 H214       -2.4531  -25.5419  -51.7705 H         1 UNK         0.0600 
    215 H215       -3.2772  -21.7948  -50.5302 H         1 UNK         0.3000 
    216 H216       -2.9282  -19.7541  -52.6537 H         1 UNK         0.0600 
    217 H217       -2.3700  -18.2665  -50.6938 H         1 UNK         0.0600 
    218 H218       -1.3254  -19.6552  -50.8353 H         1 UNK         0.0600 
    219 H219       -2.6026  -19.6290  -49.6132 H         1 UNK         0.0600 
    220 H220       -5.5171  -21.0061  -50.7949 H         1 UNK         0.3000 
    221 H221       -7.2054  -18.5971  -50.9295 H         1 UNK         0.0600 
    222 H222       -7.9786  -21.4991  -50.3160 H         1 UNK         0.0600 
    223 H223       -7.5464  -20.2915  -49.1058 H         1 UNK         0.0600 
    224 H224       -8.9784  -20.0742  -50.1001 H         1 UNK         0.0600 
    225 H225       -6.6876  -21.6788  -52.6367 H         1 UNK         0.3000 
    226 H226       -8.2756  -20.9879  -54.9887 H         1 UNK         0.0600 
    227 H227       -7.2823  -23.1058  -55.8488 H         1 UNK         0.0600 
    228 H228       -6.1514  -23.1588  -54.4998 H         1 UNK         0.0600 
    229 H229       -7.8767  -23.3633  -54.2206 H         1 UNK         0.0600 
    230 H230       -6.8257  -21.3665  -57.1353 H         1 UNK         0.3000 
    231 H231       -4.7944  -19.2199  -57.2255 H         1 UNK         0.0600 
    232 H232       -6.0868  -20.9044  -59.4354 H         1 UNK         0.0600 
    233 H233       -5.0508  -19.5022  -59.6724 H         1 UNK         0.0600 
    234 H234       -6.6246  -19.3047  -58.9226 H         1 UNK         0.0600 
    235 H235       -4.6240  -22.3751  -56.3350 H         1 UNK         0.3000 
    236 H236       -2.7589  -23.5447  -58.1284 H         1 UNK         0.0600 
    237 H237       -4.2874  -24.8924  -56.7478 H         1 UNK         0.0600 
    238 H238       -2.6276  -25.3311  -56.3803 H         1 UNK         0.0600 
    239 H239       -3.5321  -24.3138  -55.2656 H         1 UNK         0.0600 
    240 H240       -2.2714  -22.1867  -54.8314 H         1 UNK         0.3000 
    241 H241       -0.5011  -21.6225  -53.6369 H         1 UNK         0.0600 
    242 H242       -0.3966  -24.5518  -54.7575 H         1 UNK         0.3800 
    243 H243        1.2254  -24.9995  -54.3021 H         1 UNK         0.3800 
    244 H244        1.4684  -20.4576  -54.9709 H         1 UNK         0.0800 
    245 H245        0.4876  -20.7041  -56.3702 H         1 UNK         0.0800 
    246 H246        0.4698  -16.9955  -54.3779 H         1 UNK         0.0800 
    247 H247        1.7038  -18.1647  -54.7280 H         1 UNK         0.0800 
@<TRIPOS>BOND
     1    1    2 1    
     2    1  127 1    
     3    1  128 1    
     4    1  129 1    
     5    2    3 2    
     6    2    4 am   BACKBONE|DICT|INTERRES
     7    4    5 1    
     8    4  130 1    
     9    5    6 1    
    10    5   65 1    
    11    5  131 1    
    12    6    7 1    
    13    6  132 1    
    14    6  133 1    
    15    7    8 1    
    16    8    9 1    
    17    8  134 1    
    18    8  135 1    
    19    9   10 ar   
    20    9   14 ar   
    21   10   11 ar   
    22   10  136 1    
    23   11   12 ar   
    24   11  126 1    
    25   12   13 ar   
    26   12  137 1    
    27   13   14 ar   
    28   13   15 1    
    29   14  138 1    
    30   15   16 1    
    31   15  139 1    
    32   15  140 1    
    33   16   17 1    
    34   17   18 1    
    35   17  141 1    
    36   17  142 1    
    37   18   19 1    
    38   18   67 1    
    39   18  143 1    
    40   19   20 am   BACKBONE|DICT|INTERRES
    41   19  144 1    
    42   20   21 2    
    43   20   22 1    
    44   22   23 1    
    45   22   24 1    
    46   22  145 1    
    47   23  146 1    
    48   23  147 1    
    49   23  148 1    
    50   24   25 am   BACKBONE|DICT|INTERRES
    51   24  149 1    
    52   25   26 2    
    53   25   27 1    
    54   27   28 1    
    55   27   29 1    
    56   27  150 1    
    57   28  151 1    
    58   28  152 1    
    59   28  153 1    
    60   29   30 am   BACKBONE|DICT|INTERRES
    61   29  154 1    
    62   30   31 2    
    63   30   32 1    
    64   32   33 1    
    65   32   34 1    
    66   32  155 1    
    67   33  156 1    
    68   33  157 1    
    69   33  158 1    
    70   34   35 am   BACKBONE|DICT|INTERRES
    71   34  159 1    
    72   35   36 2    
    73   35   37 1    
    74   37   38 1    
    75   37   39 1    
    76   37  160 1    
    77   38  161 1    
    78   38  162 1    
    79   38  163 1    
    80   39   40 am   BACKBONE|DICT|INTERRES
    81   39  164 1    
    82   40   41 2    
    83   40   42 1    
    84   42   43 1    
    85   42   44 1    
    86   42  165 1    
    87   43  166 1    
    88   43  167 1    
    89   43  168 1    
    90   44   45 am   BACKBONE|DICT|INTERRES
    91   44  169 1    
    92   45   46 2    
    93   45   47 1    
    94   47   48 1    
    95   47   49 1    
    96   47  170 1    
    97   48  171 1    
    98   48  172 1    
    99   48  173 1    
   100   49   50 am   BACKBONE|DICT|INTERRES
   101   49  174 1    
   102   50   51 2    
   103   50   52 1    
   104   52   53 1    
   105   52   54 1    
   106   52  175 1    
   107   53  176 1    
   108   53  177 1    
   109   53  178 1    
   110   54   55 am   BACKBONE|DICT|INTERRES
   111   54  179 1    
   112   55   56 2    
   113   55   57 1    
   114   57   58 1    
   115   57   59 1    
   116   57  180 1    
   117   58  181 1    
   118   58  182 1    
   119   58  183 1    
   120   59   60 am   BACKBONE|DICT|INTERRES
   121   59  184 1    
   122   60   61 2    
   123   60   62 1    
   124   62   63 1    
   125   62   64 1    
   126   62  185 1    
   127   63  186 1    
   128   63  187 1    
   129   63  188 1    
   130   64   65 am   BACKBONE|DICT|INTERRES
   131   64  189 1    
   132   65   66 2    
   133   67   68 2    
   134   67   69 am   BACKBONE|DICT|INTERRES
   135   69   70 1    
   136   69  190 1    
   137   70   71 1    
   138   70   72 1    
   139   70  191 1    
   140   71  192 1    
   141   71  193 1    
   142   71  194 1    
   143   72   73 2    
   144   72   74 am   BACKBONE|DICT|INTERRES
   145   74   75 1    
   146   74  195 1    
   147   75   76 1    
   148   75   77 1    
   149   75  196 1    
   150   76  197 1    
   151   76  198 1    
   152   76  199 1    
   153   77   78 2    
   154   77   79 am   BACKBONE|DICT|INTERRES
   155   79   80 1    
   156   79  200 1    
   157   80   81 1    
   158   80   82 1    
   159   80  201 1    
   160   81  202 1    
   161   81  203 1    
   162   81  204 1    
   163   82   83 2    
   164   82   84 am   BACKBONE|DICT|INTERRES
   165   84   85 1    
   166   84  205 1    
   167   85   86 1    
   168   85   87 1    
   169   85  206 1    
   170   86  207 1    
   171   86  208 1    
   172   86  209 1    
   173   87   88 2    
   174   87   89 am   BACKBONE|DICT|INTERRES
   175   89   90 1    
   176   89  210 1    
   177   90   91 1    
   178   90   92 1    
   179   90  211 1    
   180   91  212 1    
   181   91  213 1    
   182   91  214 1    
   183   92   93 2    
   184   92   94 am   BACKBONE|DICT|INTERRES
   185   94   95 1    
   186   94  215 1    
   187   95   96 1    
   188   95   97 1    
   189   95  216 1    
   190   96  217 1    
   191   96  218 1    
   192   96  219 1    
   193   97   98 2    
   194   97   99 am   BACKBONE|DICT|INTERRES
   195   99  100 1    
   196   99  220 1    
   197  100  101 1    
   198  100  102 1    
   199  100  221 1    
   200  101  222 1    
   201  101  223 1    
   202  101  224 1    
   203  102  103 2    
   204  102  104 am   BACKBONE|DICT|INTERRES
   205  104  105 1    
   206  104  225 1    
   207  105  106 1    
   208  105  107 1    
   209  105  226 1    
   210  106  227 1    
   211  106  228 1    
   212  106  229 1    
   213  107  108 2    
   214  107  109 am   BACKBONE|DICT|INTERRES
   215  109  110 1    
   216  109  230 1    
   217  110  111 1    
   218  110  112 1    
   219  110  231 1    
   220  111  232 1    
   221  111  233 1    
   222  111  234 1    
   223  112  113 2    
   224  112  114 am   BACKBONE|DICT|INTERRES
   225  114  115 1    
   226  114  235 1    
   227  115  116 1    
   228  115  117 1    
   229  115  236 1    
   230  116  237 1    
   231  116  238 1    
   232  116  239 1    
   233  117  118 2    
   234  117  119 am   BACKBONE|DICT|INTERRES
   235  119  120 1    
   236  119  240 1    
   237  120  121 1    
   238  120  124 1    
   239  120  241 1    
   240  121  122 am   BACKBONE|DICT|INTERRES
   241  121  123 2    
   242  122  242 1    
   243  122  243 1    
   244  124  125 1    
   245  124  244 1    
   246  124  245 1    
   247  125  126 1    
   248  126  246 1    
   249  126  247 1    
@<TRIPOS>SUBSTRUCTURE
     1 UNK         1 GROUP             0       ****    0 ROOT    
