@<TRIPOS>MOLECULE
3R540
247   249    1
SMALL
USER_CHARGES


@<TRIPOS>ATOM
      1 CA          0.9919  -16.0655  -47.5069 C.3       0 UNK        -0.1800 
      2 C           0.0067  -15.2448  -46.6934 C.2       0 UNK         0.5000 
      3 O           0.4050  -14.2689  -46.0573 O.2       0 UNK        -0.5000 
      4 N          -1.2772  -15.6306  -46.7081 N.am      1 UNK        -0.5000 
      5 CA         -2.3547  -14.9857  -45.9402 C.3       1 UNK         0.1400 
      6 C6         -3.6964  -15.7617  -45.9847 C.3       23 UNK        -0.0398 
      7 S7         -3.5427  -17.5316  -45.5627 S.3       23 UNK        -0.2404 
      8 C8         -4.0250  -18.3330  -47.1264 C.3       23 UNK        -0.0205 
      9 C9         -3.0070  -18.0802  -48.2266 C.ar      23 UNK        -0.0193 
     10 C10        -3.2416  -17.1088  -49.2025 C.ar      23 UNK        -0.1150 
     11 C11        -2.2938  -16.8625  -50.1983 C.ar      23 UNK        -0.0193 
     12 C12        -1.1102  -17.6056  -50.2186 C.ar      23 UNK        -0.1150 
     13 C13        -0.8633  -18.5882  -49.2538 C.ar      23 UNK        -0.0193 
     14 C14        -1.8208  -18.8151  -48.2582 C.ar      23 UNK        -0.1150 
     15 C15         0.4595  -19.3507  -49.2858 C.3       23 UNK        -0.0205 
     16 S16         0.2930  -21.1405  -48.9990 S.3       23 UNK        -0.2404 
     17 C17         0.6055  -21.2547  -47.2068 C.3       23 UNK        -0.0398 
     18 CA          0.1968  -22.6156  -46.5994 C.3       11 UNK         0.1400 
     19 N           0.7189  -22.7500  -45.2412 N.am      11 UNK        -0.5000 
     20 C           0.7127  -23.8749  -44.5164 C.2       10 UNK         0.5000 
     21 O           0.2863  -24.9540  -44.9259 O.2       10 UNK        -0.5000 
     22 CA          1.2303  -23.7539  -43.0735 C.3       10 UNK         0.1400 
     23 CB          2.7661  -23.7645  -43.0383 C.3       10 UNK        -0.1800 
     24 N           0.7338  -22.5443  -42.4165 N.am      10 UNK        -0.5000 
     25 C          -0.5464  -22.3422  -42.0755 C.2       9 UNK         0.5000 
     26 O          -1.4410  -23.1675  -42.2553 O.2       9 UNK        -0.5000 
     27 CA         -0.8898  -20.9714  -41.4664 C.3       9 UNK         0.1400 
     28 CB         -0.5338  -20.9342  -39.9727 C.3       9 UNK        -0.1800 
     29 N          -0.2275  -19.8608  -42.1519 N.am      9 UNK        -0.5000 
     30 C          -0.4601  -19.5127  -43.4250 C.2       8 UNK         0.5000 
     31 O          -1.2335  -20.1086  -44.1707 O.2       8 UNK        -0.5000 
     32 CA          0.3466  -18.3258  -43.9734 C.3       8 UNK         0.1400 
     33 CB         -0.2602  -17.0083  -43.4722 C.3       8 UNK        -0.1800 
     34 N           1.7733  -18.3729  -43.6372 N.am      8 UNK        -0.5000 
     35 C           2.6009  -19.3986  -43.9000 C.2       7 UNK         0.5000 
     36 O           2.2291  -20.4522  -44.4177 O.2       7 UNK        -0.5000 
     37 CA          4.0942  -19.2408  -43.5495 C.3       7 UNK         0.1400 
     38 CB          4.9411  -19.2324  -44.8320 C.3       7 UNK        -0.1800 
     39 N           4.3994  -18.0321  -42.7853 N.am      7 UNK        -0.5000 
     40 C           4.1741  -17.8583  -41.4758 C.2       6 UNK         0.5000 
     41 O           3.7012  -18.7263  -40.7419 O.2       6 UNK        -0.5000 
     42 CA          4.5061  -16.4631  -40.9040 C.3       6 UNK         0.1400 
     43 CB          5.9142  -16.4537  -40.2902 C.3       6 UNK        -0.1800 
     44 N           4.4100  -15.3941  -41.9067 N.am      6 UNK        -0.5000 
     45 C           3.2662  -15.0219  -42.4961 C.2       5 UNK         0.5000 
     46 O           2.1731  -15.5162  -42.2170 O.2       5 UNK        -0.5000 
     47 CA          3.3816  -13.9999  -43.6405 C.3       5 UNK         0.1400 
     48 CB          3.7720  -14.7151  -44.9443 C.3       5 UNK        -0.1800 
     49 N           2.1283  -13.2850  -43.8684 N.am      5 UNK        -0.5000 
     50 C           1.6185  -12.3430  -43.0637 C.2       4 UNK         0.5000 
     51 O           2.1681  -11.9566  -42.0298 O.2       4 UNK        -0.5000 
     52 CA          0.2842  -11.7160  -43.5246 C.3       4 UNK         0.1400 
     53 CB         -0.0904  -10.4306  -42.7581 C.3       4 UNK        -0.1800 
     54 N           0.2565  -11.4970  -44.9744 N.am      4 UNK        -0.5000 
     55 C           1.0718  -10.7183  -45.7030 C.2       3 UNK         0.5000 
     56 O           1.8934   -9.9375  -45.2214 O.2       3 UNK        -0.5000 
     57 CA          0.9844  -10.8601  -47.2353 C.3       3 UNK         0.1400 
     58 CB          2.2098  -11.6217  -47.7671 C.3       3 UNK        -0.1800 
     59 N          -0.2214  -11.5683  -47.6670 N.am      3 UNK        -0.5000 
     60 C          -1.4042  -10.9889  -47.9110 C.2       2 UNK         0.5000 
     61 O          -1.5991   -9.7748  -47.8463 O.2       2 UNK        -0.5000 
     62 CA         -2.5702  -11.9276  -48.2793 C.3       2 UNK         0.1400 
     63 CB         -2.6802  -12.0793  -49.8044 C.3       2 UNK        -0.1800 
     64 N          -2.4476  -13.2577  -47.6787 N.am      2 UNK        -0.5000 
     65 C          -2.5866  -13.5234  -46.3716 C.2       1 UNK         0.5000 
     66 O          -2.8507  -12.6721  -45.5230 O.2       1 UNK        -0.5000 
     67 C          -1.3256  -22.8773  -46.6547 C.2       11 UNK         0.5000 
     68 O          -1.7774  -23.6314  -47.5166 O.2       11 UNK        -0.5000 
     69 N          -2.0808  -22.3121  -45.7016 N.am      12 UNK        -0.5000 
     70 CA         -3.5175  -22.5377  -45.5353 C.3       12 UNK         0.1400 
     71 CB         -4.0736  -21.5738  -44.4766 C.3       12 UNK        -0.1800 
     72 C          -3.8627  -23.9934  -45.1703 C.2       12 UNK         0.5000 
     73 O          -4.8495  -24.5215  -45.6829 O.2       12 UNK        -0.5000 
     74 N          -3.0429  -24.6198  -44.3125 N.am      13 UNK        -0.5000 
     75 CA         -3.1716  -26.0258  -43.9233 C.3       13 UNK         0.1400 
     76 CB         -2.2552  -26.3232  -42.7269 C.3       13 UNK        -0.1800 
     77 C          -2.8848  -26.9924  -45.0869 C.2       13 UNK         0.5000 
     78 O          -3.5990  -27.9846  -45.2379 O.2       13 UNK        -0.5000 
     79 N          -1.8647  -26.6774  -45.8983 N.am      14 UNK        -0.5000 
     80 CA         -1.5346  -27.3954  -47.1307 C.3       14 UNK         0.1400 
     81 CB         -0.1593  -26.9352  -47.6376 C.3       14 UNK        -0.1800 
     82 C          -2.6046  -27.2095  -48.2228 C.2       14 UNK         0.5000 
     83 O          -2.8998  -28.1576  -48.9516 O.2       14 UNK        -0.5000 
     84 N          -3.1589  -25.9914  -48.3077 N.am      15 UNK        -0.5000 
     85 CA         -4.2258  -25.5012  -49.1875 C.3       15 UNK         0.1400 
     86 CB         -5.5290  -26.3005  -49.0026 C.3       15 UNK        -0.1800 
     87 C          -3.8171  -25.4134  -50.6681 C.2       15 UNK         0.5000 
     88 O          -3.9606  -24.3536  -51.2760 O.2       15 UNK        -0.5000 
     89 N          -3.2697  -26.5069  -51.2116 N.am      16 UNK        -0.5000 
     90 CA         -2.7527  -26.6193  -52.5782 C.3       16 UNK         0.1400 
     91 CB         -2.4820  -28.1015  -52.8789 C.3       16 UNK        -0.1800 
     92 C          -1.4865  -25.7750  -52.8312 C.2       16 UNK         0.5000 
     93 O          -1.1354  -25.5397  -53.9877 O.2       16 UNK        -0.5000 
     94 N          -0.8252  -25.3384  -51.7508 N.am      17 UNK        -0.5000 
     95 CA          0.3244  -24.4372  -51.7738 C.3       17 UNK         0.1400 
     96 CB          1.0040  -24.4767  -50.3962 C.3       17 UNK        -0.1800 
     97 C          -0.0468  -22.9895  -52.1554 C.2       17 UNK         0.5000 
     98 O           0.8086  -22.2703  -52.6742 O.2       17 UNK        -0.5000 
     99 N          -1.2977  -22.5832  -51.8934 N.am      18 UNK        -0.5000 
    100 CA        -1.8196  -21.2602  -52.2306 C.3       18 UNK         0.1400 
    101 CB        -3.0457  -20.9669  -51.3525 C.3       18 UNK        -0.1800 
    102 C         -2.1658  -21.1790  -53.7296 C.2       18 UNK         0.5000 
    103 O         -2.5539  -22.1849  -54.3301 O.2       18 UNK        -0.5000 
    104 N         -2.0098  -19.9843  -54.3112 N.am      19 UNK        -0.5000 
    105 CA        -2.2455  -19.7194  -55.7311 C.3       19 UNK         0.1400 
    106 CB        -1.5880  -18.3772  -56.0932 C.3       19 UNK        -0.1800 
    107 C         -3.7421  -19.6930  -56.0941 C.2       19 UNK         0.5000 
    108 O         -4.5967  -19.5212  -55.2212 O.2       19 UNK        -0.5000 
    109 N         -4.0324  -19.7784  -57.3991 N.am      20 UNK        -0.5000 
    110 CA        -5.3810  -19.6433  -57.9633 C.3       20 UNK         0.1400 
    111 CB        -5.3352  -19.9750  -59.4626 C.3       20 UNK        -0.1800 
    112 C         -6.0036  -18.2494  -57.7354 C.2       20 UNK         0.5000 
    113 O         -7.2267  -18.1365  -57.6516 O.2       20 UNK        -0.5000 
    114 N         -5.1496  -17.2231  -57.6099 N.am      21 UNK        -0.5000 
    115 CA        -5.5274  -15.8620  -57.2270 C.3       21 UNK         0.1400 
    116 CB        -4.3730  -14.9097  -57.5753 C.3       21 UNK        -0.1800 
    117 C         -5.8915  -15.7400  -55.7330 C.2       21 UNK         0.5000 
    118 O         -6.6842  -14.8676  -55.3756 O.2       21 UNK        -0.5000 
    119 N         -5.3094  -16.6059  -54.8935 N.am      22 UNK        -0.5000 
    120 CA        -5.6051  -16.7106  -53.4578 C.3       22 UNK         0.1400 
    121 C         -6.9066  -17.5155  -53.2019 C.2       22 UNK         0.5000 
    122 N         -7.0871  -18.6570  -53.8562 N.am      22 UNK        -0.7600 
    123 O         -7.7514  -17.1046  -52.4117 O.2       22 UNK        -0.5000 
    124 C124       -4.4350  -17.3385  -52.6595 C.3       23 UNK        -0.0398 
    125 S125       -2.8415  -16.4795  -52.8940 S.3       23 UNK        -0.2404 
    126 C126       -2.5399  -15.7816  -51.2413 C.3       23 UNK        -0.0205 
    127 H127        1.9664  -15.5779  -47.5351 H         1 UNK         0.0600 
    128 H128        1.1176  -17.0520  -47.0623 H         1 UNK         0.0600 
    129 H129        0.6449  -16.1776  -48.5327 H         1 UNK         0.0600 
    130 H130       -1.5481  -16.4504  -47.2351 H         1 UNK         0.3000 
    131 H131       -2.0259  -14.9565  -44.8995 H         1 UNK         0.0600 
    132 H132       -4.1715  -15.6611  -46.9608 H         1 UNK         0.0800 
    133 H133       -4.3983  -15.3221  -45.2738 H         1 UNK         0.0800 
    134 H134       -5.0156  -17.9876  -47.4259 H         1 UNK         0.0800 
    135 H135       -4.1157  -19.4072  -46.9599 H         1 UNK         0.0800 
    136 H136       -4.1604  -16.5399  -49.1842 H         1 UNK         0.1150 
    137 H137       -0.3764  -17.4085  -50.9876 H         1 UNK         0.1150 
    138 H138       -1.6586  -19.5616  -47.4972 H         1 UNK         0.1150 
    139 H139        0.9346  -19.2242  -50.2598 H         1 UNK         0.0800 
    140 H140        1.1466  -18.9216  -48.5570 H         1 UNK         0.0800 
    141 H141        1.6773  -21.1052  -47.0673 H         1 UNK         0.0800 
    142 H142        0.1273  -20.4344  -46.6732 H         1 UNK         0.0800 
    143 H143        0.6754  -23.3976  -47.1929 H         1 UNK         0.0600 
    144 H144        1.1231  -21.9118  -44.8305 H         1 UNK         0.3000 
    145 H145        0.8702  -24.6201  -42.5143 H         1 UNK         0.0600 
    146 H146        3.1367  -23.7422  -42.0134 H         1 UNK         0.0600 
    147 H147        3.1595  -24.6678  -43.5063 H         1 UNK         0.0600 
    148 H148        3.1905  -22.9101  -43.5669 H         1 UNK         0.0600 
    149 H149        1.3949  -21.7940  -42.2808 H         1 UNK         0.3000 
    150 H150       -1.9682  -20.8286  -41.5629 H         1 UNK         0.0600 
    151 H151       -1.0238  -21.7468  -39.4345 H         1 UNK         0.0600 
    152 H152       -0.8581  -20.0001  -39.5137 H         1 UNK         0.0600 
    153 H153        0.5403  -21.0328  -39.8104 H         1 UNK         0.0600 
    154 H154        0.4457  -19.3280  -41.6205 H         1 UNK         0.3000 
    155 H155        0.2639  -18.3473  -45.0617 H         1 UNK         0.0600 
    156 H156        0.2235  -16.1475  -43.9315 H         1 UNK         0.0600 
    157 H157       -0.1643  -16.9060  -42.3908 H         1 UNK         0.0600 
    158 H158       -1.3219  -16.9507  -43.7086 H         1 UNK         0.0600 
    159 H159        2.1484  -17.5493  -43.1842 H         1 UNK         0.3000 
    160 H160        4.3808  -20.1115  -42.9560 H         1 UNK         0.0600 
    161 H161        4.6953  -18.3832  -45.4711 H         1 UNK         0.0600 
    162 H162        4.7794  -20.1397  -45.4159 H         1 UNK         0.0600 
    163 H163        6.0056  -19.1836  -44.6019 H         1 UNK         0.0600 
    164 H164        4.7957  -17.2624  -43.3032 H         1 UNK         0.3000 
    165 H165        3.7851  -16.2521  -40.1113 H         1 UNK         0.0600 
    166 H166        6.6827  -16.6420  -41.0410 H         1 UNK         0.0600 
    167 H167        6.1325  -15.4957  -39.8179 H         1 UNK         0.0600 
    168 H168        6.0104  -17.2223  -39.5221 H         1 UNK         0.0600 
    169 H169        5.2759  -14.9528  -42.1821 H         1 UNK         0.3000 
    170 H170        4.1552  -13.2719  -43.3879 H         1 UNK         0.0600 
    171 H171        4.7415  -15.2056  -44.8516 H         1 UNK         0.0600 
    172 H172        3.0417  -15.4786  -45.2162 H         1 UNK         0.0600 
    173 H173        3.8443  -14.0118  -45.7742 H         1 UNK         0.0600 
    174 H174        1.5812  -13.5761  -44.6737 H         1 UNK         0.3000 
    175 H175       -0.4869  -12.4593  -43.3167 H         1 UNK         0.0600 
    176 H176       -1.0371  -10.0232  -43.1131 H         1 UNK         0.0600 
    177 H177       -0.2036  -10.6324  -41.6924 H         1 UNK         0.0600 
    178 H178        0.6695   -9.6561  -42.8637 H         1 UNK         0.0600 
    179 H179       -0.3508  -12.1227  -45.4859 H         1 UNK         0.3000 
    180 H180        0.9938   -9.8557  -47.6637 H         1 UNK         0.0600 
    181 H181        2.1878  -11.6943  -48.8545 H         1 UNK         0.0600 
    182 H182        3.1356  -11.1133  -47.4949 H         1 UNK         0.0600 
    183 H183        2.2617  -12.6339  -47.3640 H         1 UNK         0.0600 
    184 H184       -0.1556  -12.5750  -47.7142 H         1 UNK         0.3000 
    185 H185       -3.4917  -11.4700  -47.9132 H         1 UNK         0.0600 
    186 H186       -3.5492  -12.6770  -50.0796 H         1 UNK         0.0600 
    187 H187       -2.7910  -11.1071  -50.2864 H         1 UNK         0.0600 
    188 H188       -1.7953  -12.5563  -50.2276 H         1 UNK         0.0600 
    189 H189       -2.2140  -14.0181  -48.2998 H         1 UNK         0.3000 
    190 H190       -1.6523  -21.6595  -45.0480 H         1 UNK         0.3000 
    191 H191       -4.0003  -22.3107  -46.4882 H         1 UNK         0.0600 
    192 H192       -5.1487  -21.7068  -44.3514 H         1 UNK         0.0600 
    193 H193       -3.9059  -20.5353  -44.7601 H         1 UNK         0.0600 
    194 H194       -3.6058  -21.7322  -43.5043 H         1 UNK         0.0600 
    195 H195       -2.2890  -24.0960  -43.8808 H         1 UNK         0.3000 
    196 H196       -4.2029  -26.1908  -43.6043 H         1 UNK         0.0600 
    197 H197       -2.3428  -27.3652  -42.4171 H         1 UNK         0.0600 
    198 H198       -2.5179  -25.7064  -41.8674 H         1 UNK         0.0600 
    199 H199       -1.2076  -26.1380  -42.9640 H         1 UNK         0.0600 
    200 H200       -1.2769  -25.8838  -45.6596 H         1 UNK         0.3000 
    201 H201       -1.4747  -28.4610  -46.9001 H         1 UNK         0.0600 
    202 H202        0.6200  -27.1480  -46.9057 H         1 UNK         0.0600 
    203 H203       -0.1423  -25.8638  -47.8372 H         1 UNK         0.0600 
    204 H204        0.1116  -27.4483  -48.5613 H         1 UNK         0.0600 
    205 H205       -2.7510  -25.2653  -47.7242 H         1 UNK         0.3000 
    206 H206       -4.4229  -24.4800  -48.8565 H         1 UNK         0.0600 
    207 H207       -5.8409  -26.3023  -47.9579 H         1 UNK         0.0600 
    208 H208       -6.3396  -25.8595  -49.5838 H         1 UNK         0.0600 
    209 H209       -5.4256  -27.3372  -49.3234 H         1 UNK         0.0600 
    210 H210       -3.1645  -27.3197  -50.6092 H         1 UNK         0.3000 
    211 H211       -3.5246  -26.2625  -53.2630 H         1 UNK         0.0600 
    212 H212       -1.7296  -28.5160  -52.2066 H         1 UNK         0.0600 
    213 H213       -2.1214  -28.2355  -53.8997 H         1 UNK         0.0600 
    214 H214       -3.3892  -28.6970  -52.7751 H         1 UNK         0.0600 
    215 H215       -1.1865  -25.5903  -50.8434 H         1 UNK         0.3000 
    216 H216        1.0354  -24.8034  -52.5174 H         1 UNK         0.0600 
    217 H217        1.8676  -23.8112  -50.3656 H         1 UNK         0.0600 
    218 H218        1.3575  -25.4798  -50.1573 H         1 UNK         0.0600 
    219 H219        0.3208  -24.1634  -49.6062 H         1 UNK         0.0600 
    220 H220       -1.9697  -23.2510  -51.5395 H         1 UNK         0.3000 
    221 H221       -1.0533  -20.5162  -52.0009 H         1 UNK         0.0600 
    222 H222       -3.8864  -21.6152  -51.6015 H         1 UNK         0.0600 
    223 H223       -2.8154  -21.1042  -50.2954 H         1 UNK         0.0600 
    224 H224       -3.3739  -19.9355  -51.4747 H         1 UNK         0.0600 
    225 H225       -1.7327  -19.1932  -53.7487 H         1 UNK         0.3000 
    226 H226       -1.7660  -20.5102  -56.3121 H         1 UNK         0.0600 
    227 H227       -1.6531  -18.1805  -57.1639 H         1 UNK         0.0600 
    228 H228       -2.0631  -17.5415  -55.5790 H         1 UNK         0.0600 
    229 H229       -0.5296  -18.3725  -55.8316 H         1 UNK         0.0600 
    230 H230       -3.2819  -19.9137  -58.0614 H         1 UNK         0.3000 
    231 H231       -6.0252  -20.3741  -57.4699 H         1 UNK         0.0600 
    232 H232       -6.3290  -19.9088  -59.9076 H         1 UNK         0.0600 
    233 H233       -4.9723  -20.9889  -59.6318 H         1 UNK         0.0600 
    234 H234       -4.6854  -19.2890  -60.0073 H         1 UNK         0.0600 
    235 H235       -4.1639  -17.4055  -57.7219 H         1 UNK         0.3000 
    236 H236       -6.4031  -15.5673  -57.8092 H         1 UNK         0.0600 
    237 H237       -3.4635  -15.1623  -57.0284 H         1 UNK         0.0600 
    238 H238       -4.1445  -14.9393  -58.6409 H         1 UNK         0.0600 
    239 H239       -4.6293  -13.8789  -57.3274 H         1 UNK         0.0600 
    240 H240       -4.7207  -17.3341  -55.2706 H         1 UNK         0.3000 
    241 H241       -5.7610  -15.7032  -53.0664 H         1 UNK         0.0600 
    242 H242       -7.9277  -19.1920  -53.7085 H         1 UNK         0.3800 
    243 H243       -6.3551  -19.0174  -54.4603 H         1 UNK         0.3800 
    244 H244       -4.2893  -18.3781  -52.9501 H         1 UNK         0.0800 
    245 H245       -4.6851  -17.3633  -51.5987 H         1 UNK         0.0800 
    246 H246       -1.6685  -15.1272  -51.2897 H         1 UNK         0.0800 
    247 H247       -3.3827  -15.1485  -50.9598 H         1 UNK         0.0800 
@<TRIPOS>BOND
     1    1    2 1    
     2    1  127 1    
     3    1  128 1    
     4    1  129 1    
     5    2    3 2    
     6    2    4 am   BACKBONE|DICT|INTERRES
     7    4    5 1    
     8    4  130 1    
     9    5    6 1    
    10    5   65 1    
    11    5  131 1    
    12    6    7 1    
    13    6  132 1    
    14    6  133 1    
    15    7    8 1    
    16    8    9 1    
    17    8  134 1    
    18    8  135 1    
    19    9   10 ar   
    20    9   14 ar   
    21   10   11 ar   
    22   10  136 1    
    23   11   12 ar   
    24   11  126 1    
    25   12   13 ar   
    26   12  137 1    
    27   13   14 ar   
    28   13   15 1    
    29   14  138 1    
    30   15   16 1    
    31   15  139 1    
    32   15  140 1    
    33   16   17 1    
    34   17   18 1    
    35   17  141 1    
    36   17  142 1    
    37   18   19 1    
    38   18   67 1    
    39   18  143 1    
    40   19   20 am   BACKBONE|DICT|INTERRES
    41   19  144 1    
    42   20   21 2    
    43   20   22 1    
    44   22   23 1    
    45   22   24 1    
    46   22  145 1    
    47   23  146 1    
    48   23  147 1    
    49   23  148 1    
    50   24   25 am   BACKBONE|DICT|INTERRES
    51   24  149 1    
    52   25   26 2    
    53   25   27 1    
    54   27   28 1    
    55   27   29 1    
    56   27  150 1    
    57   28  151 1    
    58   28  152 1    
    59   28  153 1    
    60   29   30 am   BACKBONE|DICT|INTERRES
    61   29  154 1    
    62   30   31 2    
    63   30   32 1    
    64   32   33 1    
    65   32   34 1    
    66   32  155 1    
    67   33  156 1    
    68   33  157 1    
    69   33  158 1    
    70   34   35 am   BACKBONE|DICT|INTERRES
    71   34  159 1    
    72   35   36 2    
    73   35   37 1    
    74   37   38 1    
    75   37   39 1    
    76   37  160 1    
    77   38  161 1    
    78   38  162 1    
    79   38  163 1    
    80   39   40 am   BACKBONE|DICT|INTERRES
    81   39  164 1    
    82   40   41 2    
    83   40   42 1    
    84   42   43 1    
    85   42   44 1    
    86   42  165 1    
    87   43  166 1    
    88   43  167 1    
    89   43  168 1    
    90   44   45 am   BACKBONE|DICT|INTERRES
    91   44  169 1    
    92   45   46 2    
    93   45   47 1    
    94   47   48 1    
    95   47   49 1    
    96   47  170 1    
    97   48  171 1    
    98   48  172 1    
    99   48  173 1    
   100   49   50 am   BACKBONE|DICT|INTERRES
   101   49  174 1    
   102   50   51 2    
   103   50   52 1    
   104   52   53 1    
   105   52   54 1    
   106   52  175 1    
   107   53  176 1    
   108   53  177 1    
   109   53  178 1    
   110   54   55 am   BACKBONE|DICT|INTERRES
   111   54  179 1    
   112   55   56 2    
   113   55   57 1    
   114   57   58 1    
   115   57   59 1    
   116   57  180 1    
   117   58  181 1    
   118   58  182 1    
   119   58  183 1    
   120   59   60 am   BACKBONE|DICT|INTERRES
   121   59  184 1    
   122   60   61 2    
   123   60   62 1    
   124   62   63 1    
   125   62   64 1    
   126   62  185 1    
   127   63  186 1    
   128   63  187 1    
   129   63  188 1    
   130   64   65 am   BACKBONE|DICT|INTERRES
   131   64  189 1    
   132   65   66 2    
   133   67   68 2    
   134   67   69 am   BACKBONE|DICT|INTERRES
   135   69   70 1    
   136   69  190 1    
   137   70   71 1    
   138   70   72 1    
   139   70  191 1    
   140   71  192 1    
   141   71  193 1    
   142   71  194 1    
   143   72   73 2    
   144   72   74 am   BACKBONE|DICT|INTERRES
   145   74   75 1    
   146   74  195 1    
   147   75   76 1    
   148   75   77 1    
   149   75  196 1    
   150   76  197 1    
   151   76  198 1    
   152   76  199 1    
   153   77   78 2    
   154   77   79 am   BACKBONE|DICT|INTERRES
   155   79   80 1    
   156   79  200 1    
   157   80   81 1    
   158   80   82 1    
   159   80  201 1    
   160   81  202 1    
   161   81  203 1    
   162   81  204 1    
   163   82   83 2    
   164   82   84 am   BACKBONE|DICT|INTERRES
   165   84   85 1    
   166   84  205 1    
   167   85   86 1    
   168   85   87 1    
   169   85  206 1    
   170   86  207 1    
   171   86  208 1    
   172   86  209 1    
   173   87   88 2    
   174   87   89 am   BACKBONE|DICT|INTERRES
   175   89   90 1    
   176   89  210 1    
   177   90   91 1    
   178   90   92 1    
   179   90  211 1    
   180   91  212 1    
   181   91  213 1    
   182   91  214 1    
   183   92   93 2    
   184   92   94 am   BACKBONE|DICT|INTERRES
   185   94   95 1    
   186   94  215 1    
   187   95   96 1    
   188   95   97 1    
   189   95  216 1    
   190   96  217 1    
   191   96  218 1    
   192   96  219 1    
   193   97   98 2    
   194   97   99 am   BACKBONE|DICT|INTERRES
   195   99  100 1    
   196   99  220 1    
   197  100  101 1    
   198  100  102 1    
   199  100  221 1    
   200  101  222 1    
   201  101  223 1    
   202  101  224 1    
   203  102  103 2    
   204  102  104 am   BACKBONE|DICT|INTERRES
   205  104  105 1    
   206  104  225 1    
   207  105  106 1    
   208  105  107 1    
   209  105  226 1    
   210  106  227 1    
   211  106  228 1    
   212  106  229 1    
   213  107  108 2    
   214  107  109 am   BACKBONE|DICT|INTERRES
   215  109  110 1    
   216  109  230 1    
   217  110  111 1    
   218  110  112 1    
   219  110  231 1    
   220  111  232 1    
   221  111  233 1    
   222  111  234 1    
   223  112  113 2    
   224  112  114 am   BACKBONE|DICT|INTERRES
   225  114  115 1    
   226  114  235 1    
   227  115  116 1    
   228  115  117 1    
   229  115  236 1    
   230  116  237 1    
   231  116  238 1    
   232  116  239 1    
   233  117  118 2    
   234  117  119 am   BACKBONE|DICT|INTERRES
   235  119  120 1    
   236  119  240 1    
   237  120  121 1    
   238  120  124 1    
   239  120  241 1    
   240  121  122 am   BACKBONE|DICT|INTERRES
   241  121  123 2    
   242  122  242 1    
   243  122  243 1    
   244  124  125 1    
   245  124  244 1    
   246  124  245 1    
   247  125  126 1    
   248  126  246 1    
   249  126  247 1    
@<TRIPOS>SUBSTRUCTURE
     1 UNK         1 GROUP             0       ****    0 ROOT    
