@<TRIPOS>MOLECULE
3R540
247   249    1
SMALL
USER_CHARGES


@<TRIPOS>ATOM
      1 CA          1.9919  -11.6736  -45.5702 C.3       0 UNK        -0.1800 
      2 C           2.3057  -12.3493  -46.8972 C.2       0 UNK         0.5000 
      3 O           3.2299  -11.9344  -47.5958 O.2       0 UNK        -0.5000 
      4 N           1.5541  -13.4020  -47.2408 N.am      1 UNK        -0.5000 
      5 CA          1.6067  -14.1534  -48.5067 C.3       1 UNK         0.1400 
      6 C6          0.2771  -14.9157  -48.7644 C.3       23 UNK        -0.0398 
      7 S7         -1.1889  -13.8331  -48.6731 S.3       23 UNK        -0.2404 
      8 C8         -1.6722  -13.7241  -50.4231 C.3       23 UNK        -0.0205 
      9 C9         -2.5618  -14.8873  -50.8330 C.ar      23 UNK        -0.0193 
     10 C10        -2.0731  -15.9201  -51.6395 C.ar      23 UNK        -0.1150 
     11 C11        -2.9173  -16.9580  -52.0513 C.ar      23 UNK        -0.0193 
     12 C12        -4.2486  -16.9709  -51.6262 C.ar      23 UNK        -0.1150 
     13 C13        -4.7404  -15.9548  -50.8030 C.ar      23 UNK        -0.0193 
     14 C14        -3.8960  -14.9105  -50.4203 C.ar      23 UNK        -0.1150 
     15 C15        -6.1817  -15.9860  -50.3219 C.3       23 UNK        -0.0205 
     16 S16        -6.4342  -17.2415  -49.0293 S.3       23 UNK        -0.2404 
     17 C17        -5.3174  -16.6649  -47.6952 C.3       23 UNK        -0.0398 
     18 CA         -3.9147  -17.3355  -47.6461 C.3       11 UNK         0.1400 
     19 N          -3.1749  -16.9347  -46.4447 N.am      11 UNK        -0.5000 
     20 C          -1.8898  -17.2288  -46.1966 C.2       10 UNK         0.5000 
     21 O          -1.1565  -17.8302  -46.9781 O.2       10 UNK        -0.5000 
     22 CA         -1.3359  -16.8230  -44.8204 C.3       10 UNK         0.1400 
     23 CB         -0.8074  -15.3827  -44.8572 C.3       10 UNK        -0.1800 
     24 N          -2.2940  -16.9574  -43.7216 N.am      10 UNK        -0.5000 
     25 C          -2.9249  -18.0841  -43.3649 C.2       9 UNK         0.5000 
     26 O          -2.8674  -19.1339  -44.0066 O.2       9 UNK        -0.5000 
     27 CA         -3.7099  -18.0256  -42.0393 C.3       9 UNK         0.1400 
     28 CB         -4.6050  -19.2596  -41.8278 C.3       9 UNK        -0.1800 
     29 N          -2.7807  -17.9179  -40.9159 N.am      9 UNK        -0.5000 
     30 C          -2.1304  -16.8048  -40.5503 C.2       8 UNK         0.5000 
     31 O          -2.3523  -15.6960  -41.0400 O.2       8 UNK        -0.5000 
     32 CA         -1.0193  -16.9612  -39.4939 C.3       8 UNK         0.1400 
     33 CB         -1.5585  -16.6315  -38.0938 C.3       8 UNK        -0.1800 
     34 N          -0.4026  -18.2927  -39.4700 N.am      8 UNK        -0.5000 
     35 C           0.3087  -18.8270  -40.4723 C.2       7 UNK         0.5000 
     36 O           0.4807  -18.2836  -41.5646 O.2       7 UNK        -0.5000 
     37 CA          0.8996  -20.2179  -40.2209 C.3       7 UNK         0.1400 
     38 CB         -0.0797  -21.3190  -40.6661 C.3       7 UNK        -0.1800 
     39 N           2.1577  -20.3302  -40.9501 N.am      7 UNK        -0.5000 
     40 C           3.1458  -21.1828  -40.6560 C.2       6 UNK         0.5000 
     41 O           3.0841  -22.0170  -39.7519 O.2       6 UNK        -0.5000 
     42 CA          4.4292  -21.0733  -41.4951 C.3       6 UNK         0.1400 
     43 CB          4.2870  -21.8508  -42.8137 C.3       6 UNK        -0.1800 
     44 N           4.7761  -19.6789  -41.7751 N.am      6 UNK        -0.5000 
     45 C           5.4517  -18.8875  -40.9275 C.2       5 UNK         0.5000 
     46 O           5.8591  -19.2640  -39.8278 O.2       5 UNK        -0.5000 
     47 CA          5.7446  -17.4396  -41.3732 C.3       5 UNK         0.1400 
     48 CB          7.1641  -17.3352  -41.9520 C.3       5 UNK        -0.1800 
     49 N           4.7970  -16.9386  -42.3661 N.am      5 UNK        -0.5000 
     50 C           3.5368  -16.5674  -42.1022 C.2       4 UNK         0.5000 
     51 O           3.0721  -16.5042  -40.9641 O.2       4 UNK        -0.5000 
     52 CA          2.6474  -16.2137  -43.3148 C.3       4 UNK         0.1400 
     53 CB          2.5932  -14.6897  -43.5002 C.3       4 UNK        -0.1800 
     54 N           3.0817  -16.8193  -44.5787 N.am      4 UNK        -0.5000 
     55 C           3.2439  -18.1291  -44.8195 C.2       3 UNK         0.5000 
     56 O           2.9958  -19.0017  -43.9888 O.2       3 UNK        -0.5000 
     57 CA          3.8180  -18.5377  -46.1925 C.3       3 UNK         0.1400 
     58 CB          2.8310  -19.4319  -46.9513 C.3       3 UNK        -0.1800 
     59 N           4.1555  -17.4029  -47.0504 N.am      3 UNK        -0.5000 
     60 C           5.1991  -16.5779  -46.9200 C.2       2 UNK         0.5000 
     61 O           6.0495  -16.6936  -46.0374 O.2       2 UNK        -0.5000 
     62 CA          5.2649  -15.3894  -47.9017 C.3       2 UNK         0.1400 
     63 CB          5.8553  -15.8176  -49.2582 C.3       2 UNK        -0.1800 
     64 N           3.9849  -14.6795  -48.0668 N.am      2 UNK        -0.5000 
     65 C           2.8283  -15.1038  -48.5990 C.2       1 UNK         0.5000 
     66 O           2.6945  -16.2194  -49.1040 O.2       1 UNK        -0.5000 
     67 C          -3.9746  -18.8727  -47.7665 C.2       11 UNK         0.5000 
     68 O          -3.5737  -19.4201  -48.7931 O.2       11 UNK        -0.5000 
     69 N          -4.4307  -19.5388  -46.6954 N.am      12 UNK        -0.5000 
     70 CA         -4.5327  -20.9954  -46.6141 C.3       12 UNK         0.1400 
     71 CB         -5.2860  -21.3941  -45.3367 C.3       12 UNK        -0.1800 
     72 C          -3.1597  -21.6828  -46.6763 C.2       12 UNK         0.5000 
     73 O          -3.0299  -22.7064  -47.3466 O.2       12 UNK        -0.5000 
     74 N          -2.1600  -21.0871  -46.0125 N.am      13 UNK        -0.5000 
     75 CA         -0.7700  -21.5359  -46.0183 C.3       13 UNK         0.1400 
     76 CB          0.0351  -20.7218  -44.9933 C.3       13 UNK        -0.1800 
     77 C          -0.1356  -21.4635  -47.4202 C.2       13 UNK         0.5000 
     78 O           0.4684  -22.4429  -47.8577 O.2       13 UNK        -0.5000 
     79 N          -0.3172  -20.3301  -48.1150 N.am      14 UNK        -0.5000 
     80 CA          0.1703  -20.1018  -49.4783 C.3       14 UNK         0.1400 
     81 CB          0.0189  -18.6161  -49.8376 C.3       14 UNK        -0.1800 
     82 C          -0.5385  -20.9854  -50.5191 C.2       14 UNK         0.5000 
     83 O           0.1031  -21.4601  -51.4564 O.2       14 UNK        -0.5000 
     84 N          -1.8416  -21.2124  -50.3163 N.am      15 UNK        -0.5000 
     85 CA         -2.6757  -22.0964  -51.1262 C.3       15 UNK         0.1400 
     86 CB         -4.1480  -21.7915  -50.8065 C.3       15 UNK        -0.1800 
     87 C          -2.4065  -23.5944  -50.8945 C.2       15 UNK         0.5000 
     88 O          -2.8908  -24.4126  -51.6767 O.2       15 UNK        -0.5000 
     89 N          -1.7322  -23.9429  -49.7881 N.am      16 UNK        -0.5000 
     90 CA         -1.5956  -25.2998  -49.2408 C.3       16 UNK         0.1400 
     91 CB         -0.6824  -26.1613  -50.1368 C.3       16 UNK        -0.1800 
     92 C          -2.9709  -25.9547  -48.9670 C.2       16 UNK         0.5000 
     93 O          -3.1442  -27.1574  -49.1708 O.2       16 UNK        -0.5000 
     94 N          -3.9302  -25.1159  -48.5464 N.am      17 UNK        -0.5000 
     95 CA         -5.3488  -25.3927  -48.3140 C.3       17 UNK         0.1400 
     96 CB         -5.5189  -26.3122  -47.0871 C.3       17 UNK        -0.1800 
     97 C          -6.1187  -25.9010  -49.5569 C.2       17 UNK         0.5000 
     98 O          -7.1286  -26.5887  -49.3923 O.2       17 UNK        -0.5000 
     99 N          -5.6576  -25.5607  -50.7715 N.am      18 UNK        -0.5000 
    100 CA        -6.2605  -26.0219  -52.0244 C.3       18 UNK         0.1400 
    101 CB        -5.5841  -27.3289  -52.4757 C.3       18 UNK        -0.1800 
    102 C         -6.2128  -24.9577  -53.1311 C.2       18 UNK         0.5000 
    103 O         -7.2602  -24.5707  -53.6519 O.2       18 UNK        -0.5000 
    104 N         -5.0059  -24.5063  -53.4896 N.am      19 UNK        -0.5000 
    105 CA        -4.7340  -23.6174  -54.6193 C.3       19 UNK         0.1400 
    106 CB        -3.3124  -23.9024  -55.1374 C.3       19 UNK        -0.1800 
    107 C         -4.9380  -22.1380  -54.2454 C.2       19 UNK         0.5000 
    108 O         -3.9903  -21.3536  -54.2838 O.2       19 UNK        -0.5000 
    109 N         -6.1729  -21.7817  -53.8668 N.am      20 UNK        -0.5000 
    110 CA        -6.5696  -20.4198  -53.4913 C.3       20 UNK         0.1400 
    111 CB        -8.0018  -20.4407  -52.9387 C.3       20 UNK        -0.1800 
    112 C         -6.4402  -19.4115  -54.6493 C.2       20 UNK         0.5000 
    113 O         -6.0978  -18.2526  -54.4165 O.2       20 UNK        -0.5000 
    114 N         -6.6621  -19.8866  -55.8814 N.am      21 UNK        -0.5000 
    115 CA        -6.4094  -19.1630  -57.1253 C.3       21 UNK         0.1400 
    116 CB        -7.4226  -19.6335  -58.1847 C.3       21 UNK        -0.1800 
    117 C         -4.9444  -19.3660  -57.5648 C.2       21 UNK         0.5000 
    118 O         -4.6869  -19.9321  -58.6288 O.2       21 UNK        -0.5000 
    119 N         -4.0074  -18.9316  -56.7142 N.am      22 UNK        -0.5000 
    120 CA        -2.5529  -19.0397  -56.9214 C.3       22 UNK         0.1400 
    121 C         -1.9615  -18.0968  -58.0134 C.2       22 UNK         0.5000 
    122 N         -2.6973  -17.1149  -58.5207 N.am      22 UNK        -0.7600 
    123 O         -0.8152  -18.2702  -58.4188 O.2       22 UNK        -0.5000 
    124 C124       -1.7695  -18.9341  -55.5852 C.3       23 UNK        -0.0398 
    125 S125       -2.1250  -17.4050  -54.6499 S.3       23 UNK        -0.2404 
    126 C126       -2.4011  -18.0531  -52.9719 C.3       23 UNK        -0.0205 
    127 H127        1.8060  -10.6110  -45.7257 H         1 UNK         0.0600 
    128 H128        2.8353  -11.7770  -44.8876 H         1 UNK         0.0600 
    129 H129        1.1113  -12.1047  -45.0934 H         1 UNK         0.0600 
    130 H130        0.8039  -13.6746  -46.6240 H         1 UNK         0.3000 
    131 H131        1.7278  -13.4295  -49.3151 H         1 UNK         0.0600 
    132 H132        0.2954  -15.4079  -49.7382 H         1 UNK         0.0800 
    133 H133        0.1489  -15.7137  -48.0326 H         1 UNK         0.0800 
    134 H134       -2.2164  -12.7910  -50.5761 H         1 UNK         0.0800 
    135 H135       -0.7857  -13.6627  -51.0562 H         1 UNK         0.0800 
    136 H136       -1.0444  -15.9061  -51.9709 H         1 UNK         0.1150 
    137 H137       -4.9055  -17.7726  -51.9331 H         1 UNK         0.1150 
    138 H138       -4.2722  -14.1158  -49.7913 H         1 UNK         0.1150 
    139 H139       -6.4888  -15.0095  -49.9441 H         1 UNK         0.0800 
    140 H140       -6.8377  -16.2086  -51.1648 H         1 UNK         0.0800 
    141 H141       -5.2042  -15.5826  -47.7686 H         1 UNK         0.0800 
    142 H142       -5.8406  -16.8398  -46.7540 H         1 UNK         0.0800 
    143 H143       -3.3419  -16.9778  -48.5039 H         1 UNK         0.0600 
    144 H144       -3.6926  -16.4409  -45.7332 H         1 UNK         0.3000 
    145 H145       -0.4969  -17.4837  -44.5929 H         1 UNK         0.0600 
    146 H146       -0.3997  -15.0875  -43.8904 H         1 UNK         0.0600 
    147 H147       -0.0091  -15.2864  -45.5924 H         1 UNK         0.0600 
    148 H148       -1.5904  -14.6709  -45.1218 H         1 UNK         0.0600 
    149 H149       -2.3624  -16.1713  -43.0851 H         1 UNK         0.3000 
    150 H150       -4.3523  -17.1430  -42.0650 H         1 UNK         0.0600 
    151 H151       -5.3258  -19.3615  -42.6399 H         1 UNK         0.0600 
    152 H152       -5.1719  -19.1802  -40.9002 H         1 UNK         0.0600 
    153 H153       -4.0227  -20.1811  -41.7865 H         1 UNK         0.0600 
    154 H154       -2.5071  -18.7851  -40.4788 H         1 UNK         0.3000 
    155 H155       -0.2370  -16.2391  -39.7381 H         1 UNK         0.0600 
    156 H156       -0.7622  -16.6487  -37.3495 H         1 UNK         0.0600 
    157 H157       -2.3274  -17.3393  -37.7815 H         1 UNK         0.0600 
    158 H158       -2.0010  -15.6346  -38.0702 H         1 UNK         0.0600 
    159 H159       -0.5046  -18.8144  -38.6113 H         1 UNK         0.3000 
    160 H160        1.0990  -20.3200  -39.1519 H         1 UNK         0.0600 
    161 H161       -0.2910  -21.2588  -41.7336 H         1 UNK         0.0600 
    162 H162       -1.0301  -21.2358  -40.1379 H         1 UNK         0.0600 
    163 H163        0.3182  -22.3126  -40.4603 H         1 UNK         0.0600 
    164 H164        2.2734  -19.6604  -41.7028 H         1 UNK         0.3000 
    165 H165        5.2418  -21.5333  -40.9283 H         1 UNK         0.0600 
    166 H166        3.4427  -21.4998  -43.4072 H         1 UNK         0.0600 
    167 H167        5.1862  -21.7636  -43.4236 H         1 UNK         0.0600 
    168 H168        4.1265  -22.9121  -42.6203 H         1 UNK         0.0600 
    169 H169        4.4010  -19.2891  -42.6330 H         1 UNK         0.3000 
    170 H170        5.6899  -16.8032  -40.4874 H         1 UNK         0.0600 
    171 H171        7.9071  -17.6785  -41.2310 H         1 UNK         0.0600 
    172 H172        7.2766  -17.9394  -42.8533 H         1 UNK         0.0600 
    173 H173        7.4116  -16.3044  -42.2062 H         1 UNK         0.0600 
    174 H174        5.1057  -16.9376  -43.3280 H         1 UNK         0.3000 
    175 H175        1.6388  -16.5727  -43.1077 H         1 UNK         0.0600 
    176 H176        2.2004  -14.2013  -42.6075 H         1 UNK         0.0600 
    177 H177        3.5822  -14.2730  -43.6953 H         1 UNK         0.0600 
    178 H178        1.9466  -14.4140  -44.3312 H         1 UNK         0.0600 
    179 H179        3.3273  -16.1814  -45.3197 H         1 UNK         0.3000 
    180 H180        4.7289  -19.1101  -46.0068 H         1 UNK         0.0600 
    181 H181        1.8774  -18.9254  -47.1036 H         1 UNK         0.0600 
    182 H182        2.6390  -20.3542  -46.4037 H         1 UNK         0.0600 
    183 H183        3.2211  -19.7152  -47.9289 H         1 UNK         0.0600 
    184 H184        3.5125  -17.2035  -47.8144 H         1 UNK         0.3000 
    185 H185        5.9496  -14.6612  -47.4641 H         1 UNK         0.0600 
    186 H186        5.9508  -14.9661  -49.9319 H         1 UNK         0.0600 
    187 H187        6.8509  -16.2439  -49.1299 H         1 UNK         0.0600 
    188 H188        5.2424  -16.5705  -49.7544 H         1 UNK         0.0600 
    189 H189        3.9747  -13.7279  -47.7110 H         1 UNK         0.3000 
    190 H190       -4.6642  -19.0233  -45.8602 H         1 UNK         0.3000 
    191 H191       -5.1159  -21.3370  -47.4715 H         1 UNK         0.0600 
    192 H192       -5.4142  -22.4761  -45.2836 H         1 UNK         0.0600 
    193 H193       -6.2799  -20.9474  -45.3077 H         1 UNK         0.0600 
    194 H194       -4.7511  -21.0842  -44.4386 H         1 UNK         0.0600 
    195 H195       -2.3764  -20.2717  -45.4446 H         1 UNK         0.3000 
    196 H196       -0.7632  -22.5803  -45.6996 H         1 UNK         0.0600 
    197 H197        1.0308  -21.1430  -44.8541 H         1 UNK         0.0600 
    198 H198       -0.4523  -20.7188  -44.0191 H         1 UNK         0.0600 
    199 H199        0.1564  -19.6842  -45.3031 H         1 UNK         0.0600 
    200 H200       -0.8048  -19.5511  -47.6784 H         1 UNK         0.3000 
    201 H201        1.2332  -20.3500  -49.5016 H         1 UNK         0.0600 
    202 H202        0.5841  -17.9894  -49.1487 H         1 UNK         0.0600 
    203 H203       -1.0236  -18.2962  -49.8014 H         1 UNK         0.0600 
    204 H204        0.3941  -18.4127  -50.8410 H         1 UNK         0.0600 
    205 H205       -2.3115  -20.7157  -49.5640 H         1 UNK         0.3000 
    206 H206       -2.4878  -21.8841  -52.1797 H         1 UNK         0.0600 
    207 H207       -4.3933  -20.7583  -51.0503 H         1 UNK         0.0600 
    208 H208       -4.8251  -22.4320  -51.3701 H         1 UNK         0.0600 
    209 H209       -4.3682  -21.9453  -49.7503 H         1 UNK         0.0600 
    210 H210       -1.4017  -23.1986  -49.1874 H         1 UNK         0.3000 
    211 H211       -1.1077  -25.1912  -48.2712 H         1 UNK         0.0600 
    212 H212       -1.1386  -26.3647  -51.1060 H         1 UNK         0.0600 
    213 H213       -0.4701  -27.1226  -49.6677 H         1 UNK         0.0600 
    214 H214        0.2735  -25.6681  -50.3128 H         1 UNK         0.0600 
    215 H215       -3.6374  -24.1642  -48.3345 H         1 UNK         0.3000 
    216 H216       -5.7984  -24.4308  -48.0636 H         1 UNK         0.0600 
    217 H217       -4.9860  -25.9166  -46.2223 H         1 UNK         0.0600 
    218 H218       -6.5682  -26.4026  -46.8041 H         1 UNK         0.0600 
    219 H219       -5.1441  -27.3175  -47.2816 H         1 UNK         0.0600 
    220 H220       -4.8098  -25.0126  -50.8477 H         1 UNK         0.3000 
    221 H221       -7.3197  -26.2351  -51.8641 H         1 UNK         0.0600 
    222 H222       -5.9839  -27.6695  -53.4317 H         1 UNK         0.0600 
    223 H223       -4.5065  -27.2060  -52.5916 H         1 UNK         0.0600 
    224 H224       -5.7503  -28.1265  -51.7514 H         1 UNK         0.0600 
    225 H225       -4.1913  -24.7795  -52.9452 H         1 UNK         0.3000 
    226 H226       -5.4295  -23.8448  -55.4299 H         1 UNK         0.0600 
    227 H227       -2.5573  -23.6998  -54.3769 H         1 UNK         0.0600 
    228 H228       -3.2065  -24.9430  -55.4442 H         1 UNK         0.0600 
    229 H229       -3.0802  -23.2832  -56.0049 H         1 UNK         0.0600 
    230 H230       -6.8842  -22.5032  -53.8264 H         1 UNK         0.3000 
    231 H231       -5.9043  -20.0825  -52.6952 H         1 UNK         0.0600 
    232 H232       -8.3149  -19.4425  -52.6293 H         1 UNK         0.0600 
    233 H233       -8.0770  -21.0891  -52.0655 H         1 UNK         0.0600 
    234 H234       -8.7158  -20.7945  -53.6834 H         1 UNK         0.0600 
    235 H235       -6.9048  -20.8619  -55.9738 H         1 UNK         0.3000 
    236 H236       -6.5626  -18.0930  -56.9699 H         1 UNK         0.0600 
    237 H237       -8.4461  -19.4448  -57.8603 H         1 UNK         0.0600 
    238 H238       -7.2786  -19.1021  -59.1263 H         1 UNK         0.0600 
    239 H239       -7.3281  -20.7005  -58.3902 H         1 UNK         0.0600 
    240 H240       -4.2993  -18.4926  -55.8499 H         1 UNK         0.3000 
    241 H241       -2.3722  -20.0478  -57.2995 H         1 UNK         0.0600 
    242 H242       -3.6355  -16.9560  -58.1911 H         1 UNK         0.3800 
    243 H243       -2.3059  -16.5158  -59.2306 H         1 UNK         0.3800 
    244 H244       -0.6936  -18.9953  -55.7571 H         1 UNK         0.0800 
    245 H245       -2.0081  -19.7970  -54.9636 H         1 UNK         0.0800 
    246 H246       -3.1107  -18.8819  -53.0130 H         1 UNK         0.0800 
    247 H247       -1.4692  -18.4598  -52.5777 H         1 UNK         0.0800 
@<TRIPOS>BOND
     1    1    2 1    
     2    1  127 1    
     3    1  128 1    
     4    1  129 1    
     5    2    3 2    
     6    2    4 am   BACKBONE|DICT|INTERRES
     7    4    5 1    
     8    4  130 1    
     9    5    6 1    
    10    5   65 1    
    11    5  131 1    
    12    6    7 1    
    13    6  132 1    
    14    6  133 1    
    15    7    8 1    
    16    8    9 1    
    17    8  134 1    
    18    8  135 1    
    19    9   10 ar   
    20    9   14 ar   
    21   10   11 ar   
    22   10  136 1    
    23   11   12 ar   
    24   11  126 1    
    25   12   13 ar   
    26   12  137 1    
    27   13   14 ar   
    28   13   15 1    
    29   14  138 1    
    30   15   16 1    
    31   15  139 1    
    32   15  140 1    
    33   16   17 1    
    34   17   18 1    
    35   17  141 1    
    36   17  142 1    
    37   18   19 1    
    38   18   67 1    
    39   18  143 1    
    40   19   20 am   BACKBONE|DICT|INTERRES
    41   19  144 1    
    42   20   21 2    
    43   20   22 1    
    44   22   23 1    
    45   22   24 1    
    46   22  145 1    
    47   23  146 1    
    48   23  147 1    
    49   23  148 1    
    50   24   25 am   BACKBONE|DICT|INTERRES
    51   24  149 1    
    52   25   26 2    
    53   25   27 1    
    54   27   28 1    
    55   27   29 1    
    56   27  150 1    
    57   28  151 1    
    58   28  152 1    
    59   28  153 1    
    60   29   30 am   BACKBONE|DICT|INTERRES
    61   29  154 1    
    62   30   31 2    
    63   30   32 1    
    64   32   33 1    
    65   32   34 1    
    66   32  155 1    
    67   33  156 1    
    68   33  157 1    
    69   33  158 1    
    70   34   35 am   BACKBONE|DICT|INTERRES
    71   34  159 1    
    72   35   36 2    
    73   35   37 1    
    74   37   38 1    
    75   37   39 1    
    76   37  160 1    
    77   38  161 1    
    78   38  162 1    
    79   38  163 1    
    80   39   40 am   BACKBONE|DICT|INTERRES
    81   39  164 1    
    82   40   41 2    
    83   40   42 1    
    84   42   43 1    
    85   42   44 1    
    86   42  165 1    
    87   43  166 1    
    88   43  167 1    
    89   43  168 1    
    90   44   45 am   BACKBONE|DICT|INTERRES
    91   44  169 1    
    92   45   46 2    
    93   45   47 1    
    94   47   48 1    
    95   47   49 1    
    96   47  170 1    
    97   48  171 1    
    98   48  172 1    
    99   48  173 1    
   100   49   50 am   BACKBONE|DICT|INTERRES
   101   49  174 1    
   102   50   51 2    
   103   50   52 1    
   104   52   53 1    
   105   52   54 1    
   106   52  175 1    
   107   53  176 1    
   108   53  177 1    
   109   53  178 1    
   110   54   55 am   BACKBONE|DICT|INTERRES
   111   54  179 1    
   112   55   56 2    
   113   55   57 1    
   114   57   58 1    
   115   57   59 1    
   116   57  180 1    
   117   58  181 1    
   118   58  182 1    
   119   58  183 1    
   120   59   60 am   BACKBONE|DICT|INTERRES
   121   59  184 1    
   122   60   61 2    
   123   60   62 1    
   124   62   63 1    
   125   62   64 1    
   126   62  185 1    
   127   63  186 1    
   128   63  187 1    
   129   63  188 1    
   130   64   65 am   BACKBONE|DICT|INTERRES
   131   64  189 1    
   132   65   66 2    
   133   67   68 2    
   134   67   69 am   BACKBONE|DICT|INTERRES
   135   69   70 1    
   136   69  190 1    
   137   70   71 1    
   138   70   72 1    
   139   70  191 1    
   140   71  192 1    
   141   71  193 1    
   142   71  194 1    
   143   72   73 2    
   144   72   74 am   BACKBONE|DICT|INTERRES
   145   74   75 1    
   146   74  195 1    
   147   75   76 1    
   148   75   77 1    
   149   75  196 1    
   150   76  197 1    
   151   76  198 1    
   152   76  199 1    
   153   77   78 2    
   154   77   79 am   BACKBONE|DICT|INTERRES
   155   79   80 1    
   156   79  200 1    
   157   80   81 1    
   158   80   82 1    
   159   80  201 1    
   160   81  202 1    
   161   81  203 1    
   162   81  204 1    
   163   82   83 2    
   164   82   84 am   BACKBONE|DICT|INTERRES
   165   84   85 1    
   166   84  205 1    
   167   85   86 1    
   168   85   87 1    
   169   85  206 1    
   170   86  207 1    
   171   86  208 1    
   172   86  209 1    
   173   87   88 2    
   174   87   89 am   BACKBONE|DICT|INTERRES
   175   89   90 1    
   176   89  210 1    
   177   90   91 1    
   178   90   92 1    
   179   90  211 1    
   180   91  212 1    
   181   91  213 1    
   182   91  214 1    
   183   92   93 2    
   184   92   94 am   BACKBONE|DICT|INTERRES
   185   94   95 1    
   186   94  215 1    
   187   95   96 1    
   188   95   97 1    
   189   95  216 1    
   190   96  217 1    
   191   96  218 1    
   192   96  219 1    
   193   97   98 2    
   194   97   99 am   BACKBONE|DICT|INTERRES
   195   99  100 1    
   196   99  220 1    
   197  100  101 1    
   198  100  102 1    
   199  100  221 1    
   200  101  222 1    
   201  101  223 1    
   202  101  224 1    
   203  102  103 2    
   204  102  104 am   BACKBONE|DICT|INTERRES
   205  104  105 1    
   206  104  225 1    
   207  105  106 1    
   208  105  107 1    
   209  105  226 1    
   210  106  227 1    
   211  106  228 1    
   212  106  229 1    
   213  107  108 2    
   214  107  109 am   BACKBONE|DICT|INTERRES
   215  109  110 1    
   216  109  230 1    
   217  110  111 1    
   218  110  112 1    
   219  110  231 1    
   220  111  232 1    
   221  111  233 1    
   222  111  234 1    
   223  112  113 2    
   224  112  114 am   BACKBONE|DICT|INTERRES
   225  114  115 1    
   226  114  235 1    
   227  115  116 1    
   228  115  117 1    
   229  115  236 1    
   230  116  237 1    
   231  116  238 1    
   232  116  239 1    
   233  117  118 2    
   234  117  119 am   BACKBONE|DICT|INTERRES
   235  119  120 1    
   236  119  240 1    
   237  120  121 1    
   238  120  124 1    
   239  120  241 1    
   240  121  122 am   BACKBONE|DICT|INTERRES
   241  121  123 2    
   242  122  242 1    
   243  122  243 1    
   244  124  125 1    
   245  124  244 1    
   246  124  245 1    
   247  125  126 1    
   248  126  246 1    
   249  126  247 1    
@<TRIPOS>SUBSTRUCTURE
     1 UNK         1 GROUP             0       ****    0 ROOT    
