@<TRIPOS>MOLECULE
3R540
247   249    1
SMALL
USER_CHARGES


@<TRIPOS>ATOM
      1 CA          7.5487  -15.8577  -45.3438 C.3       0 UNK        -0.1800 
      2 C           6.0401  -15.8774  -45.5405 C.2       0 UNK         0.5000 
      3 O           5.3195  -15.1911  -44.8164 O.2       0 UNK        -0.5000 
      4 N           5.5609  -16.6435  -46.5316 N.am      1 UNK        -0.5000 
      5 CA          4.1390  -16.8336  -46.8591 C.3       1 UNK         0.1400 
      6 C6          3.9547  -17.9606  -47.9153 C.3       23 UNK        -0.0398 
      7 S7          4.2933  -17.4488  -49.6461 S.3       23 UNK        -0.2404 
      8 C8          3.3281  -18.6400  -50.6446 C.3       23 UNK        -0.0205 
      9 C9          1.8018  -18.6029  -50.5125 C.ar      23 UNK        -0.0193 
     10 C10         1.0601  -19.5199  -51.2634 C.ar      23 UNK        -0.1150 
     11 C11        -0.3260  -19.6235  -51.1157 C.ar      23 UNK        -0.0193 
     12 C12        -0.9771  -18.8004  -50.1925 C.ar      23 UNK        -0.1150 
     13 C13        -0.2556  -17.8678  -49.4449 C.ar      23 UNK        -0.0193 
     14 C14         1.1203  -17.7428  -49.6425 C.ar      23 UNK        -0.1150 
     15 C15        -0.9393  -17.0503  -48.3612 C.3       23 UNK        -0.0205 
     16 S16        -0.5693  -17.7200  -46.7040 S.3       23 UNK        -0.2404 
     17 C17        -1.3415  -19.3720  -46.7803 C.3       23 UNK        -0.0398 
     18 CA         -0.3313  -20.5104  -47.0771 C.3       11 UNK         0.1400 
     19 N           0.7335  -20.6245  -46.0760 N.am      11 UNK        -0.5000 
     20 C           1.7886  -21.4469  -46.1834 C.2       10 UNK         0.5000 
     21 O           2.0277  -22.1348  -47.1760 O.2       10 UNK        -0.5000 
     22 CA          2.6966  -21.5685  -44.9493 C.3       10 UNK         0.1400 
     23 CB          3.7626  -20.4613  -44.9375 C.3       10 UNK        -0.1800 
     24 N           1.9205  -21.5379  -43.7083 N.am      10 UNK        -0.5000 
     25 C           1.1468  -22.5483  -43.2827 C.2       9 UNK         0.5000 
     26 O           1.0412  -23.6199  -43.8768 O.2       9 UNK        -0.5000 
     27 CA          0.3202  -22.3157  -42.0036 C.3       9 UNK         0.1400 
     28 CB          1.1542  -22.6388  -40.7553 C.3       9 UNK        -0.1800 
     29 N          -0.1976  -20.9524  -41.8998 N.am      9 UNK        -0.5000 
     30 C          -1.0887  -20.4107  -42.7412 C.2       8 UNK         0.5000 
     31 O          -1.6243  -21.0304  -43.6594 O.2       8 UNK        -0.5000 
     32 CA         -1.3933  -18.9119  -42.5618 C.3       8 UNK         0.1400 
     33 CB         -2.6248  -18.7160  -41.6664 C.3       8 UNK        -0.1800 
     34 N          -0.2752  -18.1287  -42.0267 N.am      8 UNK        -0.5000 
     35 C           0.9347  -18.0205  -42.5975 C.2       7 UNK         0.5000 
     36 O           1.2789  -18.6748  -43.5829 O.2       7 UNK        -0.5000 
     37 CA          1.9081  -17.0166  -41.9567 C.3       7 UNK         0.1400 
     38 CB          3.0502  -16.6098  -42.9039 C.3       7 UNK        -0.1800 
     39 N           1.1793  -15.8248  -41.5247 N.am      7 UNK        -0.5000 
     40 C           1.3227  -15.2043  -40.3462 C.2       6 UNK         0.5000 
     41 O           2.1360  -15.5574  -39.4914 O.2       6 UNK        -0.5000 
     42 CA          0.4060  -13.9966  -40.0496 C.3       6 UNK         0.1400 
     43 CB          1.2111  -12.6917  -39.9670 C.3       6 UNK        -0.1800 
     44 N          -0.6711  -13.8254  -41.0264 N.am      6 UNK        -0.5000 
     45 C          -1.8037  -14.5418  -41.0372 C.2       5 UNK         0.5000 
     46 O          -2.0784  -15.3905  -40.1886 O.2       5 UNK        -0.5000 
     47 CA         -2.7786  -14.3013  -42.2089 C.3       5 UNK         0.1400 
     48 CB         -3.8706  -13.3010  -41.8015 C.3       5 UNK        -0.1800 
     49 N          -2.1400  -13.8337  -43.4437 N.am      5 UNK        -0.5000 
     50 C          -1.1852  -14.4909  -44.1163 C.2       4 UNK         0.5000 
     51 O          -0.7149  -15.5620  -43.7425 O.2       4 UNK        -0.5000 
     52 CA         -0.6298  -13.8478  -45.3979 C.3       4 UNK         0.1400 
     53 CB         -1.4651  -12.6619  -45.9294 C.3       4 UNK        -0.1800 
     54 N           0.7723  -13.4593  -45.2390 N.am      4 UNK        -0.5000 
     55 C           1.2875  -12.5803  -44.3630 C.2       3 UNK         0.5000 
     56 O           0.6266  -12.0384  -43.4752 O.2       3 UNK        -0.5000 
     57 CA          2.7871  -12.2238  -44.5027 C.3       3 UNK         0.1400 
     58 CB          3.5882  -12.6859  -43.2773 C.3       3 UNK        -0.1800 
     59 N           3.4092  -12.7778  -45.7069 N.am      3 UNK        -0.5000 
     60 C           3.1759  -12.3496  -46.9569 C.2       2 UNK         0.5000 
     61 O           2.5051  -11.3499  -47.2162 O.2       2 UNK        -0.5000 
     62 CA          3.7513  -13.1879  -48.1177 C.3       2 UNK         0.1400 
     63 CB          4.9343  -12.4596  -48.7740 C.3       2 UNK        -0.1800 
     64 N           4.1844  -14.5345  -47.7390 N.am      2 UNK        -0.5000 
     65 C           3.4161  -15.5140  -47.2363 C.2       1 UNK         0.5000 
     66 O           2.2087  -15.3905  -47.0318 O.2       1 UNK        -0.5000 
     67 C          -1.0652  -21.8548  -47.2535 C.2       11 UNK         0.5000 
     68 O          -1.1661  -22.3462  -48.3759 O.2       11 UNK        -0.5000 
     69 N          -1.5106  -22.4510  -46.1372 N.am      12 UNK        -0.5000 
     70 CA         -2.2048  -23.7390  -46.0965 C.3       12 UNK         0.1400 
     71 CB         -2.7013  -24.0104  -44.6693 C.3       12 UNK        -0.1800 
     72 C          -1.3592  -24.9168  -46.6123 C.2       12 UNK         0.5000 
     73 O          -1.8975  -25.7875  -47.2969 O.2       12 UNK        -0.5000 
     74 N          -0.0554  -24.9133  -46.2981 N.am      13 UNK        -0.5000 
     75 CA          0.9150  -25.8950  -46.7852 C.3       13 UNK         0.1400 
     76 CB          2.2480  -25.7207  -46.0421 C.3       13 UNK        -0.1800 
     77 C           1.1324  -25.8213  -48.3076 C.2       13 UNK         0.5000 
     78 O           1.3241  -26.8621  -48.9378 O.2       13 UNK        -0.5000 
     79 N           1.0873  -24.6056  -48.8706 N.am      14 UNK        -0.5000 
     80 CA          1.1424  -24.3667  -50.3102 C.3       14 UNK         0.1400 
     81 CB          1.5056  -22.8999  -50.5818 C.3       14 UNK        -0.1800 
     82 C          -0.1710  -24.7789  -51.0007 C.2       14 UNK         0.5000 
     83 O          -0.1355  -25.6164  -51.9032 O.2       14 UNK        -0.5000 
     84 N          -1.2996  -24.2239  -50.5394 N.am      15 UNK        -0.5000 
     85 CA         -2.6542  -24.5644  -50.9690 C.3       15 UNK         0.1400 
     86 CB         -2.9050  -24.1872  -52.4440 C.3       15 UNK        -0.1800 
     87 C          -3.6629  -23.8517  -50.0587 C.2       15 UNK         0.5000 
     88 O          -3.7133  -22.6219  -50.0490 O.2       15 UNK        -0.5000 
     89 N          -4.4727  -24.6296  -49.3293 N.am      16 UNK        -0.5000 
     90 CA         -5.5217  -24.1202  -48.4402 C.3       16 UNK         0.1400 
     91 CB         -6.0004  -25.2565  -47.5249 C.3       16 UNK        -0.1800 
     92 C          -6.7079  -23.4792  -49.1876 C.2       16 UNK         0.5000 
     93 O          -7.3742  -22.6066  -48.6305 O.2       16 UNK        -0.5000 
     94 N          -6.9320  -23.8829  -50.4457 N.am      17 UNK        -0.5000 
     95 CA         -7.9623  -23.3583  -51.3475 C.3       17 UNK         0.1400 
     96 CB         -8.2973  -24.4403  -52.3901 C.3       17 UNK        -0.1800 
     97 C          -7.5499  -22.0227  -52.0071 C.2       17 UNK         0.5000 
     98 O          -7.7830  -21.8253  -53.2009 O.2       17 UNK        -0.5000 
     99 N          -6.9415  -21.1208  -51.2264 N.am      18 UNK        -0.5000 
    100 CA        -6.3075  -19.8692  -51.6580 C.3       18 UNK         0.1400 
    101 CB        -5.5701  -19.2561  -50.4564 C.3       18 UNK        -0.1800 
    102 C         -7.2438  -18.8341  -52.3165 C.2       18 UNK         0.5000 
    103 O         -6.7578  -17.8670  -52.9027 O.2       18 UNK        -0.5000 
    104 N         -8.5625  -19.0511  -52.2287 N.am      19 UNK        -0.5000 
    105 CA        -9.5803  -18.2978  -52.9611 C.3       19 UNK         0.1400 
    106 CB       -10.9585  -18.6113  -52.3588 C.3       19 UNK        -0.1800 
    107 C         -9.5753  -18.5919  -54.4770 C.2       19 UNK         0.5000 
    108 O        -10.0071  -17.7364  -55.2512 O.2       19 UNK        -0.5000 
    109 N         -9.1010  -19.7827  -54.8702 N.am      20 UNK        -0.5000 
    110 CA        -9.0065  -20.2345  -56.2598 C.3       20 UNK         0.1400 
    111 CB        -9.9023  -21.4703  -56.4434 C.3       20 UNK        -0.1800 
    112 C         -7.5566  -20.5605  -56.6580 C.2       20 UNK         0.5000 
    113 O         -7.1672  -20.2922  -57.7957 O.2       20 UNK        -0.5000 
    114 N         -6.7884  -21.1402  -55.7278 N.am      21 UNK        -0.5000 
    115 CA        -5.3839  -21.5078  -55.8924 C.3       21 UNK         0.1400 
    116 CB        -5.0774  -22.6592  -54.9151 C.3       21 UNK        -0.1800 
    117 C         -4.4362  -20.3095  -55.6689 C.2       21 UNK         0.5000 
    118 O         -4.8841  -19.1714  -55.5145 O.2       21 UNK        -0.5000 
    119 N         -3.1309  -20.6075  -55.6358 N.am      22 UNK        -0.5000 
    120 CA        -2.0238  -19.6881  -55.3032 C.3       22 UNK         0.1400 
    121 C         -1.6547  -18.6710  -56.4256 C.2       22 UNK         0.5000 
    122 N         -2.1684  -18.8089  -57.6417 N.am      22 UNK        -0.7600 
    123 O         -0.8630  -17.7585  -56.2044 O.2       22 UNK        -0.5000 
    124 C124       -2.1612  -18.9986  -53.9118 C.3       23 UNK        -0.0398 
    125 S125       -2.6763  -20.1247  -52.5702 S.3       23 UNK        -0.2404 
    126 C126       -1.0888  -20.6923  -51.8885 C.3       23 UNK        -0.0205 
    127 H127        8.0601  -16.5005  -46.0606 H         1 UNK         0.0600 
    128 H128        7.7990  -16.2003  -44.3398 H         1 UNK         0.0600 
    129 H129        7.9287  -14.8432  -45.4637 H         1 UNK         0.0600 
    130 H130        6.2104  -17.1604  -47.1076 H         1 UNK         0.3000 
    131 H131        3.6639  -17.1802  -45.9389 H         1 UNK         0.0600 
    132 H132        4.6053  -18.8036  -47.6796 H         1 UNK         0.0800 
    133 H133        2.9470  -18.3663  -47.8329 H         1 UNK         0.0800 
    134 H134        3.5841  -18.4771  -51.6923 H         1 UNK         0.0800 
    135 H135        3.6733  -19.6453  -50.3983 H         1 UNK         0.0800 
    136 H136        1.5744  -20.1854  -51.9423 H         1 UNK         0.1150 
    137 H137       -2.0404  -18.9108  -50.0331 H         1 UNK         0.1150 
    138 H138        1.6513  -17.0081  -49.0598 H         1 UNK         0.1150 
    139 H139       -0.5905  -16.0177  -48.4109 H         1 UNK         0.0800 
    140 H140       -2.0190  -17.0209  -48.5149 H         1 UNK         0.0800 
    141 H141       -2.1314  -19.3558  -47.5331 H         1 UNK         0.0800 
    142 H142       -1.8463  -19.5451  -45.8301 H         1 UNK         0.0800 
    143 H143        0.1565  -20.2903  -48.0283 H         1 UNK         0.0600 
    144 H144        0.6392  -20.0610  -45.2398 H         1 UNK         0.3000 
    145 H145        3.2131  -22.5291  -45.0047 H         1 UNK         0.0600 
    146 H146        4.3911  -20.5255  -44.0493 H         1 UNK         0.0600 
    147 H147        3.3192  -19.4665  -44.9643 H         1 UNK         0.0600 
    148 H148        4.4169  -20.5480  -45.8055 H         1 UNK         0.0600 
    149 H149        1.8743  -20.6458  -43.2315 H         1 UNK         0.3000 
    150 H150       -0.5320  -22.9980  -42.0308 H         1 UNK         0.0600 
    151 H151        1.5375  -23.6593  -40.7961 H         1 UNK         0.0600 
    152 H152        0.5557  -22.5539  -39.8481 H         1 UNK         0.0600 
    153 H153        2.0103  -21.9700  -40.6577 H         1 UNK         0.0600 
    154 H154        0.1933  -20.3671  -41.1765 H         1 UNK         0.3000 
    155 H155       -1.6235  -18.5076  -43.5496 H         1 UNK         0.0600 
    156 H156       -3.4779  -19.2811  -42.0445 H         1 UNK         0.0600 
    157 H157       -2.9228  -17.6685  -41.6302 H         1 UNK         0.0600 
    158 H158       -2.4364  -19.0476  -40.6446 H         1 UNK         0.0600 
    159 H159       -0.4775  -17.5474  -41.2261 H         1 UNK         0.3000 
    160 H160        2.3433  -17.5269  -41.0954 H         1 UNK         0.0600 
    161 H161        2.6727  -16.0858  -43.7832 H         1 UNK         0.0600 
    162 H162        3.6084  -17.4795  -43.2521 H         1 UNK         0.0600 
    163 H163        3.7632  -15.9578  -42.4002 H         1 UNK         0.0600 
    164 H164        0.4636  -15.5086  -42.1742 H         1 UNK         0.3000 
    165 H165       -0.0376  -14.1720  -39.0672 H         1 UNK         0.0600 
    166 H166        0.5855  -11.8660  -39.6275 H         1 UNK         0.0600 
    167 H167        2.0407  -12.7802  -39.2645 H         1 UNK         0.0600 
    168 H168        1.6247  -12.4175  -40.9351 H         1 UNK         0.0600 
    169 H169       -0.5034  -13.1660  -41.7770 H         1 UNK         0.3000 
    170 H170       -3.2571  -15.2570  -42.4318 H         1 UNK         0.0600 
    171 H171       -3.4547  -12.3132  -41.5988 H         1 UNK         0.0600 
    172 H172       -4.6224  -13.1959  -42.5839 H         1 UNK         0.0600 
    173 H173       -4.3871  -13.6315  -40.8993 H         1 UNK         0.0600 
    174 H174       -2.4468  -12.9403  -43.8000 H         1 UNK         0.3000 
    175 H175       -0.6450  -14.6282  -46.1597 H         1 UNK         0.0600 
    176 H176       -1.4737  -11.8165  -45.2407 H         1 UNK         0.0600 
    177 H177       -1.0661  -12.3049  -46.8791 H         1 UNK         0.0600 
    178 H178       -2.4993  -12.9584  -46.1091 H         1 UNK         0.0600 
    179 H179        1.4104  -13.9268  -45.8750 H         1 UNK         0.3000 
    180 H180        2.8576  -11.1357  -44.5588 H         1 UNK         0.0600 
    181 H181        4.6587  -12.5383  -43.4218 H         1 UNK         0.0600 
    182 H182        3.4218  -13.7406  -43.0639 H         1 UNK         0.0600 
    183 H183        3.3063  -12.1174  -42.3925 H         1 UNK         0.0600 
    184 H184        3.9824  -13.6034  -45.5746 H         1 UNK         0.3000 
    185 H185        2.9580  -13.2955  -48.8601 H         1 UNK         0.0600 
    186 H186        5.2936  -12.9995  -49.6505 H         1 UNK         0.0600 
    187 H187        4.6454  -11.4614  -49.1060 H         1 UNK         0.0600 
    188 H188        5.7697  -12.3466  -48.0818 H         1 UNK         0.0600 
    189 H189        5.1665  -14.7348  -47.8587 H         1 UNK         0.3000 
    190 H190       -1.4053  -21.9704  -45.2463 H         1 UNK         0.3000 
    191 H191       -3.0749  -23.6572  -46.7475 H         1 UNK         0.0600 
    192 H192       -3.3781  -23.2254  -44.3314 H         1 UNK         0.0600 
    193 H193       -1.8739  -24.0667  -43.9611 H         1 UNK         0.0600 
    194 H194       -3.2458  -24.9541  -44.6170 H         1 UNK         0.0600 
    195 H195        0.2979  -24.2018  -45.6668 H         1 UNK         0.3000 
    196 H196        0.5275  -26.8897  -46.5555 H         1 UNK         0.0600 
    197 H197        2.1256  -25.8788  -44.9707 H         1 UNK         0.0600 
    198 H198        2.6628  -24.7233  -46.1900 H         1 UNK         0.0600 
    199 H199        2.9888  -26.4404  -46.3925 H         1 UNK         0.0600 
    200 H200        0.9491  -23.7951  -48.2790 H         1 UNK         0.3000 
    201 H201        1.9417  -24.9819  -50.7293 H         1 UNK         0.0600 
    202 H202        2.5032  -22.6680  -50.2086 H         1 UNK         0.0600 
    203 H203        0.8103  -22.2143  -50.0999 H         1 UNK         0.0600 
    204 H204        1.4986  -22.6867  -51.6511 H         1 UNK         0.0600 
    205 H205       -1.2472  -23.5429  -49.7809 H         1 UNK         0.3000 
    206 H206       -2.7812  -25.6432  -50.8591 H         1 UNK         0.0600 
    207 H207       -2.6998  -23.1337  -52.6307 H         1 UNK         0.0600 
    208 H208       -2.2898  -24.7727  -53.1260 H         1 UNK         0.0600 
    209 H209       -3.9442  -24.3714  -52.7182 H         1 UNK         0.0600 
    210 H210       -4.3615  -25.6328  -49.3681 H         1 UNK         0.3000 
    211 H211       -5.0882  -23.3394  -47.8128 H         1 UNK         0.0600 
    212 H212       -6.4322  -26.0791  -48.0962 H         1 UNK         0.0600 
    213 H213       -6.7629  -24.9033  -46.8293 H         1 UNK         0.0600 
    214 H214       -5.1784  -25.6546  -46.9292 H         1 UNK         0.0600 
    215 H215       -6.3127  -24.5788  -50.8330 H         1 UNK         0.3000 
    216 H216       -8.8678  -23.1613  -50.7703 H         1 UNK         0.0600 
    217 H217       -9.1151  -24.1227  -53.0385 H         1 UNK         0.0600 
    218 H218       -8.6099  -25.3679  -51.9103 H         1 UNK         0.0600 
    219 H219       -7.4403  -24.6630  -53.0272 H         1 UNK         0.0600 
    220 H220       -6.8331  -21.3602  -50.2483 H         1 UNK         0.3000 
    221 H221       -5.5690  -20.1340  -52.4156 H         1 UNK         0.0600 
    222 H222       -6.2591  -18.9967  -49.6520 H         1 UNK         0.0600 
    223 H223       -4.8284  -19.9484  -50.0563 H         1 UNK         0.0600 
    224 H224       -5.0379  -18.3482  -50.7435 H         1 UNK         0.0600 
    225 H225       -8.8756  -19.8618  -51.7160 H         1 UNK         0.3000 
    226 H226       -9.3828  -17.2320  -52.8286 H         1 UNK         0.0600 
    227 H227      -10.9968  -18.3477  -51.3017 H         1 UNK         0.0600 
    228 H228      -11.7427  -18.0446  -52.8625 H         1 UNK         0.0600 
    229 H229      -11.2071  -19.6694  -52.4515 H         1 UNK         0.0600 
    230 H230       -8.7441  -20.4199  -54.1658 H         1 UNK         0.3000 
    231 H231       -9.3587  -19.4577  -56.9415 H         1 UNK         0.0600 
    232 H232       -9.8520  -21.8419  -57.4677 H         1 UNK         0.0600 
    233 H233      -10.9455  -21.2333  -56.2340 H         1 UNK         0.0600 
    234 H234       -9.6047  -22.2849  -55.7815 H         1 UNK         0.0600 
    235 H235       -7.1853  -21.3390  -54.8132 H         1 UNK         0.3000 
    236 H236       -5.2318  -21.8704  -56.9109 H         1 UNK         0.0600 
    237 H237       -5.0709  -22.3144  -53.8801 H         1 UNK         0.0600 
    238 H238       -5.8171  -23.4561  -54.9956 H         1 UNK         0.0600 
    239 H239       -4.1048  -23.1082  -55.1175 H         1 UNK         0.0600 
    240 H240       -2.8552  -21.5663  -55.7893 H         1 UNK         0.3000 
    241 H241       -1.1487  -20.3349  -55.2363 H         1 UNK         0.0600 
    242 H242       -2.8176  -19.5529  -57.8413 H         1 UNK         0.3800 
    243 H243       -1.9164  -18.1540  -58.3655 H         1 UNK         0.3800 
    244 H244       -2.8992  -18.1968  -53.9626 H         1 UNK         0.0800 
    245 H245       -1.2226  -18.5198  -53.6283 H         1 UNK         0.0800 
    246 H246       -1.2957  -21.5142  -51.2036 H         1 UNK         0.0800 
    247 H247       -0.4827  -21.1042  -52.6965 H         1 UNK         0.0800 
@<TRIPOS>BOND
     1    1    2 1    
     2    1  127 1    
     3    1  128 1    
     4    1  129 1    
     5    2    3 2    
     6    2    4 am   BACKBONE|DICT|INTERRES
     7    4    5 1    
     8    4  130 1    
     9    5    6 1    
    10    5   65 1    
    11    5  131 1    
    12    6    7 1    
    13    6  132 1    
    14    6  133 1    
    15    7    8 1    
    16    8    9 1    
    17    8  134 1    
    18    8  135 1    
    19    9   10 ar   
    20    9   14 ar   
    21   10   11 ar   
    22   10  136 1    
    23   11   12 ar   
    24   11  126 1    
    25   12   13 ar   
    26   12  137 1    
    27   13   14 ar   
    28   13   15 1    
    29   14  138 1    
    30   15   16 1    
    31   15  139 1    
    32   15  140 1    
    33   16   17 1    
    34   17   18 1    
    35   17  141 1    
    36   17  142 1    
    37   18   19 1    
    38   18   67 1    
    39   18  143 1    
    40   19   20 am   BACKBONE|DICT|INTERRES
    41   19  144 1    
    42   20   21 2    
    43   20   22 1    
    44   22   23 1    
    45   22   24 1    
    46   22  145 1    
    47   23  146 1    
    48   23  147 1    
    49   23  148 1    
    50   24   25 am   BACKBONE|DICT|INTERRES
    51   24  149 1    
    52   25   26 2    
    53   25   27 1    
    54   27   28 1    
    55   27   29 1    
    56   27  150 1    
    57   28  151 1    
    58   28  152 1    
    59   28  153 1    
    60   29   30 am   BACKBONE|DICT|INTERRES
    61   29  154 1    
    62   30   31 2    
    63   30   32 1    
    64   32   33 1    
    65   32   34 1    
    66   32  155 1    
    67   33  156 1    
    68   33  157 1    
    69   33  158 1    
    70   34   35 am   BACKBONE|DICT|INTERRES
    71   34  159 1    
    72   35   36 2    
    73   35   37 1    
    74   37   38 1    
    75   37   39 1    
    76   37  160 1    
    77   38  161 1    
    78   38  162 1    
    79   38  163 1    
    80   39   40 am   BACKBONE|DICT|INTERRES
    81   39  164 1    
    82   40   41 2    
    83   40   42 1    
    84   42   43 1    
    85   42   44 1    
    86   42  165 1    
    87   43  166 1    
    88   43  167 1    
    89   43  168 1    
    90   44   45 am   BACKBONE|DICT|INTERRES
    91   44  169 1    
    92   45   46 2    
    93   45   47 1    
    94   47   48 1    
    95   47   49 1    
    96   47  170 1    
    97   48  171 1    
    98   48  172 1    
    99   48  173 1    
   100   49   50 am   BACKBONE|DICT|INTERRES
   101   49  174 1    
   102   50   51 2    
   103   50   52 1    
   104   52   53 1    
   105   52   54 1    
   106   52  175 1    
   107   53  176 1    
   108   53  177 1    
   109   53  178 1    
   110   54   55 am   BACKBONE|DICT|INTERRES
   111   54  179 1    
   112   55   56 2    
   113   55   57 1    
   114   57   58 1    
   115   57   59 1    
   116   57  180 1    
   117   58  181 1    
   118   58  182 1    
   119   58  183 1    
   120   59   60 am   BACKBONE|DICT|INTERRES
   121   59  184 1    
   122   60   61 2    
   123   60   62 1    
   124   62   63 1    
   125   62   64 1    
   126   62  185 1    
   127   63  186 1    
   128   63  187 1    
   129   63  188 1    
   130   64   65 am   BACKBONE|DICT|INTERRES
   131   64  189 1    
   132   65   66 2    
   133   67   68 2    
   134   67   69 am   BACKBONE|DICT|INTERRES
   135   69   70 1    
   136   69  190 1    
   137   70   71 1    
   138   70   72 1    
   139   70  191 1    
   140   71  192 1    
   141   71  193 1    
   142   71  194 1    
   143   72   73 2    
   144   72   74 am   BACKBONE|DICT|INTERRES
   145   74   75 1    
   146   74  195 1    
   147   75   76 1    
   148   75   77 1    
   149   75  196 1    
   150   76  197 1    
   151   76  198 1    
   152   76  199 1    
   153   77   78 2    
   154   77   79 am   BACKBONE|DICT|INTERRES
   155   79   80 1    
   156   79  200 1    
   157   80   81 1    
   158   80   82 1    
   159   80  201 1    
   160   81  202 1    
   161   81  203 1    
   162   81  204 1    
   163   82   83 2    
   164   82   84 am   BACKBONE|DICT|INTERRES
   165   84   85 1    
   166   84  205 1    
   167   85   86 1    
   168   85   87 1    
   169   85  206 1    
   170   86  207 1    
   171   86  208 1    
   172   86  209 1    
   173   87   88 2    
   174   87   89 am   BACKBONE|DICT|INTERRES
   175   89   90 1    
   176   89  210 1    
   177   90   91 1    
   178   90   92 1    
   179   90  211 1    
   180   91  212 1    
   181   91  213 1    
   182   91  214 1    
   183   92   93 2    
   184   92   94 am   BACKBONE|DICT|INTERRES
   185   94   95 1    
   186   94  215 1    
   187   95   96 1    
   188   95   97 1    
   189   95  216 1    
   190   96  217 1    
   191   96  218 1    
   192   96  219 1    
   193   97   98 2    
   194   97   99 am   BACKBONE|DICT|INTERRES
   195   99  100 1    
   196   99  220 1    
   197  100  101 1    
   198  100  102 1    
   199  100  221 1    
   200  101  222 1    
   201  101  223 1    
   202  101  224 1    
   203  102  103 2    
   204  102  104 am   BACKBONE|DICT|INTERRES
   205  104  105 1    
   206  104  225 1    
   207  105  106 1    
   208  105  107 1    
   209  105  226 1    
   210  106  227 1    
   211  106  228 1    
   212  106  229 1    
   213  107  108 2    
   214  107  109 am   BACKBONE|DICT|INTERRES
   215  109  110 1    
   216  109  230 1    
   217  110  111 1    
   218  110  112 1    
   219  110  231 1    
   220  111  232 1    
   221  111  233 1    
   222  111  234 1    
   223  112  113 2    
   224  112  114 am   BACKBONE|DICT|INTERRES
   225  114  115 1    
   226  114  235 1    
   227  115  116 1    
   228  115  117 1    
   229  115  236 1    
   230  116  237 1    
   231  116  238 1    
   232  116  239 1    
   233  117  118 2    
   234  117  119 am   BACKBONE|DICT|INTERRES
   235  119  120 1    
   236  119  240 1    
   237  120  121 1    
   238  120  124 1    
   239  120  241 1    
   240  121  122 am   BACKBONE|DICT|INTERRES
   241  121  123 2    
   242  122  242 1    
   243  122  243 1    
   244  124  125 1    
   245  124  244 1    
   246  124  245 1    
   247  125  126 1    
   248  126  246 1    
   249  126  247 1    
@<TRIPOS>SUBSTRUCTURE
     1 UNK         1 GROUP             0       ****    0 ROOT    
