@<TRIPOS>MOLECULE
3R540
247   249    1
SMALL
USER_CHARGES


@<TRIPOS>ATOM
      1 CA         -3.3709  -11.6421  -47.0590 C.3       0 UNK        -0.1800 
      2 C          -3.2000  -13.1398  -46.8535 C.2       0 UNK         0.5000 
      3 O          -4.0913  -13.7862  -46.3018 O.2       0 UNK        -0.5000 
      4 N          -2.0536  -13.6908  -47.2791 N.am      1 UNK        -0.5000 
      5 CA         -1.6633  -15.0978  -47.1304 C.3       1 UNK         0.1400 
      6 C6         -2.4961  -16.0386  -48.0467 C.3       23 UNK        -0.0398 
      7 S7         -1.7649  -17.7015  -48.2173 S.3       23 UNK        -0.2404 
      8 C8         -0.6343  -17.4462  -49.6175 C.3       23 UNK        -0.0205 
      9 C9          0.2055  -18.6842  -49.8902 C.ar      23 UNK        -0.0193 
     10 C10        -0.3872  -19.8295  -50.4281 C.ar      23 UNK        -0.1150 
     11 C11         0.3781  -20.9666  -50.6973 C.ar      23 UNK        -0.0193 
     12 C12         1.7534  -20.9393  -50.4586 C.ar      23 UNK        -0.1150 
     13 C13         2.3584  -19.8082  -49.9041 C.ar      23 UNK        -0.0193 
     14 C14         1.5774  -18.6834  -49.6196 C.ar      23 UNK        -0.1150 
     15 C15         3.8561  -19.7961  -49.6237 C.3       23 UNK        -0.0205 
     16 S16         4.4001  -21.1753  -48.5595 S.3       23 UNK        -0.2404 
     17 C17         3.5200  -20.8210  -47.0019 C.3       23 UNK        -0.0398 
     18 CA          2.7945  -22.0597  -46.4158 C.3       11 UNK         0.1400 
     19 N           2.6295  -21.9221  -44.9663 N.am      11 UNK        -0.5000 
     20 C           2.3868  -22.9222  -44.1089 C.2       10 UNK         0.5000 
     21 O           2.3083  -24.1050  -44.4412 O.2       10 UNK        -0.5000 
     22 CA          2.1879  -22.5298  -42.6301 C.3       10 UNK         0.1400 
     23 CB          3.5283  -22.5168  -41.8798 C.3       10 UNK        -0.1800 
     24 N           1.5374  -21.2261  -42.4846 N.am      10 UNK        -0.5000 
     25 C           0.2479  -20.9992  -42.7677 C.2       9 UNK         0.5000 
     26 O          -0.5486  -21.8905  -43.0586 O.2       9 UNK        -0.5000 
     27 CA         -0.2283  -19.5344  -42.7621 C.3       9 UNK         0.1400 
     28 CB         -0.7528  -19.1405  -41.3730 C.3       9 UNK        -0.1800 
     29 N           0.8004  -18.5837  -43.1991 N.am      9 UNK        -0.5000 
     30 C           1.3280  -18.5497  -44.4319 C.2       8 UNK         0.5000 
     31 O           0.9665  -19.2917  -45.3398 O.2       8 UNK        -0.5000 
     32 CA          2.5097  -17.5960  -44.6820 C.3       8 UNK         0.1400 
     33 CB          2.0413  -16.1969  -45.0964 C.3       8 UNK        -0.1800 
     34 N           3.3864  -17.4997  -43.5187 N.am      8 UNK        -0.5000 
     35 C           4.2063  -18.4798  -43.1159 C.2       7 UNK         0.5000 
     36 O           4.3538  -19.5389  -43.7253 O.2       7 UNK        -0.5000 
     37 CA          4.9374  -18.2534  -41.7802 C.3       7 UNK         0.1400 
     38 CB          6.2190  -17.4348  -41.9947 C.3       7 UNK        -0.1800 
     39 N           4.0877  -17.5786  -40.7960 N.am      7 UNK        -0.5000 
     40 C           2.9919  -18.1224  -40.2467 C.2       6 UNK         0.5000 
     41 O           2.6273  -19.2777  -40.4626 O.2       6 UNK        -0.5000 
     42 CA          2.1375  -17.2081  -39.3473 C.3       6 UNK         0.1400 
     43 CB          2.6106  -17.2932  -37.8888 C.3       6 UNK        -0.1800 
     44 N           2.1489  -15.8077  -39.7815 N.am      6 UNK        -0.5000 
     45 C           1.6049  -15.3593  -40.9206 C.2       5 UNK         0.5000 
     46 O           1.0118  -16.0776  -41.7275 O.2       5 UNK        -0.5000 
     47 CA          1.8369  -13.8789  -41.2421 C.3       5 UNK         0.1400 
     48 CB          3.2126  -13.6977  -41.9145 C.3       5 UNK        -0.1800 
     49 N           0.7817  -13.3723  -42.1181 N.am      5 UNK        -0.5000 
     50 C           0.5144  -12.0717  -42.2980 C.2       4 UNK         0.5000 
     51 O           1.1054  -11.1679  -41.7046 O.2       4 UNK        -0.5000 
     52 CA         -0.5863  -11.7014  -43.3051 C.3       4 UNK         0.1400 
     53 CB         -0.0197  -11.6565  -44.7334 C.3       4 UNK        -0.1800 
     54 N          -1.7303  -12.6115  -43.2526 N.am      4 UNK        -0.5000 
     55 C          -2.7538  -12.4763  -42.3952 C.2       3 UNK         0.5000 
     56 O          -2.7999  -11.5986  -41.5321 O.2       3 UNK        -0.5000 
     57 CA         -3.9442  -13.4490  -42.5247 C.3       3 UNK         0.1400 
     58 CB         -5.1470  -12.7409  -43.1680 C.3       3 UNK        -0.1800 
     59 N          -3.6238  -14.6438  -43.3042 N.am      3 UNK        -0.5000 
     60 C          -2.9938  -15.7154  -42.8030 C.2       2 UNK         0.5000 
     61 O          -2.7057  -15.8361  -41.6124 O.2       2 UNK        -0.5000 
     62 CA         -2.5943  -16.8325  -43.7897 C.3       2 UNK         0.1400 
     63 CB         -3.5771  -18.0103  -43.7068 C.3       2 UNK        -0.1800 
     64 N          -2.4791  -16.4078  -45.1861 N.am      2 UNK        -0.5000 
     65 C          -1.6282  -15.4744  -45.6309 C.2       1 UNK         0.5000 
     66 O          -0.8636  -14.8601  -44.8870 O.2       1 UNK        -0.5000 
     67 C           1.4547  -22.3444  -47.1368 C.2       11 UNK         0.5000 
     68 O           1.4500  -23.0701  -48.1313 O.2       11 UNK        -0.5000 
     69 N           0.3589  -21.7695  -46.6181 N.am      12 UNK        -0.5000 
     70 CA         -1.0207  -21.7788  -47.1165 C.3       12 UNK         0.1400 
     71 CB         -1.8488  -20.8400  -46.2190 C.3       12 UNK        -0.1800 
     72 C          -1.6722  -23.1764  -47.2362 C.2       12 UNK         0.5000 
     73 O          -2.6348  -23.4783  -46.5284 O.2       12 UNK        -0.5000 
     74 N          -1.1364  -24.0096  -48.1321 N.am      13 UNK        -0.5000 
     75 CA         -1.5975  -25.3620  -48.4274 C.3       13 UNK         0.1400 
     76 CB         -0.5727  -26.0446  -49.3460 C.3       13 UNK        -0.1800 
     77 C          -2.9948  -25.3822  -49.0736 C.2       13 UNK         0.5000 
     78 O          -3.1863  -24.7686  -50.1295 O.2       13 UNK        -0.5000 
     79 N          -3.9125  -26.1317  -48.4457 N.am      14 UNK        -0.5000 
     80 CA         -5.2807  -26.4470  -48.8688 C.3       14 UNK         0.1400 
     81 CB         -5.2623  -27.5337  -49.9637 C.3       14 UNK        -0.1800 
     82 C          -6.1129  -25.2016  -49.2363 C.2       14 UNK         0.5000 
     83 O          -6.6067  -24.5250  -48.3334 O.2       14 UNK        -0.5000 
     84 N          -6.2582  -24.9235  -50.5403 N.am      15 UNK        -0.5000 
     85 CA         -7.0018  -23.7817  -51.0792 C.3       15 UNK         0.1400 
     86 CB         -7.1698  -23.9588  -52.5963 C.3       15 UNK        -0.1800 
     87 C          -6.3618  -22.4146  -50.7673 C.2       15 UNK         0.5000 
     88 O          -7.0737  -21.4095  -50.7898 O.2       15 UNK        -0.5000 
     89 N          -5.0522  -22.4053  -50.4698 N.am      16 UNK        -0.5000 
     90 CA         -4.2454  -21.2398  -50.1044 C.3       16 UNK         0.1400 
     91 CB         -4.6749  -20.7104  -48.7186 C.3       16 UNK        -0.1800 
     92 C          -4.2314  -20.1596  -51.2089 C.2       16 UNK         0.5000 
     93 O          -4.1849  -20.5022  -52.3922 O.2       16 UNK        -0.5000 
     94 N          -4.2258  -18.8814  -50.8022 N.am      17 UNK        -0.5000 
     95 CA         -4.3489  -17.6448  -51.5888 C.3       17 UNK         0.1400 
     96 CB         -5.7145  -17.5957  -52.2993 C.3       17 UNK        -0.1800 
     97 C          -3.2147  -17.3403  -52.5885 C.2       17 UNK         0.5000 
     98 O          -3.0528  -16.1772  -52.9576 O.2       17 UNK        -0.5000 
     99 N          -2.4743  -18.3644  -53.0314 N.am      18 UNK        -0.5000 
    100 CA        -1.4050  -18.3794  -54.0394 C.3       18 UNK         0.1400 
    101 CB        -0.2415  -17.4399  -53.6720 C.3       18 UNK        -0.1800 
    102 C         -1.9182  -18.1255  -55.4696 C.2       18 UNK         0.5000 
    103 O         -1.5779  -18.8825  -56.3782 O.2       18 UNK        -0.5000 
    104 N         -2.7871  -17.1205  -55.6384 N.am      19 UNK        -0.5000 
    105 CA        -3.5066  -16.8023  -56.8753 C.3       19 UNK         0.1400 
    106 CB        -4.2472  -15.4698  -56.6890 C.3       19 UNK        -0.1800 
    107 C         -4.4887  -17.9095  -57.3121 C.2       19 UNK         0.5000 
    108 O         -4.7730  -18.0354  -58.5032 O.2       19 UNK        -0.5000 
    109 N         -4.9583  -18.7125  -56.3463 N.am      20 UNK        -0.5000 
    110 CA        -5.7756  -19.9094  -56.5612 C.3       20 UNK         0.1400 
    111 CB        -6.5750  -20.1934  -55.2782 C.3       20 UNK        -0.1800 
    112 C         -4.9457  -21.1474  -56.9691 C.2       20 UNK         0.5000 
    113 O         -5.5305  -22.2059  -57.1978 O.2       20 UNK        -0.5000 
    114 N         -3.6113  -21.0049  -57.0267 N.am      21 UNK        -0.5000 
    115 CA        -2.5983  -22.0247  -57.3254 C.3       21 UNK         0.1400 
    116 CB        -2.8286  -22.6700  -58.7085 C.3       21 UNK        -0.1800 
    117 C         -2.4009  -23.0662  -56.2032 C.2       21 UNK         0.5000 
    118 O         -1.7249  -24.0711  -56.4323 O.2       21 UNK        -0.5000 
    119 N         -2.9456  -22.7866  -55.0094 N.am      22 UNK        -0.5000 
    120 CA        -2.8623  -23.5982  -53.7820 C.3       22 UNK         0.1400 
    121 C         -3.6029  -24.9670  -53.8685 C.2       22 UNK         0.5000 
    122 N         -3.6921  -25.6976  -52.7664 N.am      22 UNK        -0.7600 
    123 O         -4.1230  -25.3778  -54.9032 O.2       22 UNK        -0.5000 
    124 C124       -1.4022  -23.7646  -53.2704 C.3       23 UNK        -0.0398 
    125 S125       -0.5600  -22.1669  -52.9991 S.3       23 UNK        -0.2404 
    126 C126       -0.2808  -22.2358  -51.2088 C.3       23 UNK        -0.0205 
    127 H127       -4.2753  -11.4431  -47.6338 H         1 UNK         0.0600 
    128 H128       -2.5256  -11.2064  -47.5920 H         1 UNK         0.0600 
    129 H129       -3.4605  -11.1413  -46.0949 H         1 UNK         0.0600 
    130 H130       -1.3532  -13.0948  -47.6971 H         1 UNK         0.3000 
    131 H131       -0.6266  -15.1455  -47.4668 H         1 UNK         0.0600 
    132 H132       -2.5755  -15.6020  -49.0433 H         1 UNK         0.0800 
    133 H133       -3.5237  -16.1327  -47.6927 H         1 UNK         0.0800 
    134 H134        0.0088  -16.5896  -49.4115 H         1 UNK         0.0800 
    135 H135       -1.2062  -17.1931  -50.5093 H         1 UNK         0.0800 
    136 H136       -1.4469  -19.8365  -50.6262 H         1 UNK         0.1150 
    137 H137        2.3511  -21.8150  -50.6696 H         1 UNK         0.1150 
    138 H138        2.0390  -17.8024  -49.1965 H         1 UNK         0.1150 
    139 H139        4.3882  -19.8562  -50.5739 H         1 UNK         0.0800 
    140 H140        4.1585  -18.8551  -49.1616 H         1 UNK         0.0800 
    141 H141        2.8296  -19.9866  -47.1326 H         1 UNK         0.0800 
    142 H142        4.2779  -20.4675  -46.3015 H         1 UNK         0.0800 
    143 H143        3.4342  -22.9306  -46.5755 H         1 UNK         0.0600 
    144 H144        2.7042  -20.9849  -44.5940 H         1 UNK         0.3000 
    145 H145        1.5502  -23.2860  -42.1674 H         1 UNK         0.0600 
    146 H146        3.3876  -22.2749  -40.8261 H         1 UNK         0.0600 
    147 H147        4.2212  -21.7878  -42.2997 H         1 UNK         0.0600 
    148 H148        4.0111  -23.4936  -41.9288 H         1 UNK         0.0600 
    149 H149        2.1085  -20.4546  -42.1594 H         1 UNK         0.3000 
    150 H150       -1.0547  -19.4664  -43.4703 H         1 UNK         0.0600 
    151 H151       -1.6380  -19.7234  -41.1165 H         1 UNK         0.0600 
    152 H152       -1.0322  -18.0882  -41.3290 H         1 UNK         0.0600 
    153 H153       -0.0118  -19.3213  -40.5956 H         1 UNK         0.0600 
    154 H154        1.0954  -17.8842  -42.5256 H         1 UNK         0.3000 
    155 H155        3.0887  -18.0057  -45.5124 H         1 UNK         0.0600 
    156 H156        1.3721  -16.2494  -45.9558 H         1 UNK         0.0600 
    157 H157        2.8845  -15.5672  -45.3798 H         1 UNK         0.0600 
    158 H158        1.5094  -15.6952  -44.2894 H         1 UNK         0.0600 
    159 H159        3.2885  -16.6788  -42.9417 H         1 UNK         0.3000 
    160 H160        5.2158  -19.2313  -41.3813 H         1 UNK         0.0600 
    161 H161        6.0023  -16.4350  -42.3731 H         1 UNK         0.0600 
    162 H162        6.8772  -17.9231  -42.7146 H         1 UNK         0.0600 
    163 H163        6.7784  -17.3282  -41.0651 H         1 UNK         0.0600 
    164 H164        4.3300  -16.6295  -40.5540 H         1 UNK         0.3000 
    165 H165        1.1071  -17.5657  -39.3915 H         1 UNK         0.0600 
    166 H166        1.9662  -16.7101  -37.2306 H         1 UNK         0.0600 
    167 H167        2.5898  -18.3238  -37.5318 H         1 UNK         0.0600 
    168 H168        3.6310  -16.9259  -37.7727 H         1 UNK         0.0600 
    169 H169        2.6259  -15.1552  -39.1757 H         1 UNK         0.3000 
    170 H170        1.8141  -13.3224  -40.3026 H         1 UNK         0.0600 
    171 H171        3.2555  -14.2013  -42.8809 H         1 UNK         0.0600 
    172 H172        3.4405  -12.6447  -42.0795 H         1 UNK         0.0600 
    173 H173        4.0139  -14.1026  -41.2954 H         1 UNK         0.0600 
    174 H174        0.2499  -14.0785  -42.6136 H         1 UNK         0.3000 
    175 H175       -0.9290  -10.6927  -43.0637 H         1 UNK         0.0600 
    176 H176        0.4048  -12.6136  -45.0359 H         1 UNK         0.0600 
    177 H177       -0.7885  -11.3841  -45.4557 H         1 UNK         0.0600 
    178 H178        0.7746  -10.9131  -44.8102 H         1 UNK         0.0600 
    179 H179       -1.7070  -13.4010  -43.8898 H         1 UNK         0.3000 
    180 H180       -4.2351  -13.7484  -41.5155 H         1 UNK         0.0600 
    181 H181       -6.0010  -13.4126  -43.2563 H         1 UNK         0.0600 
    182 H182       -4.9103  -12.3652  -44.1635 H         1 UNK         0.0600 
    183 H183       -5.4654  -11.8890  -42.5659 H         1 UNK         0.0600 
    184 H184       -3.8222  -14.6051  -44.2979 H         1 UNK         0.3000 
    185 H185       -1.6066  -17.1744  -43.4835 H         1 UNK         0.0600 
    186 H186       -4.5830  -17.7137  -44.0062 H         1 UNK         0.0600 
    187 H187       -3.2659  -18.8341  -44.3491 H         1 UNK         0.0600 
    188 H188       -3.6376  -18.3976  -42.6888 H         1 UNK         0.0600 
    189 H189       -3.0911  -16.8628  -45.8469 H         1 UNK         0.3000 
    190 H190        0.5176  -21.1299  -45.8467 H         1 UNK         0.3000 
    191 H191       -1.0081  -21.3488  -48.1180 H         1 UNK         0.0600 
    192 H192       -2.8846  -20.7815  -46.5450 H         1 UNK         0.0600 
    193 H193       -1.4516  -19.8264  -46.2253 H         1 UNK         0.0600 
    194 H194       -1.8635  -21.1855  -45.1867 H         1 UNK         0.0600 
    195 H195       -0.2670  -23.7171  -48.5689 H         1 UNK         0.3000 
    196 H196       -1.6295  -25.9146  -47.4861 H         1 UNK         0.0600 
    197 H197        0.4092  -26.0919  -48.8744 H         1 UNK         0.0600 
    198 H198       -0.4627  -25.5142  -50.2924 H         1 UNK         0.0600 
    199 H199       -0.8733  -27.0677  -49.5758 H         1 UNK         0.0600 
    200 H200       -3.6442  -26.5469  -47.5647 H         1 UNK         0.3000 
    201 H201       -5.7745  -26.8828  -47.9988 H         1 UNK         0.0600 
    202 H202       -4.8544  -28.4660  -49.5729 H         1 UNK         0.0600 
    203 H203       -4.6534  -27.2499  -50.8187 H         1 UNK         0.0600 
    204 H204       -6.2685  -27.7524  -50.3239 H         1 UNK         0.0600 
    205 H205       -5.8004  -25.5191  -51.2140 H         1 UNK         0.3000 
    206 H206       -7.9947  -23.7876  -50.6250 H         1 UNK         0.0600 
    207 H207       -6.2116  -23.9277  -53.1138 H         1 UNK         0.0600 
    208 H208       -7.6528  -24.9062  -52.8356 H         1 UNK         0.0600 
    209 H209       -7.7889  -23.1640  -53.0145 H         1 UNK         0.0600 
    210 H210       -4.5587  -23.2915  -50.4749 H         1 UNK         0.3000 
    211 H211       -3.2219  -21.5988  -50.0128 H         1 UNK         0.0600 
    212 H212       -5.6764  -20.2792  -48.7382 H         1 UNK         0.0600 
    213 H213       -3.9923  -19.9427  -48.3551 H         1 UNK         0.0600 
    214 H214       -4.6789  -21.5142  -47.9817 H         1 UNK         0.0600 
    215 H215       -4.2110  -18.7310  -49.8033 H         1 UNK         0.3000 
    216 H216       -4.3290  -16.8331  -50.8599 H         1 UNK         0.0600 
    217 H217       -5.8597  -16.6424  -52.8093 H         1 UNK         0.0600 
    218 H218       -6.5325  -17.7106  -51.5880 H         1 UNK         0.0600 
    219 H219       -5.8102  -18.3828  -53.0462 H         1 UNK         0.0600 
    220 H220       -2.7924  -19.2839  -52.7383 H         1 UNK         0.3000 
    221 H221       -1.0106  -19.3959  -54.0293 H         1 UNK         0.0600 
    222 H222       -0.5398  -16.3917  -53.6703 H         1 UNK         0.0600 
    223 H223        0.5763  -17.5421  -54.3862 H         1 UNK         0.0600 
    224 H224        0.1596  -17.6782  -52.6874 H         1 UNK         0.0600 
    225 H225       -2.9966  -16.5514  -54.8225 H         1 UNK         0.3000 
    226 H226       -2.7699  -16.6812  -57.6720 H         1 UNK         0.0600 
    227 H227       -3.5531  -14.6626  -56.4542 H         1 UNK         0.0600 
    228 H228       -4.7786  -15.1864  -57.5986 H         1 UNK         0.0600 
    229 H229       -4.9802  -15.5268  -55.8832 H         1 UNK         0.0600 
    230 H230       -4.6725  -18.5282  -55.3965 H         1 UNK         0.3000 
    231 H231       -6.4853  -19.7129  -57.3675 H         1 UNK         0.0600 
    232 H232       -7.2556  -21.0343  -55.4175 H         1 UNK         0.0600 
    233 H233       -7.1811  -19.3342  -54.9906 H         1 UNK         0.0600 
    234 H234       -5.9210  -20.4409  -54.4419 H         1 UNK         0.0600 
    235 H235       -3.2236  -20.0913  -56.8219 H         1 UNK         0.3000 
    236 H236       -1.6537  -21.4821  -57.3825 H         1 UNK         0.0600 
    237 H237       -3.6985  -23.3268  -58.7121 H         1 UNK         0.0600 
    238 H238       -2.9734  -21.9128  -59.4790 H         1 UNK         0.0600 
    239 H239       -1.9692  -23.2721  -59.0053 H         1 UNK         0.0600 
    240 H240       -3.4879  -21.9402  -54.9287 H         1 UNK         0.3000 
    241 H241       -3.4118  -23.0290  -53.0318 H         1 UNK         0.0600 
    242 H242       -4.1298  -26.6017  -52.8357 H         1 UNK         0.3800 
    243 H243       -3.3319  -25.3744  -51.8718 H         1 UNK         0.3800 
    244 H244       -0.8094  -24.3474  -53.9762 H         1 UNK         0.0800 
    245 H245       -1.3859  -24.3313  -52.3389 H         1 UNK         0.0800 
    246 H246       -1.2278  -22.3983  -50.6962 H         1 UNK         0.0800 
    247 H247        0.3427  -23.1007  -50.9763 H         1 UNK         0.0800 
@<TRIPOS>BOND
     1    1    2 1    
     2    1  127 1    
     3    1  128 1    
     4    1  129 1    
     5    2    3 2    
     6    2    4 am   BACKBONE|DICT|INTERRES
     7    4    5 1    
     8    4  130 1    
     9    5    6 1    
    10    5   65 1    
    11    5  131 1    
    12    6    7 1    
    13    6  132 1    
    14    6  133 1    
    15    7    8 1    
    16    8    9 1    
    17    8  134 1    
    18    8  135 1    
    19    9   10 ar   
    20    9   14 ar   
    21   10   11 ar   
    22   10  136 1    
    23   11   12 ar   
    24   11  126 1    
    25   12   13 ar   
    26   12  137 1    
    27   13   14 ar   
    28   13   15 1    
    29   14  138 1    
    30   15   16 1    
    31   15  139 1    
    32   15  140 1    
    33   16   17 1    
    34   17   18 1    
    35   17  141 1    
    36   17  142 1    
    37   18   19 1    
    38   18   67 1    
    39   18  143 1    
    40   19   20 am   BACKBONE|DICT|INTERRES
    41   19  144 1    
    42   20   21 2    
    43   20   22 1    
    44   22   23 1    
    45   22   24 1    
    46   22  145 1    
    47   23  146 1    
    48   23  147 1    
    49   23  148 1    
    50   24   25 am   BACKBONE|DICT|INTERRES
    51   24  149 1    
    52   25   26 2    
    53   25   27 1    
    54   27   28 1    
    55   27   29 1    
    56   27  150 1    
    57   28  151 1    
    58   28  152 1    
    59   28  153 1    
    60   29   30 am   BACKBONE|DICT|INTERRES
    61   29  154 1    
    62   30   31 2    
    63   30   32 1    
    64   32   33 1    
    65   32   34 1    
    66   32  155 1    
    67   33  156 1    
    68   33  157 1    
    69   33  158 1    
    70   34   35 am   BACKBONE|DICT|INTERRES
    71   34  159 1    
    72   35   36 2    
    73   35   37 1    
    74   37   38 1    
    75   37   39 1    
    76   37  160 1    
    77   38  161 1    
    78   38  162 1    
    79   38  163 1    
    80   39   40 am   BACKBONE|DICT|INTERRES
    81   39  164 1    
    82   40   41 2    
    83   40   42 1    
    84   42   43 1    
    85   42   44 1    
    86   42  165 1    
    87   43  166 1    
    88   43  167 1    
    89   43  168 1    
    90   44   45 am   BACKBONE|DICT|INTERRES
    91   44  169 1    
    92   45   46 2    
    93   45   47 1    
    94   47   48 1    
    95   47   49 1    
    96   47  170 1    
    97   48  171 1    
    98   48  172 1    
    99   48  173 1    
   100   49   50 am   BACKBONE|DICT|INTERRES
   101   49  174 1    
   102   50   51 2    
   103   50   52 1    
   104   52   53 1    
   105   52   54 1    
   106   52  175 1    
   107   53  176 1    
   108   53  177 1    
   109   53  178 1    
   110   54   55 am   BACKBONE|DICT|INTERRES
   111   54  179 1    
   112   55   56 2    
   113   55   57 1    
   114   57   58 1    
   115   57   59 1    
   116   57  180 1    
   117   58  181 1    
   118   58  182 1    
   119   58  183 1    
   120   59   60 am   BACKBONE|DICT|INTERRES
   121   59  184 1    
   122   60   61 2    
   123   60   62 1    
   124   62   63 1    
   125   62   64 1    
   126   62  185 1    
   127   63  186 1    
   128   63  187 1    
   129   63  188 1    
   130   64   65 am   BACKBONE|DICT|INTERRES
   131   64  189 1    
   132   65   66 2    
   133   67   68 2    
   134   67   69 am   BACKBONE|DICT|INTERRES
   135   69   70 1    
   136   69  190 1    
   137   70   71 1    
   138   70   72 1    
   139   70  191 1    
   140   71  192 1    
   141   71  193 1    
   142   71  194 1    
   143   72   73 2    
   144   72   74 am   BACKBONE|DICT|INTERRES
   145   74   75 1    
   146   74  195 1    
   147   75   76 1    
   148   75   77 1    
   149   75  196 1    
   150   76  197 1    
   151   76  198 1    
   152   76  199 1    
   153   77   78 2    
   154   77   79 am   BACKBONE|DICT|INTERRES
   155   79   80 1    
   156   79  200 1    
   157   80   81 1    
   158   80   82 1    
   159   80  201 1    
   160   81  202 1    
   161   81  203 1    
   162   81  204 1    
   163   82   83 2    
   164   82   84 am   BACKBONE|DICT|INTERRES
   165   84   85 1    
   166   84  205 1    
   167   85   86 1    
   168   85   87 1    
   169   85  206 1    
   170   86  207 1    
   171   86  208 1    
   172   86  209 1    
   173   87   88 2    
   174   87   89 am   BACKBONE|DICT|INTERRES
   175   89   90 1    
   176   89  210 1    
   177   90   91 1    
   178   90   92 1    
   179   90  211 1    
   180   91  212 1    
   181   91  213 1    
   182   91  214 1    
   183   92   93 2    
   184   92   94 am   BACKBONE|DICT|INTERRES
   185   94   95 1    
   186   94  215 1    
   187   95   96 1    
   188   95   97 1    
   189   95  216 1    
   190   96  217 1    
   191   96  218 1    
   192   96  219 1    
   193   97   98 2    
   194   97   99 am   BACKBONE|DICT|INTERRES
   195   99  100 1    
   196   99  220 1    
   197  100  101 1    
   198  100  102 1    
   199  100  221 1    
   200  101  222 1    
   201  101  223 1    
   202  101  224 1    
   203  102  103 2    
   204  102  104 am   BACKBONE|DICT|INTERRES
   205  104  105 1    
   206  104  225 1    
   207  105  106 1    
   208  105  107 1    
   209  105  226 1    
   210  106  227 1    
   211  106  228 1    
   212  106  229 1    
   213  107  108 2    
   214  107  109 am   BACKBONE|DICT|INTERRES
   215  109  110 1    
   216  109  230 1    
   217  110  111 1    
   218  110  112 1    
   219  110  231 1    
   220  111  232 1    
   221  111  233 1    
   222  111  234 1    
   223  112  113 2    
   224  112  114 am   BACKBONE|DICT|INTERRES
   225  114  115 1    
   226  114  235 1    
   227  115  116 1    
   228  115  117 1    
   229  115  236 1    
   230  116  237 1    
   231  116  238 1    
   232  116  239 1    
   233  117  118 2    
   234  117  119 am   BACKBONE|DICT|INTERRES
   235  119  120 1    
   236  119  240 1    
   237  120  121 1    
   238  120  124 1    
   239  120  241 1    
   240  121  122 am   BACKBONE|DICT|INTERRES
   241  121  123 2    
   242  122  242 1    
   243  122  243 1    
   244  124  125 1    
   245  124  244 1    
   246  124  245 1    
   247  125  126 1    
   248  126  246 1    
   249  126  247 1    
@<TRIPOS>SUBSTRUCTURE
     1 UNK         1 GROUP             0       ****    0 ROOT    
