@<TRIPOS>MOLECULE
3R540
247   249    1
SMALL
USER_CHARGES


@<TRIPOS>ATOM
      1 CA          4.6613  -14.9894  -51.6332 C.3       0 UNK        -0.1800 
      2 C           4.0863  -14.7927  -50.2377 C.2       0 UNK         0.5000 
      3 O           4.5761  -13.9445  -49.4917 O.2       0 UNK        -0.5000 
      4 N           3.0619  -15.5764  -49.8866 N.am      1 UNK        -0.5000 
      5 CA          2.3950  -15.5791  -48.5825 C.3       1 UNK         0.1400 
      6 C6          2.8675  -16.7342  -47.6502 C.3       23 UNK        -0.0398 
      7 S7          4.6813  -16.9050  -47.4784 S.3       23 UNK        -0.2404 
      8 C8          4.9031  -18.7138  -47.2899 C.3       23 UNK        -0.0205 
      9 C9          4.7957  -19.5621  -48.5630 C.ar      23 UNK        -0.0193 
     10 C10         4.1338  -19.1223  -49.7159 C.ar      23 UNK        -0.1150 
     11 C11         3.9985  -19.9501  -50.8313 C.ar      23 UNK        -0.0193 
     12 C12         4.5691  -21.2236  -50.8142 C.ar      23 UNK        -0.1150 
     13 C13         5.2603  -21.6744  -49.6868 C.ar      23 UNK        -0.0193 
     14 C14         5.3584  -20.8448  -48.5639 C.ar      23 UNK        -0.1150 
     15 C15         5.9259  -23.0449  -49.7003 C.3       23 UNK        -0.0205 
     16 S16         5.0588  -24.2741  -48.6739 S.3       23 UNK        -0.2404 
     17 C17         3.4657  -24.4653  -49.5501 C.3       23 UNK        -0.0398 
     18 CA          2.3258  -24.9185  -48.6053 C.3       11 UNK         0.1400 
     19 N           2.2127  -24.0492  -47.4315 N.am      11 UNK        -0.5000 
     20 C           1.5362  -24.3417  -46.3146 C.2       10 UNK         0.5000 
     21 O           0.9335  -25.4002  -46.1364 O.2       10 UNK        -0.5000 
     22 CA          1.4944  -23.2422  -45.2324 C.3       10 UNK         0.1400 
     23 CB          2.6581  -23.4174  -44.2459 C.3       10 UNK        -0.1800 
     24 N           1.5162  -21.8702  -45.7564 N.am      10 UNK        -0.5000 
     25 C           0.6567  -21.3692  -46.6529 C.2       9 UNK         0.5000 
     26 O          -0.2384  -22.0292  -47.1774 O.2       9 UNK        -0.5000 
     27 CA          0.8134  -19.8831  -46.9999 C.3       9 UNK         0.1400 
     28 CB          0.0616  -19.4979  -48.2836 C.3       9 UNK        -0.1800 
     29 N           0.3143  -19.0709  -45.8952 N.am      9 UNK        -0.5000 
     30 C           1.0507  -18.6905  -44.8480 C.2       8 UNK         0.5000 
     31 O           2.2551  -18.9274  -44.7337 O.2       8 UNK        -0.5000 
     32 CA          0.3223  -17.9335  -43.7367 C.3       8 UNK         0.1400 
     33 CB          0.0234  -18.8504  -42.5387 C.3       8 UNK        -0.1800 
     34 N           1.1715  -16.8225  -43.3392 N.am      8 UNK        -0.5000 
     35 C           0.7464  -15.6831  -42.7880 C.2       7 UNK         0.5000 
     36 O          -0.4098  -15.4987  -42.4034 O.2       7 UNK        -0.5000 
     37 CA          1.7751  -14.5446  -42.6392 C.3       7 UNK         0.1400 
     38 CB          3.2441  -14.9668  -42.8787 C.3       7 UNK        -0.1800 
     39 N           1.4086  -13.4076  -43.4862 N.am      7 UNK        -0.5000 
     40 C           1.3261  -13.3761  -44.8234 C.2       6 UNK         0.5000 
     41 O           1.6255  -14.3194  -45.5591 O.2       6 UNK        -0.5000 
     42 CA          0.8014  -12.0593  -45.4330 C.3       6 UNK         0.1400 
     43 CB          1.0426  -11.9697  -46.9512 C.3       6 UNK        -0.1800 
     44 N          -0.6243  -11.8418  -45.1706 N.am      6 UNK        -0.5000 
     45 C          -1.1483  -11.4603  -43.9976 C.2       5 UNK         0.5000 
     46 O          -0.4860  -11.3086  -42.9696 O.2       5 UNK        -0.5000 
     47 CA         -2.6517  -11.1498  -43.9775 C.3       5 UNK         0.1400 
     48 CB         -2.8953   -9.7582  -44.6016 C.3       5 UNK        -0.1800 
     49 N          -3.4445  -12.1847  -44.6509 N.am      5 UNK        -0.5000 
     50 C          -4.7857  -12.2466  -44.6155 C.2       4 UNK         0.5000 
     51 O          -5.4889  -11.4487  -43.9939 O.2       4 UNK        -0.5000 
     52 CA         -5.4793  -13.3779  -45.4006 C.3       4 UNK         0.1400 
     53 CB         -5.8257  -12.9094  -46.8227 C.3       4 UNK        -0.1800 
     54 N          -4.6956  -14.6058  -45.4924 N.am      4 UNK        -0.5000 
     55 C          -4.4012  -15.4214  -44.4704 C.2       3 UNK         0.5000 
     56 O          -4.7868  -15.2366  -43.3160 O.2       3 UNK        -0.5000 
     57 CA         -3.5316  -16.6547  -44.7958 C.3       3 UNK         0.1400 
     58 CB         -4.3735  -17.9388  -44.7545 C.3       3 UNK        -0.1800 
     59 N          -2.8478  -16.5566  -46.0940 N.am      3 UNK        -0.5000 
     60 C          -1.8430  -15.7053  -46.3303 C.2       2 UNK         0.5000 
     61 O          -1.3587  -14.9763  -45.4678 O.2       2 UNK        -0.5000 
     62 CA         -1.3647  -15.5639  -47.7755 C.3       2 UNK         0.1400 
     63 CB         -2.0183  -14.3234  -48.4102 C.3       2 UNK        -0.1800 
     64 N           0.0869  -15.4218  -47.7791 N.am      2 UNK        -0.5000 
     65 C           0.8761  -15.6768  -48.8273 C.2       1 UNK         0.5000 
     66 O           0.4471  -16.0128  -49.9388 O.2       1 UNK        -0.5000 
     67 C           0.9915  -25.0239  -49.3778 C.2       11 UNK         0.5000 
     68 O           0.6952  -26.0804  -49.9361 O.2       11 UNK        -0.5000 
     69 N           0.2088  -23.9354  -49.3860 N.am      12 UNK        -0.5000 
     70 CA         -1.1089  -23.8527  -50.0166 C.3       12 UNK         0.1400 
     71 CB         -1.3537  -22.4053  -50.4664 C.3       12 UNK        -0.1800 
     72 C          -2.2253  -24.3181  -49.0659 C.2       12 UNK         0.5000 
     73 O          -3.2470  -24.8261  -49.5294 O.2       12 UNK        -0.5000 
     74 N          -2.0130  -24.1618  -47.7509 N.am      13 UNK        -0.5000 
     75 CA         -2.9236  -24.5712  -46.6776 C.3       13 UNK         0.1400 
     76 CB         -2.3683  -24.1054  -45.3239 C.3       13 UNK        -0.1800 
     77 C          -3.1966  -26.0854  -46.6529 C.2       13 UNK         0.5000 
     78 O          -4.2886  -26.4935  -46.2601 O.2       13 UNK        -0.5000 
     79 N          -2.2377  -26.8823  -47.1448 N.am      14 UNK        -0.5000 
     80 CA         -2.3669  -28.3235  -47.3749 C.3       14 UNK         0.1400 
     81 CB         -1.0043  -28.8743  -47.8215 C.3       14 UNK        -0.1800 
     82 C          -3.4615  -28.6928  -48.4009 C.2       14 UNK         0.5000 
     83 O          -4.0144  -29.7903  -48.3238 O.2       14 UNK        -0.5000 
     84 N          -3.7681  -27.7671  -49.3200 N.am      15 UNK        -0.5000 
     85 CA         -4.8472  -27.8630  -50.3045 C.3       15 UNK         0.1400 
     86 CB         -4.2738  -27.4831  -51.6810 C.3       15 UNK        -0.1800 
     87 C          -6.0396  -26.9520  -49.9405 C.2       15 UNK         0.5000 
     88 O          -6.9735  -26.8421  -50.7358 O.2       15 UNK        -0.5000 
     89 N          -5.9787  -26.2947  -48.7697 N.am      16 UNK        -0.5000 
     90 CA         -6.9063  -25.2796  -48.2534 C.3       16 UNK         0.1400 
     91 CB         -8.2874  -25.8996  -47.9569 C.3       16 UNK        -0.1800 
     92 C          -6.9941  -24.0133  -49.1368 C.2       16 UNK         0.5000 
     93 O          -8.0116  -23.3189  -49.1169 O.2       16 UNK        -0.5000 
     94 N          -5.9261  -23.7282  -49.8938 N.am      17 UNK        -0.5000 
     95 CA         -5.8645  -22.6552  -50.8875 C.3       17 UNK         0.1400 
     96 CB         -5.1144  -23.1854  -52.1206 C.3       17 UNK        -0.1800 
     97 C          -5.2039  -21.3706  -50.3530 C.2       17 UNK         0.5000 
     98 O          -5.1605  -20.3747  -51.0740 O.2       17 UNK        -0.5000 
     99 N          -4.7003  -21.3944  -49.1102 N.am      18 UNK        -0.5000 
    100 CA        -3.9240  -20.3143  -48.4895 C.3       18 UNK         0.1400 
    101 CB        -3.4413  -20.7719  -47.1082 C.3       18 UNK        -0.1800 
    102 C         -4.6495  -18.9624  -48.3701 C.2       18 UNK         0.5000 
    103 O         -3.9879  -17.9227  -48.3499 O.2       18 UNK        -0.5000 
    104 N         -5.9860  -18.9927  -48.3033 N.am      19 UNK        -0.5000 
    105 CA        -6.8436  -17.8068  -48.2773 C.3       19 UNK         0.1400 
    106 CB        -8.2530  -18.2218  -47.8304 C.3       19 UNK        -0.1800 
    107 C         -6.8987  -17.0649  -49.6282 C.2       19 UNK         0.5000 
    108 O         -7.1919  -15.8694  -49.6423 O.2       19 UNK        -0.5000 
    109 N         -6.6070  -17.7701  -50.7318 N.am      20 UNK        -0.5000 
    110 CA        -6.5433  -17.2072  -52.0829 C.3       20 UNK         0.1400 
    111 CB        -6.8947  -18.3040  -53.1018 C.3       20 UNK        -0.1800 
    112 C         -5.1706  -16.5810  -52.4039 C.2       20 UNK         0.5000 
    113 O         -5.0575  -15.9034  -53.4264 O.2       20 UNK        -0.5000 
    114 N         -4.1781  -16.8060  -51.5261 N.am      21 UNK        -0.5000 
    115 CA        -2.7774  -16.3732  -51.5872 C.3       21 UNK         0.1400 
    116 CB        -2.6743  -14.8444  -51.7746 C.3       21 UNK        -0.1800 
    117 C         -1.9445  -17.1027  -52.6584 C.2       21 UNK         0.5000 
    118 O         -2.4853  -17.6909  -53.5979 O.2       21 UNK        -0.5000 
    119 N         -0.6206  -17.0152  -52.5063 N.am      22 UNK        -0.5000 
    120 CA         0.3691  -17.4660  -53.4972 C.3       22 UNK         0.1400 
    121 C          1.5814  -16.5032  -53.6465 C.2       22 UNK         0.5000 
    122 N          1.5712  -15.3216  -53.0397 N.am      22 UNK        -0.7600 
    123 O          2.5370  -16.8128  -54.3521 O.2       22 UNK        -0.5000 
    124 C124        0.7636  -18.9572  -53.3269 C.3       23 UNK        -0.0398 
    125 S125        1.4463  -19.3735  -51.6874 S.3       23 UNK        -0.2404 
    126 C126        3.2275  -19.4630  -52.0470 C.3       23 UNK        -0.0205 
    127 H127        4.4185  -14.1361  -52.2660 H         1 UNK         0.0600 
    128 H128        4.2758  -15.8933  -52.1052 H         1 UNK         0.0600 
    129 H129        5.7465  -15.0782  -51.5815 H         1 UNK         0.0600 
    130 H130        2.6216  -16.1729  -50.5747 H         1 UNK         0.3000 
    131 H131        2.5780  -14.6269  -48.0810 H         1 UNK         0.0600 
    132 H132        2.4613  -16.5949  -46.6479 H         1 UNK         0.0800 
    133 H133        2.4635  -17.6822  -47.9972 H         1 UNK         0.0800 
    134 H134        5.8907  -18.8689  -46.8531 H         1 UNK         0.0800 
    135 H135        4.1893  -19.0856  -46.5554 H         1 UNK         0.0800 
    136 H136        3.6985  -18.1399  -49.7639 H         1 UNK         0.1150 
    137 H137        4.4790  -21.8630  -51.6812 H         1 UNK         0.1150 
    138 H138        5.8812  -21.2018  -47.6873 H         1 UNK         0.1150 
    139 H139        6.0072  -23.4259  -50.7196 H         1 UNK         0.0800 
    140 H140        6.9487  -22.9447  -49.3343 H         1 UNK         0.0800 
    141 H141        3.2004  -23.5220  -50.0283 H         1 UNK         0.0800 
    142 H142        3.6050  -25.1889  -50.3551 H         1 UNK         0.0800 
    143 H143        2.5693  -25.9216  -48.2480 H         1 UNK         0.0600 
    144 H144        2.7031  -23.1686  -47.4792 H         1 UNK         0.3000 
    145 H145        0.5608  -23.3623  -44.6806 H         1 UNK         0.0600 
    146 H146        2.5860  -22.7091  -43.4202 H         1 UNK         0.0600 
    147 H147        3.6230  -23.2695  -44.7328 H         1 UNK         0.0600 
    148 H148        2.6578  -24.4192  -43.8142 H         1 UNK         0.0600 
    149 H149        2.1978  -21.2432  -45.3492 H         1 UNK         0.3000 
    150 H150        1.8760  -19.7020  -47.1658 H         1 UNK         0.0600 
    151 H151        0.3573  -20.1427  -49.1105 H         1 UNK         0.0600 
    152 H152        0.2762  -18.4747  -48.5823 H         1 UNK         0.0600 
    153 H153       -1.0158  -19.5858  -48.1659 H         1 UNK         0.0600 
    154 H154       -0.6768  -18.8833  -45.8937 H         1 UNK         0.3000 
    155 H155       -0.6138  -17.5414  -44.1356 H         1 UNK         0.0600 
    156 H156       -0.5195  -18.3175  -41.7580 H         1 UNK         0.0600 
    157 H157        0.9393  -19.2470  -42.0988 H         1 UNK         0.0600 
    158 H158       -0.5919  -19.6988  -42.8408 H         1 UNK         0.0600 
    159 H159        2.1337  -16.9006  -43.6431 H         1 UNK         0.3000 
    160 H160        1.6984  -14.1977  -41.6078 H         1 UNK         0.0600 
    161 H161        3.4209  -15.3159  -43.8966 H         1 UNK         0.0600 
    162 H162        3.5365  -15.7675  -42.1984 H         1 UNK         0.0600 
    163 H163        3.9207  -14.1316  -42.6978 H         1 UNK         0.0600 
    164 H164        1.0213  -12.6076  -42.9956 H         1 UNK         0.3000 
    165 H165        1.3654  -11.2470  -44.9695 H         1 UNK         0.0600 
    166 H166        0.4505  -12.7001  -47.5008 H         1 UNK         0.0600 
    167 H167        0.7856  -10.9809  -47.3313 H         1 UNK         0.0600 
    168 H168        2.0915  -12.1457  -47.1937 H         1 UNK         0.0600 
    169 H169       -1.2363  -11.9371  -45.9657 H         1 UNK         0.3000 
    170 H170       -2.9581  -11.1191  -42.9297 H         1 UNK         0.0600 
    171 H171       -2.2301   -9.0112  -44.1661 H         1 UNK         0.0600 
    172 H172       -2.7204   -9.7646  -45.6780 H         1 UNK         0.0600 
    173 H173       -3.9128   -9.4079  -44.4316 H         1 UNK         0.0600 
    174 H174       -2.9292  -12.9337  -45.0940 H         1 UNK         0.3000 
    175 H175       -6.4118  -13.6137  -44.8834 H         1 UNK         0.0600 
    176 H176       -4.9298  -12.6779  -47.4004 H         1 UNK         0.0600 
    177 H177       -6.3874  -13.6709  -47.3648 H         1 UNK         0.0600 
    178 H178       -6.4415  -12.0094  -46.7982 H         1 UNK         0.0600 
    179 H179       -4.3516  -14.8532  -46.4070 H         1 UNK         0.3000 
    180 H180       -2.7787  -16.7207  -44.0082 H         1 UNK         0.0600 
    181 H181       -5.1224  -17.9577  -45.5458 H         1 UNK         0.0600 
    182 H182       -4.9017  -18.0297  -43.8045 H         1 UNK         0.0600 
    183 H183       -3.7466  -18.8233  -44.8539 H         1 UNK         0.0600 
    184 H184       -3.2458  -17.0843  -46.8686 H         1 UNK         0.3000 
    185 H185       -1.6371  -16.4610  -48.3347 H         1 UNK         0.0600 
    186 H186       -3.0791  -14.4951  -48.5955 H         1 UNK         0.0600 
    187 H187       -1.9345  -13.4462  -47.7678 H         1 UNK         0.0600 
    188 H188       -1.5520  -14.0664  -49.3586 H         1 UNK         0.0600 
    189 H189        0.4957  -15.1325  -46.8906 H         1 UNK         0.3000 
    190 H190        0.4856  -23.1327  -48.8355 H         1 UNK         0.3000 
    191 H191       -1.1323  -24.4933  -50.9006 H         1 UNK         0.0600 
    192 H192       -2.3015  -22.3088  -50.9943 H         1 UNK         0.0600 
    193 H193       -0.5701  -22.0624  -51.1425 H         1 UNK         0.0600 
    194 H194       -1.3827  -21.7244  -49.6175 H         1 UNK         0.0600 
    195 H195       -1.1890  -23.6411  -47.4656 H         1 UNK         0.3000 
    196 H196       -3.8768  -24.0671  -46.8478 H         1 UNK         0.0600 
    197 H197       -3.0848  -24.2975  -44.5244 H         1 UNK         0.0600 
    198 H198       -2.1578  -23.0361  -45.3203 H         1 UNK         0.0600 
    199 H199       -1.4485  -24.6305  -45.0680 H         1 UNK         0.0600 
    200 H200       -1.3659  -26.4549  -47.4251 H         1 UNK         0.3000 
    201 H201       -2.6344  -28.7909  -46.4251 H         1 UNK         0.0600 
    202 H202       -0.2361  -28.6828  -47.0719 H         1 UNK         0.0600 
    203 H203       -0.6769  -28.4231  -48.7594 H         1 UNK         0.0600 
    204 H204       -1.0486  -29.9536  -47.9732 H         1 UNK         0.0600 
    205 H205       -3.2790  -26.8792  -49.3026 H         1 UNK         0.3000 
    206 H206       -5.2257  -28.8853  -50.3606 H         1 UNK         0.0600 
    207 H207       -3.4332  -28.1238  -51.9477 H         1 UNK         0.0600 
    208 H208       -5.0243  -27.5925  -52.4648 H         1 UNK         0.0600 
    209 H209       -3.9266  -26.4492  -51.7011 H         1 UNK         0.0600 
    210 H210       -5.1918  -26.4938  -48.1647 H         1 UNK         0.3000 
    211 H211       -6.4879  -24.9484  -47.3022 H         1 UNK         0.0600 
    212 H212       -8.8064  -26.1907  -48.8705 H         1 UNK         0.0600 
    213 H213       -8.9290  -25.1935  -47.4285 H         1 UNK         0.0600 
    214 H214       -8.1945  -26.7842  -47.3268 H         1 UNK         0.0600 
    215 H215       -5.1046  -24.3229  -49.8273 H         1 UNK         0.3000 
    216 H216       -6.8731  -22.3832  -51.2052 H         1 UNK         0.0600 
    217 H217       -5.0282  -22.4197  -52.8928 H         1 UNK         0.0600 
    218 H218       -5.6412  -24.0317  -52.5622 H         1 UNK         0.0600 
    219 H219       -4.1074  -23.5189  -51.8713 H         1 UNK         0.0600 
    220 H220       -4.7980  -22.2478  -48.5819 H         1 UNK         0.3000 
    221 H221       -3.0540  -20.1422  -49.1241 H         1 UNK         0.0600 
    222 H222       -4.2736  -20.9878  -46.4372 H         1 UNK         0.0600 
    223 H223       -2.8335  -21.6680  -47.1897 H         1 UNK         0.0600 
    224 H224       -2.8203  -20.0120  -46.6347 H         1 UNK         0.0600 
    225 H225       -6.4481  -19.8902  -48.3194 H         1 UNK         0.3000 
    226 H226       -6.4440  -17.1088  -47.5384 H         1 UNK         0.0600 
    227 H227       -8.2339  -18.6803  -46.8414 H         1 UNK         0.0600 
    228 H228       -8.9157  -17.3571  -47.7734 H         1 UNK         0.0600 
    229 H229       -8.7015  -18.9347  -48.5235 H         1 UNK         0.0600 
    230 H230       -6.3275  -18.7412  -50.6448 H         1 UNK         0.3000 
    231 H231       -7.2916  -16.4171  -52.1749 H         1 UNK         0.0600 
    232 H232       -6.9679  -17.8895  -54.1079 H         1 UNK         0.0600 
    233 H233       -7.8539  -18.7677  -52.8714 H         1 UNK         0.0600 
    234 H234       -6.1383  -19.0883  -53.1301 H         1 UNK         0.0600 
    235 H235       -4.4029  -17.3902  -50.7332 H         1 UNK         0.3000 
    236 H236       -2.3498  -16.6280  -50.6169 H         1 UNK         0.0600 
    237 H237       -3.3132  -14.3113  -51.0711 H         1 UNK         0.0600 
    238 H238       -1.6516  -14.5001  -51.6203 H         1 UNK         0.0600 
    239 H239       -2.9592  -14.5355  -52.7804 H         1 UNK         0.0600 
    240 H240       -0.2376  -16.5974  -51.6618 H         1 UNK         0.3000 
    241 H241       -0.1043  -17.3914  -54.4780 H         1 UNK         0.0600 
    242 H242        0.7840  -15.0227  -52.4879 H         1 UNK         0.3800 
    243 H243        2.3411  -14.6916  -53.1927 H         1 UNK         0.3800 
    244 H244       -0.1230  -19.5757  -53.4715 H         1 UNK         0.0800 
    245 H245        1.4581  -19.2665  -54.1093 H         1 UNK         0.0800 
    246 H246        3.5940  -18.4786  -52.3404 H         1 UNK         0.0800 
    247 H247        3.3950  -20.1260  -52.8971 H         1 UNK         0.0800 
@<TRIPOS>BOND
     1    1    2 1    
     2    1  127 1    
     3    1  128 1    
     4    1  129 1    
     5    2    3 2    
     6    2    4 am   BACKBONE|DICT|INTERRES
     7    4    5 1    
     8    4  130 1    
     9    5    6 1    
    10    5   65 1    
    11    5  131 1    
    12    6    7 1    
    13    6  132 1    
    14    6  133 1    
    15    7    8 1    
    16    8    9 1    
    17    8  134 1    
    18    8  135 1    
    19    9   10 ar   
    20    9   14 ar   
    21   10   11 ar   
    22   10  136 1    
    23   11   12 ar   
    24   11  126 1    
    25   12   13 ar   
    26   12  137 1    
    27   13   14 ar   
    28   13   15 1    
    29   14  138 1    
    30   15   16 1    
    31   15  139 1    
    32   15  140 1    
    33   16   17 1    
    34   17   18 1    
    35   17  141 1    
    36   17  142 1    
    37   18   19 1    
    38   18   67 1    
    39   18  143 1    
    40   19   20 am   BACKBONE|DICT|INTERRES
    41   19  144 1    
    42   20   21 2    
    43   20   22 1    
    44   22   23 1    
    45   22   24 1    
    46   22  145 1    
    47   23  146 1    
    48   23  147 1    
    49   23  148 1    
    50   24   25 am   BACKBONE|DICT|INTERRES
    51   24  149 1    
    52   25   26 2    
    53   25   27 1    
    54   27   28 1    
    55   27   29 1    
    56   27  150 1    
    57   28  151 1    
    58   28  152 1    
    59   28  153 1    
    60   29   30 am   BACKBONE|DICT|INTERRES
    61   29  154 1    
    62   30   31 2    
    63   30   32 1    
    64   32   33 1    
    65   32   34 1    
    66   32  155 1    
    67   33  156 1    
    68   33  157 1    
    69   33  158 1    
    70   34   35 am   BACKBONE|DICT|INTERRES
    71   34  159 1    
    72   35   36 2    
    73   35   37 1    
    74   37   38 1    
    75   37   39 1    
    76   37  160 1    
    77   38  161 1    
    78   38  162 1    
    79   38  163 1    
    80   39   40 am   BACKBONE|DICT|INTERRES
    81   39  164 1    
    82   40   41 2    
    83   40   42 1    
    84   42   43 1    
    85   42   44 1    
    86   42  165 1    
    87   43  166 1    
    88   43  167 1    
    89   43  168 1    
    90   44   45 am   BACKBONE|DICT|INTERRES
    91   44  169 1    
    92   45   46 2    
    93   45   47 1    
    94   47   48 1    
    95   47   49 1    
    96   47  170 1    
    97   48  171 1    
    98   48  172 1    
    99   48  173 1    
   100   49   50 am   BACKBONE|DICT|INTERRES
   101   49  174 1    
   102   50   51 2    
   103   50   52 1    
   104   52   53 1    
   105   52   54 1    
   106   52  175 1    
   107   53  176 1    
   108   53  177 1    
   109   53  178 1    
   110   54   55 am   BACKBONE|DICT|INTERRES
   111   54  179 1    
   112   55   56 2    
   113   55   57 1    
   114   57   58 1    
   115   57   59 1    
   116   57  180 1    
   117   58  181 1    
   118   58  182 1    
   119   58  183 1    
   120   59   60 am   BACKBONE|DICT|INTERRES
   121   59  184 1    
   122   60   61 2    
   123   60   62 1    
   124   62   63 1    
   125   62   64 1    
   126   62  185 1    
   127   63  186 1    
   128   63  187 1    
   129   63  188 1    
   130   64   65 am   BACKBONE|DICT|INTERRES
   131   64  189 1    
   132   65   66 2    
   133   67   68 2    
   134   67   69 am   BACKBONE|DICT|INTERRES
   135   69   70 1    
   136   69  190 1    
   137   70   71 1    
   138   70   72 1    
   139   70  191 1    
   140   71  192 1    
   141   71  193 1    
   142   71  194 1    
   143   72   73 2    
   144   72   74 am   BACKBONE|DICT|INTERRES
   145   74   75 1    
   146   74  195 1    
   147   75   76 1    
   148   75   77 1    
   149   75  196 1    
   150   76  197 1    
   151   76  198 1    
   152   76  199 1    
   153   77   78 2    
   154   77   79 am   BACKBONE|DICT|INTERRES
   155   79   80 1    
   156   79  200 1    
   157   80   81 1    
   158   80   82 1    
   159   80  201 1    
   160   81  202 1    
   161   81  203 1    
   162   81  204 1    
   163   82   83 2    
   164   82   84 am   BACKBONE|DICT|INTERRES
   165   84   85 1    
   166   84  205 1    
   167   85   86 1    
   168   85   87 1    
   169   85  206 1    
   170   86  207 1    
   171   86  208 1    
   172   86  209 1    
   173   87   88 2    
   174   87   89 am   BACKBONE|DICT|INTERRES
   175   89   90 1    
   176   89  210 1    
   177   90   91 1    
   178   90   92 1    
   179   90  211 1    
   180   91  212 1    
   181   91  213 1    
   182   91  214 1    
   183   92   93 2    
   184   92   94 am   BACKBONE|DICT|INTERRES
   185   94   95 1    
   186   94  215 1    
   187   95   96 1    
   188   95   97 1    
   189   95  216 1    
   190   96  217 1    
   191   96  218 1    
   192   96  219 1    
   193   97   98 2    
   194   97   99 am   BACKBONE|DICT|INTERRES
   195   99  100 1    
   196   99  220 1    
   197  100  101 1    
   198  100  102 1    
   199  100  221 1    
   200  101  222 1    
   201  101  223 1    
   202  101  224 1    
   203  102  103 2    
   204  102  104 am   BACKBONE|DICT|INTERRES
   205  104  105 1    
   206  104  225 1    
   207  105  106 1    
   208  105  107 1    
   209  105  226 1    
   210  106  227 1    
   211  106  228 1    
   212  106  229 1    
   213  107  108 2    
   214  107  109 am   BACKBONE|DICT|INTERRES
   215  109  110 1    
   216  109  230 1    
   217  110  111 1    
   218  110  112 1    
   219  110  231 1    
   220  111  232 1    
   221  111  233 1    
   222  111  234 1    
   223  112  113 2    
   224  112  114 am   BACKBONE|DICT|INTERRES
   225  114  115 1    
   226  114  235 1    
   227  115  116 1    
   228  115  117 1    
   229  115  236 1    
   230  116  237 1    
   231  116  238 1    
   232  116  239 1    
   233  117  118 2    
   234  117  119 am   BACKBONE|DICT|INTERRES
   235  119  120 1    
   236  119  240 1    
   237  120  121 1    
   238  120  124 1    
   239  120  241 1    
   240  121  122 am   BACKBONE|DICT|INTERRES
   241  121  123 2    
   242  122  242 1    
   243  122  243 1    
   244  124  125 1    
   245  124  244 1    
   246  124  245 1    
   247  125  126 1    
   248  126  246 1    
   249  126  247 1    
@<TRIPOS>SUBSTRUCTURE
     1 UNK         1 GROUP             0       ****    0 ROOT    
