@<TRIPOS>MOLECULE
3R540
247   249    1
SMALL
USER_CHARGES


@<TRIPOS>ATOM
      1 CA         -3.7774  -10.6456  -44.8201 C.3       0 UNK        -0.1800 
      2 C          -2.5921  -11.4046  -45.3992 C.2       0 UNK         0.5000 
      3 O          -1.7860  -11.9334  -44.6374 O.2       0 UNK        -0.5000 
      4 N          -2.5004  -11.4475  -46.7346 N.am      1 UNK        -0.5000 
      5 CA         -1.4739  -12.0504  -47.5951 C.3       1 UNK         0.1400 
      6 C6         -0.5429  -13.1322  -46.9772 C.3       23 UNK        -0.0398 
      7 S7          0.3109  -14.1405  -48.2338 S.3       23 UNK        -0.2404 
      8 C8         -0.5408  -15.7285  -47.9999 C.3       23 UNK        -0.0205 
      9 C9         -0.0798  -16.7759  -48.9973 C.ar      23 UNK        -0.0193 
     10 C10        -0.5406  -16.7400  -50.3154 C.ar      23 UNK        -0.1150 
     11 C11        -0.1542  -17.7162  -51.2385 C.ar      23 UNK        -0.0193 
     12 C12         0.6820  -18.7569  -50.8092 C.ar      23 UNK        -0.1150 
     13 C13         1.1558  -18.8043  -49.4935 C.ar      23 UNK        -0.0193 
     14 C14         0.7808  -17.7997  -48.5962 C.ar      23 UNK        -0.1150 
     15 C15         2.0713  -19.9469  -49.0574 C.3       23 UNK        -0.0205 
     16 S16         1.6210  -20.6842  -47.4476 S.3       23 UNK        -0.2404 
     17 C17        -0.1507  -21.0364  -47.6832 C.3       23 UNK        -0.0398 
     18 CA         -0.5718  -22.4390  -47.1991 C.3       11 UNK         0.1400 
     19 N          -0.4077  -22.6267  -45.7568 N.am      11 UNK        -0.5000 
     20 C          -0.6042  -23.7869  -45.1153 C.2       10 UNK         0.5000 
     21 O          -0.8954  -24.8418  -45.6825 O.2       10 UNK        -0.5000 
     22 CA         -0.5279  -23.7438  -43.5808 C.3       10 UNK         0.1400 
     23 CB          0.9241  -23.8878  -43.1023 C.3       10 UNK        -0.1800 
     24 N          -1.1067  -22.5119  -43.0407 N.am      10 UNK        -0.5000 
     25 C          -2.4163  -22.2283  -43.0393 C.2       9 UNK         0.5000 
     26 O          -3.2776  -22.9881  -43.4797 O.2       9 UNK        -0.5000 
     27 CA         -2.8286  -20.8456  -42.5030 C.3       9 UNK         0.1400 
     28 CB         -2.7721  -20.8147  -40.9683 C.3       9 UNK        -0.1800 
     29 N          -2.0082  -19.7620  -43.0438 N.am      9 UNK        -0.5000 
     30 C          -1.9770  -19.4076  -44.3359 C.2       8 UNK         0.5000 
     31 O          -2.6569  -19.9444  -45.2099 O.2       8 UNK        -0.5000 
     32 CA         -0.9962  -18.2861  -44.7262 C.3       8 UNK         0.1400 
     33 CB         -1.6415  -16.9140  -44.4779 C.3       8 UNK        -0.1800 
     34 N           0.3094  -18.3242  -44.0590 N.am      8 UNK        -0.5000 
     35 C           1.1161  -19.3851  -43.9010 C.2       7 UNK         0.5000 
     36 O           0.7947  -20.5407  -44.1729 O.2       7 UNK        -0.5000 
     37 CA          2.5284  -19.1230  -43.3516 C.3       7 UNK         0.1400 
     38 CB          3.5597  -19.2242  -44.4851 C.3       7 UNK        -0.1800 
     39 N           2.6509  -17.8084  -42.7206 N.am      7 UNK        -0.5000 
     40 C           2.5081  -17.5777  -41.4086 C.2       6 UNK         0.5000 
     41 O           2.2454  -18.4552  -40.5856 O.2       6 UNK        -0.5000 
     42 CA          2.6986  -16.1258  -40.9263 C.3       6 UNK         0.1400 
     43 CB          4.1384  -15.9105  -40.4354 C.3       6 UNK        -0.1800 
     44 N           2.3948  -15.1286  -41.9540 N.am      6 UNK        -0.5000 
     45 C           1.1592  -14.8258  -42.3736 C.2       5 UNK         0.5000 
     46 O           0.1384  -15.3424  -41.9202 O.2       5 UNK        -0.5000 
     47 CA          1.0492  -13.7907  -43.5098 C.3       5 UNK         0.1400 
     48 CB          0.9804  -12.3737  -42.9214 C.3       5 UNK        -0.1800 
     49 N           2.1362  -13.8481  -44.4956 N.am      5 UNK        -0.5000 
     50 C           2.4915  -14.9273  -45.2104 C.2       4 UNK         0.5000 
     51 O           1.9640  -16.0316  -45.0764 O.2       4 UNK        -0.5000 
     52 CA          3.6215  -14.7291  -46.2358 C.3       4 UNK         0.1400 
     53 CB          3.6853  -15.8444  -47.2949 C.3       4 UNK        -0.1800 
     54 N           3.4705  -13.4394  -46.9065 N.am      4 UNK        -0.5000 
     55 C           4.4368  -12.5279  -47.0608 C.2       3 UNK         0.5000 
     56 O           5.5897  -12.6728  -46.6528 O.2       3 UNK        -0.5000 
     57 CA          4.0528  -11.2258  -47.7906 C.3       3 UNK         0.1400 
     58 CB          4.3762  -11.3402  -49.2881 C.3       3 UNK        -0.1800 
     59 N           2.6479  -10.8317  -47.6392 N.am      3 UNK        -0.5000 
     60 C           2.0581  -10.4823  -46.4859 C.2       2 UNK         0.5000 
     61 O           2.6189  -10.5517  -45.3927 O.2       2 UNK        -0.5000 
     62 CA          0.6031   -9.9716  -46.5556 C.3       2 UNK         0.1400 
     63 CB          0.5281   -8.5079  -46.0938 C.3       2 UNK        -0.1800 
     64 N           0.0515  -10.0549  -47.9113 N.am      2 UNK        -0.5000 
     65 C          -0.7821  -10.9607  -48.4471 C.2       1 UNK         0.5000 
     66 O          -1.0657  -10.8999  -49.6424 O.2       1 UNK        -0.5000 
     67 C          -2.0109  -22.7287  -47.6684 C.2       11 UNK         0.5000 
     68 O          -2.1846  -23.1634  -48.8042 O.2       11 UNK        -0.5000 
     69 N          -3.0123  -22.4707  -46.8190 N.am      12 UNK        -0.5000 
     70 CA         -4.4135  -22.7682  -47.0960 C.3       12 UNK         0.1400 
     71 CB         -5.3108  -21.7830  -46.3312 C.3       12 UNK        -0.1800 
     72 C          -4.7630  -24.2213  -46.7396 C.2       12 UNK         0.5000 
     73 O          -5.3626  -24.9152  -47.5598 O.2       12 UNK        -0.5000 
     74 N          -4.4032  -24.6485  -45.5220 N.am      13 UNK        -0.5000 
     75 CA         -4.8184  -25.9289  -44.9515 C.3       13 UNK         0.1400 
     76 CB         -4.6435  -25.8894  -43.4253 C.3       13 UNK        -0.1800 
     77 C          -4.0857  -27.1457  -45.5382 C.2       13 UNK         0.5000 
     78 O          -4.7311  -28.1636  -45.7940 O.2       13 UNK        -0.5000 
     79 N          -2.7608  -27.0419  -45.7045 N.am      14 UNK        -0.5000 
     80 CA         -1.9059  -28.1607  -46.0980 C.3       14 UNK         0.1400 
     81 CB         -0.6377  -28.1777  -45.2271 C.3       14 UNK        -0.1800 
     82 C          -1.5520  -28.0976  -47.5884 C.2       14 UNK         0.5000 
     83 O          -1.7609  -29.0813  -48.2998 O.2       14 UNK        -0.5000 
     84 N          -1.0100  -26.9562  -48.0361 N.am      15 UNK        -0.5000 
     85 CA         -0.5135  -26.7953  -49.4067 C.3       15 UNK         0.1400 
     86 CB          0.5106  -25.6512  -49.4504 C.3       15 UNK        -0.1800 
     87 C          -1.6314  -26.5415  -50.4336 C.2       15 UNK         0.5000 
     88 O          -1.4676  -26.8961  -51.6008 O.2       15 UNK        -0.5000 
     89 N          -2.7168  -25.8921  -49.9863 N.am      16 UNK        -0.5000 
     90 CA         -3.8472  -25.3756  -50.7719 C.3       16 UNK         0.1400 
     91 CB         -4.6204  -26.5163  -51.4627 C.3       16 UNK        -0.1800 
     92 C          -3.4718  -24.2398  -51.7520 C.2       16 UNK         0.5000 
     93 O          -4.2977  -23.8474  -52.5761 O.2       16 UNK        -0.5000 
     94 N          -2.2575  -23.6917  -51.6183 N.am      17 UNK        -0.5000 
     95 CA         -1.7265  -22.5808  -52.4010 C.3       17 UNK         0.1400 
     96 CB         -0.2294  -22.4135  -52.0982 C.3       17 UNK        -0.1800 
     97 C          -2.4854  -21.2752  -52.1291 C.2       17 UNK         0.5000 
     98 O          -2.8941  -20.6074  -53.0766 O.2       17 UNK        -0.5000 
     99 N          -2.7100  -20.9605  -50.8450 N.am      18 UNK        -0.5000 
    100 CA        -3.4650  -19.7736  -50.4321 C.3       18 UNK         0.1400 
    101 CB        -3.1261  -19.3949  -48.9844 C.3       18 UNK        -0.1800 
    102 C         -4.9817  -19.9455  -50.6250 C.2       18 UNK         0.5000 
    103 O         -5.6755  -18.9499  -50.8265 O.2       18 UNK        -0.5000 
    104 N         -5.4646  -21.1973  -50.6191 N.am      19 UNK        -0.5000 
    105 CA        -6.8508  -21.5474  -50.9424 C.3       19 UNK         0.1400 
    106 CB        -7.1315  -22.9971  -50.5179 C.3       19 UNK        -0.1800 
    107 C         -7.1616  -21.3319  -52.4372 C.2       19 UNK         0.5000 
    108 O         -8.2386  -20.8397  -52.7731 O.2       19 UNK        -0.5000 
    109 N         -6.1862  -21.6505  -53.2995 N.am      20 UNK        -0.5000 
    110 CA        -6.1966  -21.3690  -54.7372 C.3       20 UNK         0.1400 
    111 CB        -5.2469  -22.3608  -55.4291 C.3       20 UNK        -0.1800 
    112 C         -5.7951  -19.9166  -55.0781 C.2       20 UNK         0.5000 
    113 O         -5.7890  -19.5560  -56.2569 O.2       20 UNK        -0.5000 
    114 N         -5.4214  -19.1257  -54.0594 N.am      21 UNK        -0.5000 
    115 CA        -4.9192  -17.7472  -54.1214 C.3       21 UNK         0.1400 
    116 CB        -6.0531  -16.7831  -54.5243 C.3       21 UNK        -0.1800 
    117 C         -3.6594  -17.5921  -55.0030 C.2       21 UNK         0.5000 
    118 O         -3.4499  -16.5343  -55.5990 O.2       21 UNK        -0.5000 
    119 N         -2.8552  -18.6617  -55.0780 N.am      22 UNK        -0.5000 
    120 CA        -1.6759  -18.8263  -55.9413 C.3       22 UNK         0.1400 
    121 C         -1.9807  -18.7447  -57.4717 C.2       22 UNK         0.5000 
    122 N         -3.2196  -18.9393  -57.9122 N.am      22 UNK        -0.7600 
    123 O         -1.0805  -18.5405  -58.2820 O.2       22 UNK        -0.5000 
    124 C124       -0.4822  -17.9385  -55.4869 C.3       23 UNK        -0.0398 
    125 S125        0.2694  -18.5272  -53.9284 S.3       23 UNK        -0.2404 
    126 C126       -0.6850  -17.6106  -52.6703 C.3       23 UNK        -0.0205 
    127 H127       -4.4169  -10.2312  -45.5998 H         1 UNK         0.0600 
    128 H128       -3.4260   -9.8239  -44.1961 H         1 UNK         0.0600 
    129 H129       -4.3815  -11.3099  -44.2021 H         1 UNK         0.0600 
    130 H130       -3.2155  -10.9614  -47.2589 H         1 UNK         0.3000 
    131 H131       -2.0856  -12.6055  -48.3091 H         1 UNK         0.0600 
    132 H132       -1.1331  -13.7997  -46.3486 H         1 UNK         0.0800 
    133 H133        0.2052  -12.7056  -46.3152 H         1 UNK         0.0800 
    134 H134       -0.3558  -16.0775  -46.9846 H         1 UNK         0.0800 
    135 H135       -1.6187  -15.5869  -48.0933 H         1 UNK         0.0800 
    136 H136       -1.2025  -15.9422  -50.6227 H         1 UNK         0.1150 
    137 H137        0.9746  -19.5357  -51.4973 H         1 UNK         0.1150 
    138 H138        1.1439  -17.8259  -47.5778 H         1 UNK         0.1150 
    139 H139        2.0768  -20.7402  -49.8066 H         1 UNK         0.0800 
    140 H140        3.0934  -19.5715  -48.9971 H         1 UNK         0.0800 
    141 H141       -0.3778  -20.9305  -48.7452 H         1 UNK         0.0800 
    142 H142       -0.7240  -20.2653  -47.1699 H         1 UNK         0.0800 
    143 H143        0.0790  -23.1659  -47.6843 H         1 UNK         0.0600 
    144 H144       -0.1087  -21.8165  -45.2185 H         1 UNK         0.3000 
    145 H145       -1.0994  -24.5906  -43.1949 H         1 UNK         0.0600 
    146 H146        0.9797  -23.9093  -42.0140 H         1 UNK         0.0600 
    147 H147        1.3636  -24.8164  -43.4690 H         1 UNK         0.0600 
    148 H148        1.5504  -23.0673  -43.4544 H         1 UNK         0.0600 
    149 H149       -0.4536  -21.7890  -42.7703 H         1 UNK         0.3000 
    150 H150       -3.8621  -20.6681  -42.8080 H         1 UNK         0.0600 
    151 H151       -3.3845  -21.6091  -40.5396 H         1 UNK         0.0600 
    152 H152       -3.1500  -19.8690  -40.5794 H         1 UNK         0.0600 
    153 H153       -1.7549  -20.9474  -40.5976 H         1 UNK         0.0600 
    154 H154       -1.4020  -19.2764  -42.3992 H         1 UNK         0.3000 
    155 H155       -0.8010  -18.3770  -45.7955 H         1 UNK         0.0600 
    156 H156       -1.8874  -16.7719  -43.4248 H         1 UNK         0.0600 
    157 H157       -2.5640  -16.8057  -45.0497 H         1 UNK         0.0600 
    158 H158       -0.9785  -16.1008  -44.7703 H         1 UNK         0.0600 
    159 H159        0.7095  -17.4203  -43.8464 H         1 UNK         0.3000 
    160 H160        2.7501  -19.9076  -42.6251 H         1 UNK         0.0600 
    161 H161        3.3512  -18.5086  -45.2802 H         1 UNK         0.0600 
    162 H162        3.5499  -20.2191  -44.9322 H         1 UNK         0.0600 
    163 H163        4.5705  -19.0412  -44.1208 H         1 UNK         0.0600 
    164 H164        2.8050  -17.0264  -43.3442 H         1 UNK         0.3000 
    165 H165        2.0240  -15.9676  -40.0821 H         1 UNK         0.0600 
    166 H166        4.2697  -14.9094  -40.0242 H         1 UNK         0.0600 
    167 H167        4.3925  -16.6199  -39.6467 H         1 UNK         0.0600 
    168 H168        4.8626  -16.0416  -41.2405 H         1 UNK         0.0600 
    169 H169        3.1782  -14.6524  -42.3766 H         1 UNK         0.3000 
    170 H170        0.1151  -13.9871  -44.0389 H         1 UNK         0.0600 
    171 H171        0.1742  -12.2922  -42.1911 H         1 UNK         0.0600 
    172 H172        1.9095  -12.0975  -42.4214 H         1 UNK         0.0600 
    173 H173        0.7838  -11.6332  -43.6954 H         1 UNK         0.0600 
    174 H174        2.6281  -12.9811  -44.6664 H         1 UNK         0.3000 
    175 H175        4.5506  -14.7548  -45.6634 H         1 UNK         0.0600 
    176 H176        2.7763  -15.8796  -47.8941 H         1 UNK         0.0600 
    177 H177        4.5239  -15.6918  -47.9741 H         1 UNK         0.0600 
    178 H178        3.8176  -16.8237  -46.8361 H         1 UNK         0.0600 
    179 H179        2.5532  -13.2412  -47.2821 H         1 UNK         0.3000 
    180 H180        4.6664  -10.4264  -47.3700 H         1 UNK         0.0600 
    181 H181        3.7673  -12.1043  -49.7733 H         1 UNK         0.0600 
    182 H182        5.4225  -11.6068  -49.4436 H         1 UNK         0.0600 
    183 H183        4.2040  -10.3950  -49.8033 H         1 UNK         0.0600 
    184 H184        2.1084  -10.7651  -48.4898 H         1 UNK         0.3000 
    185 H185        0.0202  -10.5570  -45.8528 H         1 UNK         0.0600 
    186 H186        0.9000   -8.3981  -45.0741 H         1 UNK         0.0600 
    187 H187        1.1201   -7.8512  -46.7324 H         1 UNK         0.0600 
    188 H188       -0.5005   -8.1463  -46.1017 H         1 UNK         0.0600 
    189 H189        0.3931   -9.3376  -48.5345 H         1 UNK         0.3000 
    190 H190       -2.8029  -22.0372  -45.9281 H         1 UNK         0.3000 
    191 H191       -4.6088  -22.6300  -48.1612 H         1 UNK         0.0600 
    192 H192       -5.1196  -20.7553  -46.6398 H         1 UNK         0.0600 
    193 H193       -6.3653  -21.9878  -46.5196 H         1 UNK         0.0600 
    194 H194       -5.1502  -21.8396  -45.2540 H         1 UNK         0.0600 
    195 H195       -3.9246  -24.0102  -44.8905 H         1 UNK         0.3000 
    196 H196       -5.8835  -26.0579  -45.1567 H         1 UNK         0.0600 
    197 H197       -4.9806  -26.8204  -42.9678 H         1 UNK         0.0600 
    198 H198       -5.2252  -25.0806  -42.9828 H         1 UNK         0.0600 
    199 H199       -3.5999  -25.7436  -43.1433 H         1 UNK         0.0600 
    200 H200       -2.2959  -26.1560  -45.5299 H         1 UNK         0.3000 
    201 H201       -2.4210  -29.1078  -45.9233 H         1 UNK         0.0600 
    202 H202       -0.8897  -28.2541  -44.1694 H         1 UNK         0.0600 
    203 H203       -0.0302  -27.2829  -45.3605 H         1 UNK         0.0600 
    204 H204       -0.0104  -29.0352  -45.4737 H         1 UNK         0.0600 
    205 H205       -0.8655  -26.1920  -47.3862 H         1 UNK         0.3000 
    206 H206        0.0035  -27.7125  -49.6976 H         1 UNK         0.0600 
    207 H207        1.2782  -25.7700  -48.6854 H         1 UNK         0.0600 
    208 H208        1.0156  -25.6226  -50.4168 H         1 UNK         0.0600 
    209 H209        0.0359  -24.6825  -49.3097 H         1 UNK         0.0600 
    210 H210       -2.7219  -25.6249  -49.0118 H         1 UNK         0.3000 
    211 H211       -4.5224  -24.9190  -50.0491 H         1 UNK         0.0600 
    212 H212       -4.0398  -26.9762  -52.2625 H         1 UNK         0.0600 
    213 H213       -5.5467  -26.1480  -51.9051 H         1 UNK         0.0600 
    214 H214       -4.8904  -27.2959  -50.7503 H         1 UNK         0.0600 
    215 H215       -1.6971  -24.0071  -50.8396 H         1 UNK         0.3000 
    216 H216       -1.8411  -22.8242  -53.4593 H         1 UNK         0.0600 
    217 H217        0.1977  -21.6017  -52.6885 H         1 UNK         0.0600 
    218 H218        0.3250  -23.3194  -52.3440 H         1 UNK         0.0600 
    219 H219       -0.0495  -22.1867  -51.0465 H         1 UNK         0.0600 
    220 H220       -2.4032  -21.6038  -50.1248 H         1 UNK         0.3000 
    221 H221       -3.1585  -18.9361  -51.0614 H         1 UNK         0.0600 
    222 H222       -3.3773  -20.1888  -48.2850 H         1 UNK         0.0600 
    223 H223       -2.0673  -19.1631  -48.8787 H         1 UNK         0.0600 
    224 H224       -3.6770  -18.5058  -48.6755 H         1 UNK         0.0600 
    225 H225       -4.8185  -21.9592  -50.4846 H         1 UNK         0.3000 
    226 H226       -7.5093  -20.8941  -50.3658 H         1 UNK         0.0600 
    227 H227       -6.9204  -23.1493  -49.4592 H         1 UNK         0.0600 
    228 H228       -8.1801  -23.2501  -50.6788 H         1 UNK         0.0600 
    229 H229       -6.5361  -23.7110  -51.0860 H         1 UNK         0.0600 
    230 H230       -5.3600  -22.1239  -52.9495 H         1 UNK         0.3000 
    231 H231       -7.2043  -21.5306  -55.1249 H         1 UNK         0.0600 
    232 H232       -5.5384  -23.3917  -55.2270 H         1 UNK         0.0600 
    233 H233       -4.2180  -22.2327  -55.0898 H         1 UNK         0.0600 
    234 H234       -5.2558  -22.2278  -56.5116 H         1 UNK         0.0600 
    235 H235       -5.4437  -19.5320  -53.1352 H         1 UNK         0.3000 
    236 H236       -4.6099  -17.4902  -53.1074 H         1 UNK         0.0600 
    237 H237       -5.7332  -15.7437  -54.4420 H         1 UNK         0.0600 
    238 H238       -6.3756  -16.9465  -55.5531 H         1 UNK         0.0600 
    239 H239       -6.9215  -16.9054  -53.8768 H         1 UNK         0.0600 
    240 H240       -3.0663  -19.4600  -54.4826 H         1 UNK         0.3000 
    241 H241       -1.3706  -19.8642  -55.8041 H         1 UNK         0.0600 
    242 H242       -3.9835  -19.1110  -57.2686 H         1 UNK         0.3800 
    243 H243       -3.4038  -18.8970  -58.9019 H         1 UNK         0.3800 
    244 H244       -0.7760  -16.8924  -55.3962 H         1 UNK         0.0800 
    245 H245        0.3181  -17.9566  -56.2278 H         1 UNK         0.0800 
    246 H246       -1.7127  -17.9698  -52.6788 H         1 UNK         0.0800 
    247 H247       -0.7167  -16.5601  -52.9632 H         1 UNK         0.0800 
@<TRIPOS>BOND
     1    1    2 1    
     2    1  127 1    
     3    1  128 1    
     4    1  129 1    
     5    2    3 2    
     6    2    4 am   BACKBONE|DICT|INTERRES
     7    4    5 1    
     8    4  130 1    
     9    5    6 1    
    10    5   65 1    
    11    5  131 1    
    12    6    7 1    
    13    6  132 1    
    14    6  133 1    
    15    7    8 1    
    16    8    9 1    
    17    8  134 1    
    18    8  135 1    
    19    9   10 ar   
    20    9   14 ar   
    21   10   11 ar   
    22   10  136 1    
    23   11   12 ar   
    24   11  126 1    
    25   12   13 ar   
    26   12  137 1    
    27   13   14 ar   
    28   13   15 1    
    29   14  138 1    
    30   15   16 1    
    31   15  139 1    
    32   15  140 1    
    33   16   17 1    
    34   17   18 1    
    35   17  141 1    
    36   17  142 1    
    37   18   19 1    
    38   18   67 1    
    39   18  143 1    
    40   19   20 am   BACKBONE|DICT|INTERRES
    41   19  144 1    
    42   20   21 2    
    43   20   22 1    
    44   22   23 1    
    45   22   24 1    
    46   22  145 1    
    47   23  146 1    
    48   23  147 1    
    49   23  148 1    
    50   24   25 am   BACKBONE|DICT|INTERRES
    51   24  149 1    
    52   25   26 2    
    53   25   27 1    
    54   27   28 1    
    55   27   29 1    
    56   27  150 1    
    57   28  151 1    
    58   28  152 1    
    59   28  153 1    
    60   29   30 am   BACKBONE|DICT|INTERRES
    61   29  154 1    
    62   30   31 2    
    63   30   32 1    
    64   32   33 1    
    65   32   34 1    
    66   32  155 1    
    67   33  156 1    
    68   33  157 1    
    69   33  158 1    
    70   34   35 am   BACKBONE|DICT|INTERRES
    71   34  159 1    
    72   35   36 2    
    73   35   37 1    
    74   37   38 1    
    75   37   39 1    
    76   37  160 1    
    77   38  161 1    
    78   38  162 1    
    79   38  163 1    
    80   39   40 am   BACKBONE|DICT|INTERRES
    81   39  164 1    
    82   40   41 2    
    83   40   42 1    
    84   42   43 1    
    85   42   44 1    
    86   42  165 1    
    87   43  166 1    
    88   43  167 1    
    89   43  168 1    
    90   44   45 am   BACKBONE|DICT|INTERRES
    91   44  169 1    
    92   45   46 2    
    93   45   47 1    
    94   47   48 1    
    95   47   49 1    
    96   47  170 1    
    97   48  171 1    
    98   48  172 1    
    99   48  173 1    
   100   49   50 am   BACKBONE|DICT|INTERRES
   101   49  174 1    
   102   50   51 2    
   103   50   52 1    
   104   52   53 1    
   105   52   54 1    
   106   52  175 1    
   107   53  176 1    
   108   53  177 1    
   109   53  178 1    
   110   54   55 am   BACKBONE|DICT|INTERRES
   111   54  179 1    
   112   55   56 2    
   113   55   57 1    
   114   57   58 1    
   115   57   59 1    
   116   57  180 1    
   117   58  181 1    
   118   58  182 1    
   119   58  183 1    
   120   59   60 am   BACKBONE|DICT|INTERRES
   121   59  184 1    
   122   60   61 2    
   123   60   62 1    
   124   62   63 1    
   125   62   64 1    
   126   62  185 1    
   127   63  186 1    
   128   63  187 1    
   129   63  188 1    
   130   64   65 am   BACKBONE|DICT|INTERRES
   131   64  189 1    
   132   65   66 2    
   133   67   68 2    
   134   67   69 am   BACKBONE|DICT|INTERRES
   135   69   70 1    
   136   69  190 1    
   137   70   71 1    
   138   70   72 1    
   139   70  191 1    
   140   71  192 1    
   141   71  193 1    
   142   71  194 1    
   143   72   73 2    
   144   72   74 am   BACKBONE|DICT|INTERRES
   145   74   75 1    
   146   74  195 1    
   147   75   76 1    
   148   75   77 1    
   149   75  196 1    
   150   76  197 1    
   151   76  198 1    
   152   76  199 1    
   153   77   78 2    
   154   77   79 am   BACKBONE|DICT|INTERRES
   155   79   80 1    
   156   79  200 1    
   157   80   81 1    
   158   80   82 1    
   159   80  201 1    
   160   81  202 1    
   161   81  203 1    
   162   81  204 1    
   163   82   83 2    
   164   82   84 am   BACKBONE|DICT|INTERRES
   165   84   85 1    
   166   84  205 1    
   167   85   86 1    
   168   85   87 1    
   169   85  206 1    
   170   86  207 1    
   171   86  208 1    
   172   86  209 1    
   173   87   88 2    
   174   87   89 am   BACKBONE|DICT|INTERRES
   175   89   90 1    
   176   89  210 1    
   177   90   91 1    
   178   90   92 1    
   179   90  211 1    
   180   91  212 1    
   181   91  213 1    
   182   91  214 1    
   183   92   93 2    
   184   92   94 am   BACKBONE|DICT|INTERRES
   185   94   95 1    
   186   94  215 1    
   187   95   96 1    
   188   95   97 1    
   189   95  216 1    
   190   96  217 1    
   191   96  218 1    
   192   96  219 1    
   193   97   98 2    
   194   97   99 am   BACKBONE|DICT|INTERRES
   195   99  100 1    
   196   99  220 1    
   197  100  101 1    
   198  100  102 1    
   199  100  221 1    
   200  101  222 1    
   201  101  223 1    
   202  101  224 1    
   203  102  103 2    
   204  102  104 am   BACKBONE|DICT|INTERRES
   205  104  105 1    
   206  104  225 1    
   207  105  106 1    
   208  105  107 1    
   209  105  226 1    
   210  106  227 1    
   211  106  228 1    
   212  106  229 1    
   213  107  108 2    
   214  107  109 am   BACKBONE|DICT|INTERRES
   215  109  110 1    
   216  109  230 1    
   217  110  111 1    
   218  110  112 1    
   219  110  231 1    
   220  111  232 1    
   221  111  233 1    
   222  111  234 1    
   223  112  113 2    
   224  112  114 am   BACKBONE|DICT|INTERRES
   225  114  115 1    
   226  114  235 1    
   227  115  116 1    
   228  115  117 1    
   229  115  236 1    
   230  116  237 1    
   231  116  238 1    
   232  116  239 1    
   233  117  118 2    
   234  117  119 am   BACKBONE|DICT|INTERRES
   235  119  120 1    
   236  119  240 1    
   237  120  121 1    
   238  120  124 1    
   239  120  241 1    
   240  121  122 am   BACKBONE|DICT|INTERRES
   241  121  123 2    
   242  122  242 1    
   243  122  243 1    
   244  124  125 1    
   245  124  244 1    
   246  124  245 1    
   247  125  126 1    
   248  126  246 1    
   249  126  247 1    
@<TRIPOS>SUBSTRUCTURE
     1 UNK         1 GROUP             0       ****    0 ROOT    
