@<TRIPOS>MOLECULE
3R540
247   249    1
SMALL
USER_CHARGES


@<TRIPOS>ATOM
      1 CA         -2.2332  -11.7536  -53.9369 C.3       0 UNK        -0.1800 
      2 C          -1.3750  -12.4552  -52.8930 C.2       0 UNK         0.5000 
      3 O          -1.8948  -12.8711  -51.8581 O.2       0 UNK        -0.5000 
      4 N          -0.0692  -12.5836  -53.1652 N.am      1 UNK        -0.5000 
      5 CA          0.9485  -13.1958  -52.3010 C.3       1 UNK         0.1400 
      6 C6          0.7474  -14.7230  -52.0902 C.3       23 UNK        -0.0398 
      7 S7          0.9730  -15.6276  -53.6599 S.3       23 UNK        -0.2404 
      8 C8          2.2470  -16.8528  -53.2227 C.3       23 UNK        -0.0205 
      9 C9          1.6399  -18.0724  -52.5463 C.ar      23 UNK        -0.0193 
     10 C10         1.0308  -19.0621  -53.3222 C.ar      23 UNK        -0.1150 
     11 C11         0.4674  -20.1912  -52.7232 C.ar      23 UNK        -0.0193 
     12 C12         0.5177  -20.3290  -51.3339 C.ar      23 UNK        -0.1150 
     13 C13         1.1172  -19.3426  -50.5463 C.ar      23 UNK        -0.0193 
     14 C14         1.6848  -18.2192  -51.1566 C.ar      23 UNK        -0.1150 
     15 C15         1.1141  -19.4806  -49.0350 C.3       23 UNK        -0.0205 
     16 S16         2.4610  -20.5570  -48.4577 S.3       23 UNK        -0.2404 
     17 C17         1.9990  -20.7057  -46.6990 C.3       23 UNK        -0.0398 
     18 CA          1.4031  -22.0746  -46.2859 C.3       11 UNK         0.1400 
     19 N           1.0924  -22.0897  -44.8553 N.am      11 UNK        -0.5000 
     20 C           0.7023  -23.1628  -44.1543 C.2       10 UNK         0.5000 
     21 O           0.6218  -24.2973  -44.6244 O.2       10 UNK        -0.5000 
     22 CA          0.2777  -22.9100  -42.6959 C.3       10 UNK         0.1400 
     23 CB          1.5040  -22.7890  -41.7790 C.3       10 UNK        -0.1800 
     24 N          -0.5543  -21.7132  -42.5593 N.am      10 UNK        -0.5000 
     25 C          -1.7638  -21.5582  -43.1164 C.2       9 UNK         0.5000 
     26 O          -2.3375  -22.4352  -43.7597 O.2       9 UNK        -0.5000 
     27 CA         -2.4167  -20.1722  -42.9834 C.3       9 UNK         0.1400 
     28 CB         -3.0863  -20.0008  -41.6114 C.3       9 UNK        -0.1800 
     29 N          -1.4544  -19.0936  -43.2065 N.am      9 UNK        -0.5000 
     30 C          -0.8876  -18.8206  -44.3904 C.2       8 UNK         0.5000 
     31 O          -1.1430  -19.4281  -45.4284 O.2       8 UNK        -0.5000 
     32 CA          0.1776  -17.7122  -44.4114 C.3       8 UNK         0.1400 
     33 CB         -0.4722  -16.3376  -44.6059 C.3       8 UNK        -0.1800 
     34 N           0.9969  -17.7042  -43.1996 N.am      8 UNK        -0.5000 
     35 C           1.8945  -18.6514  -42.8970 C.2       7 UNK         0.5000 
     36 O           2.1272  -19.6256  -43.6127 O.2       7 UNK        -0.5000 
     37 CA          2.6153  -18.5080  -41.5438 C.3       7 UNK         0.1400 
     38 CB          3.8018  -17.5396  -41.6624 C.3       7 UNK        -0.1800 
     39 N           1.7401  -18.0780  -40.4462 N.am      7 UNK        -0.5000 
     40 C           0.6705  -18.7693  -40.0221 C.2       6 UNK         0.5000 
     41 O           0.2596  -19.7892  -40.5745 O.2       6 UNK        -0.5000 
     42 CA         -0.0749  -18.2382  -38.7916 C.3       6 UNK         0.1400 
     43 CB          0.6164  -18.6903  -37.4936 C.3       6 UNK        -0.1800 
     44 N          -0.2120  -16.7807  -38.8146 N.am      6 UNK        -0.5000 
     45 C          -1.2287  -16.1160  -38.2495 C.2       5 UNK         0.5000 
     46 O          -2.1538  -16.6670  -37.6507 O.2       5 UNK        -0.5000 
     47 CA         -1.2197  -14.5771  -38.3491 C.3       5 UNK         0.1400 
     48 CB         -0.7180  -13.9627  -37.0326 C.3       5 UNK        -0.1800 
     49 N          -0.4236  -14.0350  -39.4544 N.am      5 UNK        -0.5000 
     50 C          -0.7372  -14.1478  -40.7504 C.2       4 UNK         0.5000 
     51 O          -1.6884  -14.8099  -41.1750 O.2       4 UNK        -0.5000 
     52 CA          0.1728  -13.4014  -41.7360 C.3       4 UNK         0.1400 
     53 CB          1.5312  -14.1129  -41.8885 C.3       4 UNK        -0.1800 
     54 N          -0.5093  -13.3286  -43.0232 N.am      4 UNK        -0.5000 
     55 C          -0.2029  -12.5104  -44.0320 C.2       3 UNK         0.5000 
     56 O           0.7050  -11.6752  -43.9898 O.2       3 UNK        -0.5000 
     57 CA         -1.0649  -12.6410  -45.2972 C.3       3 UNK         0.1400 
     58 CB         -2.3225  -11.7635  -45.1933 C.3       3 UNK        -0.1800 
     59 N          -0.2728  -12.2080  -46.4432 N.am      3 UNK        -0.5000 
     60 C          -0.0337  -12.9243  -47.5448 C.2       2 UNK         0.5000 
     61 O          -0.5327  -14.0275  -47.7834 O.2       2 UNK        -0.5000 
     62 CA          0.9628  -12.3040  -48.5325 C.3       2 UNK         0.1400 
     63 CB          2.4096  -12.4605  -48.0281 C.3       2 UNK        -0.1800 
     64 N           0.8260  -12.9471  -49.8352 N.am      2 UNK        -0.5000 
     65 C           1.1213  -12.3706  -51.0057 C.2       1 UNK         0.5000 
     66 O           1.5391  -11.2140  -51.0997 O.2       1 UNK        -0.5000 
     67 C           0.1791  -22.4924  -47.1336 C.2       11 UNK         0.5000 
     68 O           0.3066  -23.3719  -47.9851 O.2       11 UNK        -0.5000 
     69 N          -0.9910  -21.8982  -46.8574 N.am      12 UNK        -0.5000 
     70 CA         -2.2558  -22.2201  -47.5205 C.3       12 UNK         0.1400 
     71 CB         -3.3362  -21.2164  -47.0909 C.3       12 UNK        -0.1800 
     72 C          -2.7189  -23.6680  -47.2710 C.2       12 UNK         0.5000 
     73 O          -3.1990  -24.3203  -48.1972 O.2       12 UNK        -0.5000 
     74 N          -2.5324  -24.1663  -46.0409 N.am      13 UNK        -0.5000 
     75 CA         -2.8054  -25.5531  -45.6616 C.3       13 UNK         0.1400 
     76 CB         -2.6946  -25.7083  -44.1376 C.3       13 UNK        -0.1800 
     77 C          -1.8891  -26.5575  -46.3847 C.2       13 UNK         0.5000 
     78 O          -2.3709  -27.6002  -46.8279 O.2       13 UNK        -0.5000 
     79 N          -0.5999  -26.2148  -46.5211 N.am      14 UNK        -0.5000 
     80 CA          0.3922  -26.9948  -47.2635 C.3       14 UNK         0.1400 
     81 CB          1.8009  -26.4640  -46.9563 C.3       14 UNK        -0.1800 
     82 C           0.1250  -27.0045  -48.7808 C.2       14 UNK         0.5000 
     83 O           0.2598  -28.0527  -49.4134 O.2       14 UNK        -0.5000 
     84 N          -0.2713  -25.8485  -49.3315 N.am      15 UNK        -0.5000 
     85 CA         -0.6731  -25.6829  -50.7307 C.3       15 UNK         0.1400 
     86 CB         -0.7344  -24.1833  -51.0603 C.3       15 UNK        -0.1800 
     87 C          -2.0223  -26.3503  -51.0629 C.2       15 UNK         0.5000 
     88 O          -2.2525  -26.6992  -52.2213 O.2       15 UNK        -0.5000 
     89 N          -2.8831  -26.4945  -50.0450 N.am      16 UNK        -0.5000 
     90 CA         -4.2706  -26.9631  -50.0934 C.3       16 UNK         0.1400 
     91 CB         -4.3495  -28.4336  -50.5535 C.3       16 UNK        -0.1800 
     92 C          -5.1815  -26.0144  -50.9023 C.2       16 UNK         0.5000 
     93 O          -6.1087  -26.4674  -51.5766 O.2       16 UNK        -0.5000 
     94 N          -4.8992  -24.7098  -50.8162 N.am      17 UNK        -0.5000 
     95 CA         -5.5842  -23.6278  -51.5138 C.3       17 UNK         0.1400 
     96 CB         -5.1893  -23.6208  -53.0024 C.3       17 UNK        -0.1800 
     97 C          -5.1960  -22.3011  -50.8508 C.2       17 UNK         0.5000 
     98 O          -4.1150  -22.2066  -50.2675 O.2       17 UNK        -0.5000 
     99 N          -6.0705  -21.2938  -50.9621 N.am      18 UNK        -0.5000 
    100 CA        -5.8113  -19.9315  -50.4950 C.3       18 UNK         0.1400 
    101 CB        -7.1013  -19.1046  -50.6057 C.3       18 UNK        -0.1800 
    102 C         -4.6840  -19.2765  -51.3109 C.2       18 UNK         0.5000 
    103 O         -4.6976  -19.3797  -52.5392 O.2       18 UNK        -0.5000 
    104 N         -3.7565  -18.5970  -50.6225 N.am      19 UNK        -0.5000 
    105 CA        -2.5400  -18.0060  -51.1925 C.3       19 UNK         0.1400 
    106 CB        -1.7612  -17.2899  -50.0778 C.3       19 UNK        -0.1800 
    107 C         -2.8004  -17.0546  -52.3746 C.2       19 UNK         0.5000 
    108 O         -2.1145  -17.1329  -53.3918 O.2       19 UNK        -0.5000 
    109 N         -3.8368  -16.2174  -52.2428 N.am      20 UNK        -0.5000 
    110 CA        -4.2737  -15.2803  -53.2768 C.3       20 UNK         0.1400 
    111 CB        -5.2446  -14.2674  -52.6510 C.3       20 UNK        -0.1800 
    112 C         -4.9109  -15.9555  -54.5091 C.2       20 UNK         0.5000 
    113 O         -4.9765  -15.3223  -55.5637 O.2       20 UNK        -0.5000 
    114 N         -5.3751  -17.2052  -54.3660 N.am      21 UNK        -0.5000 
    115 CA        -5.9531  -17.9954  -55.4495 C.3       21 UNK         0.1400 
    116 CB        -7.0499  -18.9219  -54.8977 C.3       21 UNK        -0.1800 
    117 C         -4.8694  -18.7951  -56.1898 C.2       21 UNK         0.5000 
    118 O         -4.8372  -18.7581  -57.4210 O.2       21 UNK        -0.5000 
    119 N         -4.0087  -19.5024  -55.4430 N.am      22 UNK        -0.5000 
    120 CA        -2.9153  -20.3104  -56.0116 C.3       22 UNK         0.1400 
    121 C         -1.6594  -19.5011  -56.4466 C.2       22 UNK         0.5000 
    122 N         -1.4138  -18.3064  -55.9245 N.am      22 UNK        -0.7600 
    123 O         -0.9003  -19.9623  -57.2948 O.2       22 UNK        -0.5000 
    124 C124       -2.5552  -21.5377  -55.1345 C.3       23 UNK        -0.0398 
    125 S125       -2.0193  -21.1244  -53.4409 S.3       23 UNK        -0.2404 
    126 C126       -0.2098  -21.2496  -53.5765 C.3       23 UNK        -0.0205 
    127 H127       -3.0188  -12.4202  -54.2917 H         1 UNK         0.0600 
    128 H128       -1.6452  -11.4344  -54.7978 H         1 UNK         0.0600 
    129 H129       -2.7050  -10.8724  -53.5023 H         1 UNK         0.0600 
    130 H130        0.2871  -12.1979  -54.0281 H         1 UNK         0.3000 
    131 H131        1.8953  -13.0719  -52.8297 H         1 UNK         0.0600 
    132 H132       -0.2475  -14.9431  -51.7026 H         1 UNK         0.0800 
    133 H133        1.4581  -15.1086  -51.3584 H         1 UNK         0.0800 
    134 H134        2.7540  -17.1667  -54.1362 H         1 UNK         0.0800 
    135 H135        3.0145  -16.3966  -52.5957 H         1 UNK         0.0800 
    136 H136        0.9847  -18.9445  -54.3956 H         1 UNK         0.1150 
    137 H137        0.0710  -21.1944  -50.8642 H         1 UNK         0.1150 
    138 H138        2.1498  -17.4557  -50.5493 H         1 UNK         0.1150 
    139 H139        1.2050  -18.5007  -48.5634 H         1 UNK         0.0800 
    140 H140        0.1536  -19.8872  -48.7145 H         1 UNK         0.0800 
    141 H141        1.3106  -19.9023  -46.4398 H         1 UNK         0.0800 
    142 H142        2.9001  -20.5162  -46.1141 H         1 UNK         0.0800 
    143 H143        2.1742  -22.8303  -46.4504 H         1 UNK         0.0600 
    144 H144        1.1855  -21.2041  -44.3680 H         1 UNK         0.3000 
    145 H145       -0.3120  -23.7677  -42.3663 H         1 UNK         0.0600 
    146 H146        1.2056  -22.6755  -40.7366 H         1 UNK         0.0600 
    147 H147        2.1300  -23.6797  -41.8444 H         1 UNK         0.0600 
    148 H148        2.1229  -21.9310  -42.0430 H         1 UNK         0.0600 
    149 H149       -0.1761  -20.9545  -41.9977 H         1 UNK         0.3000 
    150 H150       -3.1929  -20.0950  -43.7477 H         1 UNK         0.0600 
    151 H151       -3.8438  -20.7692  -41.4519 H         1 UNK         0.0600 
    152 H152       -3.5833  -19.0338  -41.5332 H         1 UNK         0.0600 
    153 H153       -2.3694  -20.0762  -40.7941 H         1 UNK         0.0600 
    154 H154       -1.1517  -18.5798  -42.3931 H         1 UNK         0.3000 
    155 H155        0.8331  -17.8935  -45.2653 H         1 UNK         0.0600 
    156 H156        0.2856  -15.5599  -44.6989 H         1 UNK         0.0600 
    157 H157       -1.0710  -16.3146  -45.5177 H         1 UNK         0.0600 
    158 H158       -1.1284  -16.0816  -43.7735 H         1 UNK         0.0600 
    159 H159        0.8481  -16.9518  -42.5459 H         1 UNK         0.3000 
    160 H160        3.0091  -19.4925  -41.2822 H         1 UNK         0.0600 
    161 H161        3.4762  -16.5230  -41.8836 H         1 UNK         0.0600 
    162 H162        4.4785  -17.8478  -42.4607 H         1 UNK         0.0600 
    163 H163        4.3826  -17.5128  -40.7402 H         1 UNK         0.0600 
    164 H164        2.0576  -17.2854  -39.9101 H         1 UNK         0.3000 
    165 H165       -1.0699  -18.6884  -38.8220 H         1 UNK         0.0600 
    166 H166        0.0267  -18.4201  -36.6175 H         1 UNK         0.0600 
    167 H167        0.7449  -19.7734  -37.4752 H         1 UNK         0.0600 
    168 H168        1.6031  -18.2389  -37.3846 H         1 UNK         0.0600 
    169 H169        0.4864  -16.2528  -39.3142 H         1 UNK         0.3000 
    170 H170       -2.2544  -14.2600  -38.4968 H         1 UNK         0.0600 
    171 H171       -1.3082  -14.3148  -36.1854 H         1 UNK         0.0600 
    172 H172        0.3230  -14.2239  -36.8379 H         1 UNK         0.0600 
    173 H173       -0.7952  -12.8753  -37.0489 H         1 UNK         0.0600 
    174 H174        0.3784  -13.4792  -39.1927 H         1 UNK         0.3000 
    175 H175        0.3275  -12.3888  -41.3576 H         1 UNK         0.0600 
    176 H176        2.0403  -14.2099  -40.9291 H         1 UNK         0.0600 
    177 H177        1.4143  -15.1121  -42.3037 H         1 UNK         0.0600 
    178 H178        2.1986  -13.5576  -42.5476 H         1 UNK         0.0600 
    179 H179       -1.3119  -13.9435  -43.0862 H         1 UNK         0.3000 
    180 H180       -1.3675  -13.6837  -45.4088 H         1 UNK         0.0600 
    181 H181       -2.0700  -10.7109  -45.0590 H         1 UNK         0.0600 
    182 H182       -2.9417  -12.0645  -44.3474 H         1 UNK         0.0600 
    183 H183       -2.9352  -11.8486  -46.0910 H         1 UNK         0.0600 
    184 H184        0.2460  -11.3531  -46.2912 H         1 UNK         0.3000 
    185 H185        0.7216  -11.2426  -48.6238 H         1 UNK         0.0600 
    186 H186        2.6875  -13.5106  -47.9302 H         1 UNK         0.0600 
    187 H187        2.5408  -11.9934  -47.0513 H         1 UNK         0.0600 
    188 H188        3.1195  -11.9888  -48.7078 H         1 UNK         0.0600 
    189 H189        0.3928  -13.8609  -49.8017 H         1 UNK         0.3000 
    190 H190       -1.0215  -21.1503  -46.1693 H         1 UNK         0.3000 
    191 H191       -2.0954  -22.1056  -48.5938 H         1 UNK         0.0600 
    192 H192       -3.5014  -21.2394  -46.0137 H         1 UNK         0.0600 
    193 H193       -4.2882  -21.4373  -47.5749 H         1 UNK         0.0600 
    194 H194       -3.0590  -20.1992  -47.3675 H         1 UNK         0.0600 
    195 H195       -2.1984  -23.5488  -45.3058 H         1 UNK         0.3000 
    196 H196       -3.8345  -25.7789  -45.9487 H         1 UNK         0.0600 
    197 H197       -2.9134  -26.7322  -43.8322 H         1 UNK         0.0600 
    198 H198       -3.4018  -25.0574  -43.6233 H         1 UNK         0.0600 
    199 H199       -1.6947  -25.4649  -43.7784 H         1 UNK         0.0600 
    200 H200       -0.2713  -25.3605  -46.0815 H         1 UNK         0.3000 
    201 H201        0.3383  -28.0270  -46.9114 H         1 UNK         0.0600 
    202 H202        2.0203  -26.5251  -45.8902 H         1 UNK         0.0600 
    203 H203        1.9169  -25.4237  -47.2610 H         1 UNK         0.0600 
    204 H204        2.5603  -27.0464  -47.4794 H         1 UNK         0.0600 
    205 H205       -0.2775  -25.0107  -48.7545 H         1 UNK         0.3000 
    206 H206        0.0892  -26.1423  -51.3632 H         1 UNK         0.0600 
    207 H207        0.2359  -23.7074  -50.9184 H         1 UNK         0.0600 
    208 H208       -1.0306  -24.0238  -52.0976 H         1 UNK         0.0600 
    209 H209       -1.4586  -23.6622  -50.4330 H         1 UNK         0.0600 
    210 H210       -2.6078  -26.0912  -49.1571 H         1 UNK         0.3000 
    211 H211       -4.6326  -26.9228  -49.0651 H         1 UNK         0.0600 
    212 H212       -4.0745  -28.5480  -51.6022 H         1 UNK         0.0600 
    213 H213       -5.3611  -28.8240  -50.4378 H         1 UNK         0.0600 
    214 H214       -3.6884  -29.0664  -49.9611 H         1 UNK         0.0600 
    215 H215       -4.1590  -24.4002  -50.1916 H         1 UNK         0.3000 
    216 H216       -6.6628  -23.7662  -51.4163 H         1 UNK         0.0600 
    217 H217       -4.1067  -23.5645  -53.1218 H         1 UNK         0.0600 
    218 H218       -5.6230  -22.7658  -53.5228 H         1 UNK         0.0600 
    219 H219       -5.5347  -24.5200  -53.5122 H         1 UNK         0.0600 
    220 H220       -6.9201  -21.4341  -51.4883 H         1 UNK         0.3000 
    221 H221       -5.5150  -19.9795  -49.4450 H         1 UNK         0.0600 
    222 H222       -7.9023  -19.5407  -50.0085 H         1 UNK         0.0600 
    223 H223       -7.4499  -19.0371  -51.6373 H         1 UNK         0.0600 
    224 H224       -6.9452  -18.0870  -50.2455 H         1 UNK         0.0600 
    225 H225       -3.8386  -18.5521  -49.6179 H         1 UNK         0.3000 
    226 H226       -1.9249  -18.8262  -51.5633 H         1 UNK         0.0600 
    227 H227       -1.5232  -17.9708  -49.2608 H         1 UNK         0.0600 
    228 H228       -0.8172  -16.8978  -50.4551 H         1 UNK         0.0600 
    229 H229       -2.3226  -16.4516  -49.6634 H         1 UNK         0.0600 
    230 H230       -4.3662  -16.2318  -51.3839 H         1 UNK         0.3000 
    231 H231       -3.3938  -14.7381  -53.6277 H         1 UNK         0.0600 
    232 H232       -6.1379  -14.7553  -52.2591 H         1 UNK         0.0600 
    233 H233       -5.5679  -13.5296  -53.3864 H         1 UNK         0.0600 
    234 H234       -4.7708  -13.7217  -51.8346 H         1 UNK         0.0600 
    235 H235       -5.2104  -17.6976  -53.4953 H         1 UNK         0.3000 
    236 H236       -6.4285  -17.3273  -56.1711 H         1 UNK         0.0600 
    237 H237       -7.8185  -18.3537  -54.3738 H         1 UNK         0.0600 
    238 H238       -7.5409  -19.4627  -55.7075 H         1 UNK         0.0600 
    239 H239       -6.6542  -19.6656  -54.2065 H         1 UNK         0.0600 
    240 H240       -4.0889  -19.4894  -54.4301 H         1 UNK         0.3000 
    241 H241       -3.2972  -20.7369  -56.9416 H         1 UNK         0.0600 
    242 H242       -0.6044  -17.7945  -56.2330 H         1 UNK         0.3800 
    243 H243       -1.9418  -17.9555  -55.1304 H         1 UNK         0.3800 
    244 H244       -1.7997  -22.1554  -55.6228 H         1 UNK         0.0800 
    245 H245       -3.4339  -22.1770  -55.0487 H         1 UNK         0.0800 
    246 H246        0.1131  -22.2426  -53.2637 H         1 UNK         0.0800 
    247 H247        0.1004  -21.1405  -54.6164 H         1 UNK         0.0800 
@<TRIPOS>BOND
     1    1    2 1    
     2    1  127 1    
     3    1  128 1    
     4    1  129 1    
     5    2    3 2    
     6    2    4 am   BACKBONE|DICT|INTERRES
     7    4    5 1    
     8    4  130 1    
     9    5    6 1    
    10    5   65 1    
    11    5  131 1    
    12    6    7 1    
    13    6  132 1    
    14    6  133 1    
    15    7    8 1    
    16    8    9 1    
    17    8  134 1    
    18    8  135 1    
    19    9   10 ar   
    20    9   14 ar   
    21   10   11 ar   
    22   10  136 1    
    23   11   12 ar   
    24   11  126 1    
    25   12   13 ar   
    26   12  137 1    
    27   13   14 ar   
    28   13   15 1    
    29   14  138 1    
    30   15   16 1    
    31   15  139 1    
    32   15  140 1    
    33   16   17 1    
    34   17   18 1    
    35   17  141 1    
    36   17  142 1    
    37   18   19 1    
    38   18   67 1    
    39   18  143 1    
    40   19   20 am   BACKBONE|DICT|INTERRES
    41   19  144 1    
    42   20   21 2    
    43   20   22 1    
    44   22   23 1    
    45   22   24 1    
    46   22  145 1    
    47   23  146 1    
    48   23  147 1    
    49   23  148 1    
    50   24   25 am   BACKBONE|DICT|INTERRES
    51   24  149 1    
    52   25   26 2    
    53   25   27 1    
    54   27   28 1    
    55   27   29 1    
    56   27  150 1    
    57   28  151 1    
    58   28  152 1    
    59   28  153 1    
    60   29   30 am   BACKBONE|DICT|INTERRES
    61   29  154 1    
    62   30   31 2    
    63   30   32 1    
    64   32   33 1    
    65   32   34 1    
    66   32  155 1    
    67   33  156 1    
    68   33  157 1    
    69   33  158 1    
    70   34   35 am   BACKBONE|DICT|INTERRES
    71   34  159 1    
    72   35   36 2    
    73   35   37 1    
    74   37   38 1    
    75   37   39 1    
    76   37  160 1    
    77   38  161 1    
    78   38  162 1    
    79   38  163 1    
    80   39   40 am   BACKBONE|DICT|INTERRES
    81   39  164 1    
    82   40   41 2    
    83   40   42 1    
    84   42   43 1    
    85   42   44 1    
    86   42  165 1    
    87   43  166 1    
    88   43  167 1    
    89   43  168 1    
    90   44   45 am   BACKBONE|DICT|INTERRES
    91   44  169 1    
    92   45   46 2    
    93   45   47 1    
    94   47   48 1    
    95   47   49 1    
    96   47  170 1    
    97   48  171 1    
    98   48  172 1    
    99   48  173 1    
   100   49   50 am   BACKBONE|DICT|INTERRES
   101   49  174 1    
   102   50   51 2    
   103   50   52 1    
   104   52   53 1    
   105   52   54 1    
   106   52  175 1    
   107   53  176 1    
   108   53  177 1    
   109   53  178 1    
   110   54   55 am   BACKBONE|DICT|INTERRES
   111   54  179 1    
   112   55   56 2    
   113   55   57 1    
   114   57   58 1    
   115   57   59 1    
   116   57  180 1    
   117   58  181 1    
   118   58  182 1    
   119   58  183 1    
   120   59   60 am   BACKBONE|DICT|INTERRES
   121   59  184 1    
   122   60   61 2    
   123   60   62 1    
   124   62   63 1    
   125   62   64 1    
   126   62  185 1    
   127   63  186 1    
   128   63  187 1    
   129   63  188 1    
   130   64   65 am   BACKBONE|DICT|INTERRES
   131   64  189 1    
   132   65   66 2    
   133   67   68 2    
   134   67   69 am   BACKBONE|DICT|INTERRES
   135   69   70 1    
   136   69  190 1    
   137   70   71 1    
   138   70   72 1    
   139   70  191 1    
   140   71  192 1    
   141   71  193 1    
   142   71  194 1    
   143   72   73 2    
   144   72   74 am   BACKBONE|DICT|INTERRES
   145   74   75 1    
   146   74  195 1    
   147   75   76 1    
   148   75   77 1    
   149   75  196 1    
   150   76  197 1    
   151   76  198 1    
   152   76  199 1    
   153   77   78 2    
   154   77   79 am   BACKBONE|DICT|INTERRES
   155   79   80 1    
   156   79  200 1    
   157   80   81 1    
   158   80   82 1    
   159   80  201 1    
   160   81  202 1    
   161   81  203 1    
   162   81  204 1    
   163   82   83 2    
   164   82   84 am   BACKBONE|DICT|INTERRES
   165   84   85 1    
   166   84  205 1    
   167   85   86 1    
   168   85   87 1    
   169   85  206 1    
   170   86  207 1    
   171   86  208 1    
   172   86  209 1    
   173   87   88 2    
   174   87   89 am   BACKBONE|DICT|INTERRES
   175   89   90 1    
   176   89  210 1    
   177   90   91 1    
   178   90   92 1    
   179   90  211 1    
   180   91  212 1    
   181   91  213 1    
   182   91  214 1    
   183   92   93 2    
   184   92   94 am   BACKBONE|DICT|INTERRES
   185   94   95 1    
   186   94  215 1    
   187   95   96 1    
   188   95   97 1    
   189   95  216 1    
   190   96  217 1    
   191   96  218 1    
   192   96  219 1    
   193   97   98 2    
   194   97   99 am   BACKBONE|DICT|INTERRES
   195   99  100 1    
   196   99  220 1    
   197  100  101 1    
   198  100  102 1    
   199  100  221 1    
   200  101  222 1    
   201  101  223 1    
   202  101  224 1    
   203  102  103 2    
   204  102  104 am   BACKBONE|DICT|INTERRES
   205  104  105 1    
   206  104  225 1    
   207  105  106 1    
   208  105  107 1    
   209  105  226 1    
   210  106  227 1    
   211  106  228 1    
   212  106  229 1    
   213  107  108 2    
   214  107  109 am   BACKBONE|DICT|INTERRES
   215  109  110 1    
   216  109  230 1    
   217  110  111 1    
   218  110  112 1    
   219  110  231 1    
   220  111  232 1    
   221  111  233 1    
   222  111  234 1    
   223  112  113 2    
   224  112  114 am   BACKBONE|DICT|INTERRES
   225  114  115 1    
   226  114  235 1    
   227  115  116 1    
   228  115  117 1    
   229  115  236 1    
   230  116  237 1    
   231  116  238 1    
   232  116  239 1    
   233  117  118 2    
   234  117  119 am   BACKBONE|DICT|INTERRES
   235  119  120 1    
   236  119  240 1    
   237  120  121 1    
   238  120  124 1    
   239  120  241 1    
   240  121  122 am   BACKBONE|DICT|INTERRES
   241  121  123 2    
   242  122  242 1    
   243  122  243 1    
   244  124  125 1    
   245  124  244 1    
   246  124  245 1    
   247  125  126 1    
   248  126  246 1    
   249  126  247 1    
@<TRIPOS>SUBSTRUCTURE
     1 UNK         1 GROUP             0       ****    0 ROOT    
