@<TRIPOS>MOLECULE
3R540
247   249    1
SMALL
USER_CHARGES


@<TRIPOS>ATOM
      1 CA         -4.5112  -14.4807  -49.6987 C.3       0 UNK        -0.1800 
      2 C          -3.6393  -14.3324  -48.4607 C.2       0 UNK         0.5000 
      3 O          -4.0386  -13.6740  -47.4993 O.2       0 UNK        -0.5000 
      4 N          -2.4549  -14.9613  -48.4658 N.am      1 UNK        -0.5000 
      5 CA         -1.4654  -14.8991  -47.3806 C.3       1 UNK         0.1400 
      6 C6         -0.0495  -15.3114  -47.8514 C.3       23 UNK        -0.0398 
      7 S7          0.1396  -17.0976  -48.1585 S.3       23 UNK        -0.2404 
      8 C8          0.4262  -17.1808  -49.9466 C.3       23 UNK        -0.0205 
      9 C9          0.5613  -18.6313  -50.3783 C.ar      23 UNK        -0.0193 
     10 C10        -0.5274  -19.3086  -50.9312 C.ar      23 UNK        -0.1150 
     11 C11        -0.4150  -20.6475  -51.3162 C.ar      23 UNK        -0.0193 
     12 C12         0.8033  -21.3124  -51.1282 C.ar      23 UNK        -0.1150 
     13 C13         1.9009  -20.6459  -50.5734 C.ar      23 UNK        -0.0193 
     14 C14         1.7726  -19.3042  -50.2040 C.ar      23 UNK        -0.1150 
     15 C15         3.2381  -21.3556  -50.4004 C.3       23 UNK        -0.0205 
     16 S16         3.1920  -22.7165  -49.1882 S.3       23 UNK        -0.2404 
     17 C17         2.7220  -21.8692  -47.6382 C.3       23 UNK        -0.0398 
     18 CA          1.6190  -22.6406  -46.8740 C.3       11 UNK         0.1400 
     19 N           1.5129  -22.2365  -45.4706 N.am      11 UNK        -0.5000 
     20 C           0.8825  -22.9528  -44.5273 C.2       10 UNK         0.5000 
     21 O           0.3776  -24.0558  -44.7343 O.2       10 UNK        -0.5000 
     22 CA          0.7586  -22.3227  -43.1267 C.3       10 UNK         0.1400 
     23 CB          1.9986  -22.6487  -42.2813 C.3       10 UNK        -0.1800 
     24 N           0.5613  -20.8739  -43.1610 N.am      10 UNK        -0.5000 
     25 C          -0.4866  -20.2593  -43.7270 C.2       9 UNK         0.5000 
     26 O          -1.4479  -20.8560  -44.2097 O.2       9 UNK        -0.5000 
     27 CA         -0.4291  -18.7252  -43.8264 C.3       9 UNK         0.1400 
     28 CB         -1.0396  -18.0793  -42.5750 C.3       9 UNK        -0.1800 
     29 N           0.9170  -18.1970  -44.0419 N.am      9 UNK        -0.5000 
     30 C           1.7088  -18.5006  -45.0802 C.2       8 UNK         0.5000 
     31 O           1.4128  -19.3177  -45.9522 O.2       8 UNK        -0.5000 
     32 CA          3.0863  -17.8220  -45.1092 C.3       8 UNK         0.1400 
     33 CB          2.9784  -16.3532  -45.5465 C.3       8 UNK        -0.1800 
     34 N           3.7183  -17.8964  -43.7944 N.am      8 UNK        -0.5000 
     35 C           4.3700  -18.9734  -43.3357 C.2       7 UNK         0.5000 
     36 O           4.5715  -19.9881  -44.0038 O.2       7 UNK        -0.5000 
     37 CA          4.8642  -18.9163  -41.8774 C.3       7 UNK         0.1400 
     38 CB          6.2734  -18.3087  -41.8092 C.3       7 UNK        -0.1800 
     39 N           3.9732  -18.1624  -40.9930 N.am      7 UNK        -0.5000 
     40 C           2.7257  -18.5351  -40.6758 C.2       6 UNK         0.5000 
     41 O           2.1896  -19.5596  -41.0961 O.2       6 UNK        -0.5000 
     42 CA          1.9291  -17.5829  -39.7648 C.3       6 UNK         0.1400 
     43 CB          2.2304  -17.8797  -38.2881 C.3       6 UNK        -0.1800 
     44 N           2.1531  -16.1571  -40.0262 N.am      6 UNK        -0.5000 
     45 C           1.9838  -15.5409  -41.2042 C.2       5 UNK         0.5000 
     46 O           1.7357  -16.1262  -42.2606 O.2       5 UNK        -0.5000 
     47 CA          2.1775  -14.0142  -41.2048 C.3       5 UNK         0.1400 
     48 CB          3.6394  -13.6704  -41.5297 C.3       5 UNK        -0.1800 
     49 N           1.3096  -13.3356  -42.1686 N.am      5 UNK        -0.5000 
     50 C          -0.0306  -13.3170  -42.1375 C.2       4 UNK         0.5000 
     51 O          -0.6968  -13.8505  -41.2467 O.2       4 UNK        -0.5000 
     52 CA         -0.7359  -12.5309  -43.2641 C.3       4 UNK         0.1400 
     53 CB          0.0806  -12.4732  -44.5726 C.3       4 UNK        -0.1800 
     54 N          -2.0543  -13.0974  -43.5517 N.am      4 UNK        -0.5000 
     55 C          -3.2161  -12.6463  -43.0566 C.2       3 UNK         0.5000 
     56 O          -3.2950  -11.6847  -42.2898 O.2       3 UNK        -0.5000 
     57 CA         -4.5197  -13.3465  -43.5024 C.3       3 UNK         0.1400 
     58 CB         -5.4153  -12.3707  -44.2837 C.3       3 UNK        -0.1800 
     59 N          -4.2880  -14.5212  -44.3425 N.am      3 UNK        -0.5000 
     60 C          -4.1207  -15.7726  -43.8912 C.2       2 UNK         0.5000 
     61 O          -4.2183  -16.0917  -42.7066 O.2       2 UNK        -0.5000 
     62 CA         -3.7562  -16.8476  -44.9393 C.3       2 UNK         0.1400 
     63 CB         -5.0138  -17.5915  -45.4129 C.3       2 UNK        -0.1800 
     64 N          -3.0551  -16.3105  -46.1086 N.am      2 UNK        -0.5000 
     65 C          -1.9045  -15.6205  -46.0819 C.2       1 UNK         0.5000 
     66 O          -1.2300  -15.4857  -45.0630 O.2       1 UNK        -0.5000 
     67 C           0.2487  -22.5504  -47.5704 C.2       11 UNK         0.5000 
     68 O          -0.1458  -23.5062  -48.2385 O.2       11 UNK        -0.5000 
     69 N          -0.4813  -21.4462  -47.3449 N.am      12 UNK        -0.5000 
     70 CA         -1.8478  -21.2618  -47.8378 C.3       12 UNK         0.1400 
     71 CB         -2.3625  -19.8533  -47.5109 C.3       12 UNK        -0.1800 
     72 C          -2.8166  -22.3365  -47.3198 C.2       12 UNK         0.5000 
     73 O          -3.5480  -22.9192  -48.1173 O.2       12 UNK        -0.5000 
     74 N          -2.7671  -22.6184  -46.0117 N.am      13 UNK        -0.5000 
     75 CA         -3.5636  -23.6554  -45.3554 C.3       13 UNK         0.1400 
     76 CB         -3.3340  -23.5868  -43.8382 C.3       13 UNK        -0.1800 
     77 C          -3.2800  -25.0754  -45.8833 C.2       13 UNK         0.5000 
     78 O          -4.2135  -25.8688  -46.0095 O.2       13 UNK        -0.5000 
     79 N          -2.0080  -25.3678  -46.1852 N.am      14 UNK        -0.5000 
     80 CA         -1.5673  -26.6500  -46.7282 C.3       14 UNK         0.1400 
     81 CB         -0.0532  -26.8055  -46.5136 C.3       14 UNK        -0.1800 
     82 C          -1.9272  -26.8222  -48.2144 C.2       14 UNK         0.5000 
     83 O          -2.4879  -27.8544  -48.5854 O.2       14 UNK        -0.5000 
     84 N          -1.5701  -25.8311  -49.0414 N.am      15 UNK        -0.5000 
     85 CA         -1.6680  -25.9122  -50.4996 C.3       15 UNK         0.1400 
     86 CB         -0.6036  -24.9987  -51.1205 C.3       15 UNK        -0.1800 
     87 C          -3.0682  -25.5876  -51.0535 C.2       15 UNK         0.5000 
     88 O          -3.4072  -26.1035  -52.1186 O.2       15 UNK        -0.5000 
     89 N          -3.8454  -24.7768  -50.3179 N.am      16 UNK        -0.5000 
     90 CA         -5.1956  -24.2799  -50.6090 C.3       16 UNK         0.1400 
     91 CB         -6.1936  -25.4336  -50.8358 C.3       16 UNK        -0.1800 
     92 C          -5.2211  -23.2646  -51.7804 C.2       16 UNK         0.5000 
     93 O          -4.9925  -23.6582  -52.9227 O.2       16 UNK        -0.5000 
     94 N          -5.5316  -21.9771  -51.5673 N.am      17 UNK        -0.5000 
     95 CA         -5.8289  -21.2954  -50.3028 C.3       17 UNK         0.1400 
     96 CB         -7.3057  -21.5202  -49.9254 C.3       17 UNK        -0.1800 
     97 C          -5.4830  -19.7941  -50.3468 C.2       17 UNK         0.5000 
     98 O          -5.7287  -19.0946  -49.3638 O.2       17 UNK        -0.5000 
     99 N          -4.9222  -19.3127  -51.4628 N.am      18 UNK        -0.5000 
    100 CA        -4.5512  -17.9211  -51.6887 C.3       18 UNK         0.1400 
    101 CB        -5.7977  -17.0954  -52.0567 C.3       18 UNK        -0.1800 
    102 C         -3.5218  -17.8750  -52.8217 C.2       18 UNK         0.5000 
    103 O         -3.4431  -18.8169  -53.6161 O.2       18 UNK        -0.5000 
    104 N         -2.7727  -16.7690  -52.9065 N.am      19 UNK        -0.5000 
    105 CA        -1.7544  -16.5329  -53.9360 C.3       19 UNK         0.1400 
    106 CB        -1.0127  -15.2256  -53.6213 C.3       19 UNK        -0.1800 
    107 C         -2.3229  -16.5061  -55.3692 C.2       19 UNK         0.5000 
    108 O         -1.6184  -16.8735  -56.3075 O.2       19 UNK        -0.5000 
    109 N         -3.6010  -16.1270  -55.5076 N.am      20 UNK        -0.5000 
    110 CA        -4.3569  -16.1803  -56.7599 C.3       20 UNK         0.1400 
    111 CB        -5.6853  -15.4319  -56.5700 C.3       20 UNK        -0.1800 
    112 C         -4.6155  -17.6172  -57.2601 C.2       20 UNK         0.5000 
    113 O         -4.7648  -17.8130  -58.4669 O.2       20 UNK        -0.5000 
    114 N         -4.6625  -18.5887  -56.3372 N.am      21 UNK        -0.5000 
    115 CA        -4.8148  -20.0098  -56.6411 C.3       21 UNK         0.1400 
    116 CB        -5.6048  -20.6974  -55.5145 C.3       21 UNK        -0.1800 
    117 C         -3.4449  -20.6788  -56.8379 C.2       21 UNK         0.5000 
    118 O         -3.2655  -21.4130  -57.8107 O.2       21 UNK        -0.5000 
    119 N         -2.5092  -20.4160  -55.9155 N.am      22 UNK        -0.5000 
    120 CA        -1.1551  -20.9937  -55.9280 C.3       22 UNK         0.1400 
    121 C         -0.1870  -20.3807  -56.9803 C.2       22 UNK         0.5000 
    122 N         -0.3952  -19.1645  -57.4654 N.am      22 UNK        -0.7600 
    123 O          0.7731  -21.0344  -57.3791 O.2       22 UNK        -0.5000 
    124 C124       -0.5189  -20.9945  -54.5161 C.3       23 UNK        -0.0398 
    125 S125       -1.2625  -22.2723  -53.4457 S.3       23 UNK        -0.2404 
    126 C126       -1.6256  -21.3603  -51.9121 C.3       23 UNK        -0.0205 
    127 H127       -3.9453  -14.8696  -50.5443 H         1 UNK         0.0600 
    128 H128       -4.9229  -13.5133  -49.9864 H         1 UNK         0.0600 
    129 H129       -5.3402  -15.1587  -49.4954 H         1 UNK         0.0600 
    130 H130       -2.1833  -15.5118  -49.2659 H         1 UNK         0.3000 
    131 H131       -1.3916  -13.8454  -47.1024 H         1 UNK         0.0600 
    132 H132        0.6817  -15.0245  -47.0948 H         1 UNK         0.0800 
    133 H133        0.2260  -14.7516  -48.7461 H         1 UNK         0.0800 
    134 H134       -0.3954  -16.6979  -50.4768 H         1 UNK         0.0800 
    135 H135        1.3333  -16.6300  -50.2000 H         1 UNK         0.0800 
    136 H136       -1.4668  -18.7916  -51.0504 H         1 UNK         0.1150 
    137 H137        0.9021  -22.3490  -51.4164 H         1 UNK         0.1150 
    138 H138        2.6129  -18.7804  -49.7704 H         1 UNK         0.1150 
    139 H139        3.5471  -21.7594  -51.3654 H         1 UNK         0.0800 
    140 H140        4.0160  -20.6499  -50.1048 H         1 UNK         0.0800 
    141 H141        2.4173  -20.8417  -47.8384 H         1 UNK         0.0800 
    142 H142        3.6196  -21.7996  -47.0223 H         1 UNK         0.0800 
    143 H143        1.9060  -23.6949  -46.8702 H         1 UNK         0.0600 
    144 H144        1.8223  -21.2982  -45.2495 H         1 UNK         0.3000 
    145 H145       -0.1129  -22.7661  -42.6409 H         1 UNK         0.0600 
    146 H146        1.8724  -22.3123  -41.2522 H         1 UNK         0.0600 
    147 H147        2.1813  -23.7236  -42.2504 H         1 UNK         0.0600 
    148 H148        2.8944  -22.1721  -42.6818 H         1 UNK         0.0600 
    149 H149        1.2755  -20.3072  -42.7141 H         1 UNK         0.3000 
    150 H150       -1.0193  -18.4332  -44.6955 H         1 UNK         0.0600 
    151 H151       -0.4765  -18.3394  -41.6805 H         1 UNK         0.0600 
    152 H152       -1.0577  -16.9919  -42.6581 H         1 UNK         0.0600 
    153 H153       -2.0664  -18.4127  -42.4211 H         1 UNK         0.0600 
    154 H154        1.2348  -17.4932  -43.3788 H         1 UNK         0.3000 
    155 H155        3.7100  -18.3443  -45.8381 H         1 UNK         0.0600 
    156 H156        2.2791  -15.7897  -44.9272 H         1 UNK         0.0600 
    157 H157        3.9463  -15.8542  -45.4983 H         1 UNK         0.0600 
    158 H158        2.6343  -16.2877  -46.5781 H         1 UNK         0.0600 
    159 H159        3.5245  -17.1356  -43.1570 H         1 UNK         0.3000 
    160 H160        4.9159  -19.9425  -41.5072 H         1 UNK         0.0600 
    161 H161        6.2811  -17.2702  -42.1426 H         1 UNK         0.0600 
    162 H162        6.9681  -18.8622  -42.4424 H         1 UNK         0.0600 
    163 H163        6.6675  -18.3389  -40.7932 H         1 UNK         0.0600 
    164 H164        4.3303  -17.3003  -40.6086 H         1 UNK         0.3000 
    165 H165        0.8696  -17.7781  -39.9327 H         1 UNK         0.0600 
    166 H166        1.5913  -17.2924  -37.6285 H         1 UNK         0.0600 
    167 H167        2.0533  -18.9311  -38.0567 H         1 UNK         0.0600 
    168 H168        3.2682  -17.6584  -38.0359 H         1 UNK         0.0600 
    169 H169        2.3842  -15.5949  -39.2198 H         1 UNK         0.3000 
    170 H170        1.9375  -13.6296  -40.2115 H         1 UNK         0.0600 
    171 H171        3.9229  -14.0193  -42.5238 H         1 UNK         0.0600 
    172 H172        3.8108  -12.5945  -41.4897 H         1 UNK         0.0600 
    173 H173        4.3203  -14.1324  -40.8137 H         1 UNK         0.0600 
    174 H174        1.7740  -12.8940  -42.9476 H         1 UNK         0.3000 
    175 H175       -0.8491  -11.5053  -42.9077 H         1 UNK         0.0600 
    176 H176       -0.5017  -12.0294  -45.3804 H         1 UNK         0.0600 
    177 H177        0.4023  -13.4627  -44.8982 H         1 UNK         0.0600 
    178 H178        0.9736  -11.8587  -44.4549 H         1 UNK         0.0600 
    179 H179       -2.0477  -13.9547  -44.0929 H         1 UNK         0.3000 
    180 H180       -5.0537  -13.6443  -42.5977 H         1 UNK         0.0600 
    181 H181       -6.3585  -12.8399  -44.5642 H         1 UNK         0.0600 
    182 H182       -4.9294  -12.0237  -45.1967 H         1 UNK         0.0600 
    183 H183       -5.6576  -11.4916  -43.6851 H         1 UNK         0.0600 
    184 H184       -4.1973  -14.3467  -45.3365 H         1 UNK         0.3000 
    185 H185       -3.1021  -17.5700  -44.4549 H         1 UNK         0.0600 
    186 H186       -5.5502  -18.0280  -44.5694 H         1 UNK         0.0600 
    187 H187       -5.7038  -16.9250  -45.9320 H         1 UNK         0.0600 
    188 H188       -4.7607  -18.4065  -46.0911 H         1 UNK         0.0600 
    189 H189       -3.5443  -16.3672  -46.9892 H         1 UNK         0.3000 
    190 H190       -0.0794  -20.6990  -46.7907 H         1 UNK         0.3000 
    191 H191       -1.8168  -21.3576  -48.9229 H         1 UNK         0.0600 
    192 H192       -2.2866  -19.6234  -46.4489 H         1 UNK         0.0600 
    193 H193       -1.8038  -19.1016  -48.0622 H         1 UNK         0.0600 
    194 H194       -3.4088  -19.7420  -47.7973 H         1 UNK         0.0600 
    195 H195       -2.1625  -22.0600  -45.4124 H         1 UNK         0.3000 
    196 H196       -4.6150  -23.4353  -45.5510 H         1 UNK         0.0600 
    197 H197       -3.9341  -24.3336  -43.3168 H         1 UNK         0.0600 
    198 H198       -3.6119  -22.6104  -43.4410 H         1 UNK         0.0600 
    199 H199       -2.2892  -23.7665  -43.5828 H         1 UNK         0.0600 
    200 H200       -1.2904  -24.6725  -46.0184 H         1 UNK         0.3000 
    201 H201       -2.0634  -27.4481  -46.1715 H         1 UNK         0.0600 
    202 H202        0.1962  -26.7904  -45.4525 H         1 UNK         0.0600 
    203 H203        0.5089  -26.0067  -46.9989 H         1 UNK         0.0600 
    204 H204        0.3047  -27.7531  -46.9180 H         1 UNK         0.0600 
    205 H205       -1.1061  -25.0062  -48.6638 H         1 UNK         0.3000 
    206 H206       -1.4325  -26.9341  -50.8052 H         1 UNK         0.0600 
    207 H207       -0.6337  -25.0422  -52.2098 H         1 UNK         0.0600 
    208 H208       -0.7526  -23.9621  -50.8247 H         1 UNK         0.0600 
    209 H209        0.3994  -25.2908  -50.8092 H         1 UNK         0.0600 
    210 H210       -3.4476  -24.3930  -49.4662 H         1 UNK         0.3000 
    211 H211       -5.5193  -23.8033  -49.6881 H         1 UNK         0.0600 
    212 H212       -5.9942  -25.9786  -51.7586 H         1 UNK         0.0600 
    213 H213       -7.2130  -25.0520  -50.9023 H         1 UNK         0.0600 
    214 H214       -6.1660  -26.1468  -50.0119 H         1 UNK         0.0600 
    215 H215       -5.6176  -21.3934  -52.3841 H         1 UNK         0.3000 
    216 H216       -5.1949  -21.6912  -49.5141 H         1 UNK         0.0600 
    217 H217       -7.5445  -21.0491  -48.9710 H         1 UNK         0.0600 
    218 H218       -7.5452  -22.5783  -49.8266 H         1 UNK         0.0600 
    219 H219       -7.9751  -21.0979  -50.6757 H         1 UNK         0.0600 
    220 H220       -4.6553  -19.9273  -52.2189 H         1 UNK         0.3000 
    221 H221       -4.0888  -17.5186  -50.7850 H         1 UNK         0.0600 
    222 H222       -6.2925  -17.4913  -52.9448 H         1 UNK         0.0600 
    223 H223       -6.5248  -17.0926  -51.2445 H         1 UNK         0.0600 
    224 H224       -5.5413  -16.0552  -52.2597 H         1 UNK         0.0600 
    225 H225       -2.9115  -16.0234  -52.2420 H         1 UNK         0.3000 
    226 H226       -1.0354  -17.3537  -53.8869 H         1 UNK         0.0600 
    227 H227       -0.5282  -15.2706  -52.6459 H         1 UNK         0.0600 
    228 H228       -0.2335  -15.0319  -54.3597 H         1 UNK         0.0600 
    229 H229       -1.6875  -14.3687  -53.6237 H         1 UNK         0.0600 
    230 H230       -4.1049  -15.8288  -54.6863 H         1 UNK         0.3000 
    231 H231       -3.7781  -15.6629  -57.5279 H         1 UNK         0.0600 
    232 H232       -6.3004  -15.8934  -55.7964 H         1 UNK         0.0600 
    233 H233       -6.2668  -15.4279  -57.4929 H         1 UNK         0.0600 
    234 H234       -5.5162  -14.3919  -56.2900 H         1 UNK         0.0600 
    235 H235       -4.4703  -18.3569  -55.3713 H         1 UNK         0.3000 
    236 H236       -5.3860  -20.1284  -57.5644 H         1 UNK         0.0600 
    237 H237       -6.5811  -20.2326  -55.3770 H         1 UNK         0.0600 
    238 H238       -5.7746  -21.7495  -55.7471 H         1 UNK         0.0600 
    239 H239       -5.0774  -20.6589  -54.5620 H         1 UNK         0.0600 
    240 H240       -2.7462  -19.8239  -55.1264 H         1 UNK         0.3000 
    241 H241       -1.2584  -22.0385  -56.2294 H         1 UNK         0.0600 
    242 H242       -1.1092  -18.5509  -57.0861 H         1 UNK         0.3800 
    243 H243        0.2432  -18.8000  -58.1539 H         1 UNK         0.3800 
    244 H244        0.5501  -21.2110  -54.5618 H         1 UNK         0.0800 
    245 H245       -0.6096  -20.0084  -54.0580 H         1 UNK         0.0800 
    246 H246       -2.0283  -22.0575  -51.1777 H         1 UNK         0.0800 
    247 H247       -2.4251  -20.6530  -52.1204 H         1 UNK         0.0800 
@<TRIPOS>BOND
     1    1    2 1    
     2    1  127 1    
     3    1  128 1    
     4    1  129 1    
     5    2    3 2    
     6    2    4 am   BACKBONE|DICT|INTERRES
     7    4    5 1    
     8    4  130 1    
     9    5    6 1    
    10    5   65 1    
    11    5  131 1    
    12    6    7 1    
    13    6  132 1    
    14    6  133 1    
    15    7    8 1    
    16    8    9 1    
    17    8  134 1    
    18    8  135 1    
    19    9   10 ar   
    20    9   14 ar   
    21   10   11 ar   
    22   10  136 1    
    23   11   12 ar   
    24   11  126 1    
    25   12   13 ar   
    26   12  137 1    
    27   13   14 ar   
    28   13   15 1    
    29   14  138 1    
    30   15   16 1    
    31   15  139 1    
    32   15  140 1    
    33   16   17 1    
    34   17   18 1    
    35   17  141 1    
    36   17  142 1    
    37   18   19 1    
    38   18   67 1    
    39   18  143 1    
    40   19   20 am   BACKBONE|DICT|INTERRES
    41   19  144 1    
    42   20   21 2    
    43   20   22 1    
    44   22   23 1    
    45   22   24 1    
    46   22  145 1    
    47   23  146 1    
    48   23  147 1    
    49   23  148 1    
    50   24   25 am   BACKBONE|DICT|INTERRES
    51   24  149 1    
    52   25   26 2    
    53   25   27 1    
    54   27   28 1    
    55   27   29 1    
    56   27  150 1    
    57   28  151 1    
    58   28  152 1    
    59   28  153 1    
    60   29   30 am   BACKBONE|DICT|INTERRES
    61   29  154 1    
    62   30   31 2    
    63   30   32 1    
    64   32   33 1    
    65   32   34 1    
    66   32  155 1    
    67   33  156 1    
    68   33  157 1    
    69   33  158 1    
    70   34   35 am   BACKBONE|DICT|INTERRES
    71   34  159 1    
    72   35   36 2    
    73   35   37 1    
    74   37   38 1    
    75   37   39 1    
    76   37  160 1    
    77   38  161 1    
    78   38  162 1    
    79   38  163 1    
    80   39   40 am   BACKBONE|DICT|INTERRES
    81   39  164 1    
    82   40   41 2    
    83   40   42 1    
    84   42   43 1    
    85   42   44 1    
    86   42  165 1    
    87   43  166 1    
    88   43  167 1    
    89   43  168 1    
    90   44   45 am   BACKBONE|DICT|INTERRES
    91   44  169 1    
    92   45   46 2    
    93   45   47 1    
    94   47   48 1    
    95   47   49 1    
    96   47  170 1    
    97   48  171 1    
    98   48  172 1    
    99   48  173 1    
   100   49   50 am   BACKBONE|DICT|INTERRES
   101   49  174 1    
   102   50   51 2    
   103   50   52 1    
   104   52   53 1    
   105   52   54 1    
   106   52  175 1    
   107   53  176 1    
   108   53  177 1    
   109   53  178 1    
   110   54   55 am   BACKBONE|DICT|INTERRES
   111   54  179 1    
   112   55   56 2    
   113   55   57 1    
   114   57   58 1    
   115   57   59 1    
   116   57  180 1    
   117   58  181 1    
   118   58  182 1    
   119   58  183 1    
   120   59   60 am   BACKBONE|DICT|INTERRES
   121   59  184 1    
   122   60   61 2    
   123   60   62 1    
   124   62   63 1    
   125   62   64 1    
   126   62  185 1    
   127   63  186 1    
   128   63  187 1    
   129   63  188 1    
   130   64   65 am   BACKBONE|DICT|INTERRES
   131   64  189 1    
   132   65   66 2    
   133   67   68 2    
   134   67   69 am   BACKBONE|DICT|INTERRES
   135   69   70 1    
   136   69  190 1    
   137   70   71 1    
   138   70   72 1    
   139   70  191 1    
   140   71  192 1    
   141   71  193 1    
   142   71  194 1    
   143   72   73 2    
   144   72   74 am   BACKBONE|DICT|INTERRES
   145   74   75 1    
   146   74  195 1    
   147   75   76 1    
   148   75   77 1    
   149   75  196 1    
   150   76  197 1    
   151   76  198 1    
   152   76  199 1    
   153   77   78 2    
   154   77   79 am   BACKBONE|DICT|INTERRES
   155   79   80 1    
   156   79  200 1    
   157   80   81 1    
   158   80   82 1    
   159   80  201 1    
   160   81  202 1    
   161   81  203 1    
   162   81  204 1    
   163   82   83 2    
   164   82   84 am   BACKBONE|DICT|INTERRES
   165   84   85 1    
   166   84  205 1    
   167   85   86 1    
   168   85   87 1    
   169   85  206 1    
   170   86  207 1    
   171   86  208 1    
   172   86  209 1    
   173   87   88 2    
   174   87   89 am   BACKBONE|DICT|INTERRES
   175   89   90 1    
   176   89  210 1    
   177   90   91 1    
   178   90   92 1    
   179   90  211 1    
   180   91  212 1    
   181   91  213 1    
   182   91  214 1    
   183   92   93 2    
   184   92   94 am   BACKBONE|DICT|INTERRES
   185   94   95 1    
   186   94  215 1    
   187   95   96 1    
   188   95   97 1    
   189   95  216 1    
   190   96  217 1    
   191   96  218 1    
   192   96  219 1    
   193   97   98 2    
   194   97   99 am   BACKBONE|DICT|INTERRES
   195   99  100 1    
   196   99  220 1    
   197  100  101 1    
   198  100  102 1    
   199  100  221 1    
   200  101  222 1    
   201  101  223 1    
   202  101  224 1    
   203  102  103 2    
   204  102  104 am   BACKBONE|DICT|INTERRES
   205  104  105 1    
   206  104  225 1    
   207  105  106 1    
   208  105  107 1    
   209  105  226 1    
   210  106  227 1    
   211  106  228 1    
   212  106  229 1    
   213  107  108 2    
   214  107  109 am   BACKBONE|DICT|INTERRES
   215  109  110 1    
   216  109  230 1    
   217  110  111 1    
   218  110  112 1    
   219  110  231 1    
   220  111  232 1    
   221  111  233 1    
   222  111  234 1    
   223  112  113 2    
   224  112  114 am   BACKBONE|DICT|INTERRES
   225  114  115 1    
   226  114  235 1    
   227  115  116 1    
   228  115  117 1    
   229  115  236 1    
   230  116  237 1    
   231  116  238 1    
   232  116  239 1    
   233  117  118 2    
   234  117  119 am   BACKBONE|DICT|INTERRES
   235  119  120 1    
   236  119  240 1    
   237  120  121 1    
   238  120  124 1    
   239  120  241 1    
   240  121  122 am   BACKBONE|DICT|INTERRES
   241  121  123 2    
   242  122  242 1    
   243  122  243 1    
   244  124  125 1    
   245  124  244 1    
   246  124  245 1    
   247  125  126 1    
   248  126  246 1    
   249  126  247 1    
@<TRIPOS>SUBSTRUCTURE
     1 UNK         1 GROUP             0       ****    0 ROOT    
