@<TRIPOS>MOLECULE
3R540
247   249    1
SMALL
USER_CHARGES


@<TRIPOS>ATOM
      1 CA          2.8758  -14.0214  -53.4251 C.3       0 UNK        -0.1800 
      2 C           2.2785  -13.9463  -52.0266 C.2       0 UNK         0.5000 
      3 O           1.1521  -14.3979  -51.8284 O.2       0 UNK        -0.5000 
      4 N           3.0426  -13.3826  -51.0791 N.am      1 UNK        -0.5000 
      5 CA          2.7408  -13.1951  -49.6520 C.3       1 UNK         0.1400 
      6 C6          3.1780  -14.3973  -48.7584 C.3       23 UNK        -0.0398 
      7 S7          2.2759  -15.9707  -48.9986 S.3       23 UNK        -0.2404 
      8 C8          3.4885  -16.9145  -49.9692 C.3       23 UNK        -0.0205 
      9 C9          2.8511  -18.1231  -50.6349 C.ar      23 UNK        -0.0193 
     10 C10         2.1374  -17.9602  -51.8242 C.ar      23 UNK        -0.1150 
     11 C11         1.5774  -19.0614  -52.4725 C.ar      23 UNK        -0.0193 
     12 C12         1.7402  -20.3356  -51.9225 C.ar      23 UNK        -0.1150 
     13 C13         2.4402  -20.5204  -50.7249 C.ar      23 UNK        -0.0193 
     14 C14         2.9934  -19.4011  -50.0847 C.ar      23 UNK        -0.1150 
     15 C15         2.5809  -21.9510  -50.1987 C.3       23 UNK        -0.0205 
     16 S16         3.5006  -22.1674  -48.6343 S.3       23 UNK        -0.2404 
     17 C17         2.2639  -21.7217  -47.3680 C.3       23 UNK        -0.0398 
     18 CA          1.7050  -22.9765  -46.6409 C.3       11 UNK         0.1400 
     19 N           1.5570  -22.7459  -45.2052 N.am      11 UNK        -0.5000 
     20 C           1.5678  -23.6954  -44.2614 C.2       10 UNK         0.5000 
     21 O           1.7420  -24.8922  -44.4993 O.2       10 UNK        -0.5000 
     22 CA          1.3642  -23.2055  -42.8107 C.3       10 UNK         0.1400 
     23 CB          1.7034  -24.2709  -41.7483 C.3       10 UNK        -0.1800 
     24 N           2.0726  -21.9480  -42.5484 N.am      10 UNK        -0.5000 
     25 C           3.3928  -21.7181  -42.6055 C.2       9 UNK         0.5000 
     26 O           4.2399  -22.5976  -42.7639 O.2       9 UNK        -0.5000 
     27 CA          3.8505  -20.2480  -42.5046 C.3       9 UNK         0.1400 
     28 CB          4.2402  -19.7224  -43.8957 C.3       9 UNK        -0.1800 
     29 N           2.8388  -19.3546  -41.9357 N.am      9 UNK        -0.5000 
     30 C           2.5122  -19.2936  -40.6379 C.2       8 UNK         0.5000 
     31 O           3.0692  -19.9542  -39.7604 O.2       8 UNK        -0.5000 
     32 CA          1.3451  -18.3593  -40.2629 C.3       8 UNK         0.1400 
     33 CB          1.8309  -16.9103  -40.1059 C.3       8 UNK        -0.1800 
     34 N           0.2479  -18.4054  -41.2321 N.am      8 UNK        -0.5000 
     35 C          -0.5176  -19.4822  -41.4607 C.2       7 UNK         0.5000 
     36 O          -0.4078  -20.5434  -40.8468 O.2       7 UNK        -0.5000 
     37 CA         -1.5485  -19.3765  -42.5971 C.3       7 UNK         0.1400 
     38 CB         -2.8238  -18.6649  -42.1223 C.3       7 UNK        -0.1800 
     39 N          -1.0142  -18.7065  -43.7839 N.am      7 UNK        -0.5000 
     40 C          -0.0250  -19.1942  -44.5467 C.2       6 UNK         0.5000 
     41 O           0.5084  -20.2849  -44.3581 O.2       6 UNK        -0.5000 
     42 CA          0.4864  -18.3075  -45.6926 C.3       6 UNK         0.1400 
     43 CB         -0.4123  -18.4561  -46.9268 C.3       6 UNK        -0.1800 
     44 N           0.5888  -16.9019  -45.3095 N.am      6 UNK        -0.5000 
     45 C           1.3812  -16.4327  -44.3356 C.2       5 UNK         0.5000 
     46 O           2.1698  -17.1302  -43.6986 O.2       5 UNK        -0.5000 
     47 CA          1.2114  -14.9504  -43.9640 C.3       5 UNK         0.1400 
     48 CB          1.9687  -14.0390  -44.9395 C.3       5 UNK        -0.1800 
     49 N          -0.1985  -14.5629  -43.9193 N.am      5 UNK        -0.5000 
     50 C          -1.0671  -14.9845  -42.9899 C.2       4 UNK         0.5000 
     51 O          -0.7567  -15.7119  -42.0465 O.2       4 UNK        -0.5000 
     52 CA         -2.5326  -14.5453  -43.1639 C.3       4 UNK         0.1400 
     53 CB         -2.7559  -13.1549  -42.5511 C.3       4 UNK        -0.1800 
     54 N          -2.9539  -14.5299  -44.5662 N.am      4 UNK        -0.5000 
     55 C          -3.1225  -15.6281  -45.3169 C.2       3 UNK         0.5000 
     56 O          -2.9656  -16.7733  -44.8955 O.2       3 UNK        -0.5000 
     57 CA         -3.4729  -15.4017  -46.8016 C.3       3 UNK         0.1400 
     58 CB         -4.9835  -15.1869  -46.9767 C.3       3 UNK        -0.1800 
     59 N          -2.7490  -14.2758  -47.4027 N.am      3 UNK        -0.5000 
     60 C          -1.4155  -14.2089  -47.4977 C.2       2 UNK         0.5000 
     61 O          -0.6590  -15.0754  -47.0532 O.2       2 UNK        -0.5000 
     62 CA         -0.8192  -12.9515  -48.1417 C.3       2 UNK         0.1400 
     63 CB         -0.8409  -11.7702  -47.1543 C.3       2 UNK        -0.1800 
     64 N           0.5523  -13.2687  -48.5153 N.am      2 UNK        -0.5000 
     65 C           1.3273  -12.6168  -49.3831 C.2       1 UNK         0.5000 
     66 O           0.9835  -11.5792  -49.9525 O.2       1 UNK        -0.5000 
     67 C           0.3593  -23.4243  -47.2415 C.2       11 UNK         0.5000 
     68 O          -0.6966  -23.0158  -46.7484 O.2       11 UNK        -0.5000 
     69 N           0.4191  -24.2146  -48.3241 N.am      12 UNK        -0.5000 
     70 CA         -0.7198  -24.8068  -49.0420 C.3       12 UNK         0.1400 
     71 CB         -0.1961  -25.5821  -50.2590 C.3       12 UNK        -0.1800 
     72 C          -1.8105  -23.8116  -49.4829 C.2       12 UNK         0.5000 
     73 O          -2.9802  -24.1881  -49.5551 O.2       12 UNK        -0.5000 
     74 N          -1.4243  -22.5505  -49.7121 N.am      13 UNK        -0.5000 
     75 CA         -2.3168  -21.4259  -49.9923 C.3       13 UNK         0.1400 
     76 CB         -1.4658  -20.1692  -50.2020 C.3       13 UNK        -0.1800 
     77 C          -3.3922  -21.1992  -48.9135 C.2       13 UNK         0.5000 
     78 O          -4.5134  -20.8261  -49.2540 O.2       13 UNK        -0.5000 
     79 N          -3.0469  -21.4782  -47.6510 N.am      14 UNK        -0.5000 
     80 CA         -3.9669  -21.4505  -46.5191 C.3       14 UNK         0.1400 
     81 CB         -3.3279  -20.6500  -45.3784 C.3       14 UNK        -0.1800 
     82 C          -4.3045  -22.8743  -46.0502 C.2       14 UNK         0.5000 
     83 O          -5.4755  -23.1675  -45.8124 O.2       14 UNK        -0.5000 
     84 N          -3.2836  -23.7361  -45.9294 N.am      15 UNK        -0.5000 
     85 CA         -3.3849  -25.0727  -45.3364 C.3       15 UNK         0.1400 
     86 CB         -1.9733  -25.6167  -45.0678 C.3       15 UNK        -0.1800 
     87 C          -4.2063  -26.0750  -46.1683 C.2       15 UNK         0.5000 
     88 O          -4.8719  -26.9326  -45.5870 O.2       15 UNK        -0.5000 
     89 N          -4.1595  -25.9423  -47.4996 N.am      16 UNK        -0.5000 
     90 CA         -4.9493  -26.7288  -48.4517 C.3       16 UNK         0.1400 
     91 CB         -3.9925  -27.4303  -49.4322 C.3       16 UNK        -0.1800 
     92 C          -5.9685  -25.8466  -49.2007 C.2       16 UNK         0.5000 
     93 O          -6.6685  -26.3506  -50.0799 O.2       16 UNK        -0.5000 
     94 N          -6.0290  -24.5529  -48.8446 N.am      17 UNK        -0.5000 
     95 CA         -6.8583  -23.4949  -49.4275 C.3       17 UNK         0.1400 
     96 CB         -8.3452  -23.7259  -49.0876 C.3       17 UNK        -0.1800 
     97 C          -6.6084  -23.2863  -50.9371 C.2       17 UNK         0.5000 
     98 O          -7.5533  -23.0304  -51.6876 O.2       17 UNK        -0.5000 
     99 N          -5.3434  -23.4122  -51.3664 N.am      18 UNK        -0.5000 
    100 CA        -4.9088  -23.2534  -52.7554 C.3       18 UNK         0.1400 
    101 CB        -3.5279  -23.9095  -52.9343 C.3       18 UNK        -0.1800 
    102 C         -4.9311  -21.7747  -53.1987 C.2       18 UNK         0.5000 
    103 O         -3.8883  -21.1226  -53.2506 O.2       18 UNK        -0.5000 
    104 N         -6.1396  -21.2659  -53.4692 N.am      19 UNK        -0.5000 
    105 CA        -6.5109  -19.9292  -53.9562 C.3       19 UNK         0.1400 
    106 CB        -5.8311  -19.6122  -55.3018 C.3       19 UNK        -0.1800 
    107 C         -6.3137  -18.7734  -52.9546 C.2       19 UNK         0.5000 
    108 O         -7.0490  -17.7894  -53.0415 O.2       19 UNK        -0.5000 
    109 N         -5.3460  -18.8933  -52.0361 N.am      20 UNK        -0.5000 
    110 CA        -4.9709  -17.9750  -50.9492 C.3       20 UNK         0.1400 
    111 CB        -6.1412  -17.7452  -49.9754 C.3       20 UNK        -0.1800 
    112 C         -4.3515  -16.6418  -51.4133 C.2       20 UNK         0.5000 
    113 O         -3.3461  -16.2141  -50.8486 O.2       20 UNK        -0.5000 
    114 N         -4.9292  -16.0300  -52.4513 N.am      21 UNK        -0.5000 
    115 CA        -4.4581  -14.8173  -53.1205 C.3       21 UNK         0.1400 
    116 CB        -5.6780  -13.9409  -53.4574 C.3       21 UNK        -0.1800 
    117 C         -3.6163  -15.1609  -54.3691 C.2       21 UNK         0.5000 
    118 O         -3.6931  -14.4610  -55.3805 O.2       21 UNK        -0.5000 
    119 N         -2.8428  -16.2497  -54.2862 N.am      22 UNK        -0.5000 
    120 CA        -1.9611  -16.7680  -55.3445 C.3       22 UNK         0.1400 
    121 C         -0.6904  -15.9161  -55.6360 C.2       22 UNK         0.5000 
    122 N         -0.3051  -14.9757  -54.7838 N.am      22 UNK        -0.7600 
    123 O         -0.0488  -16.1055  -56.6658 O.2       22 UNK        -0.5000 
    124 C124       -1.6087  -18.2598  -55.1037 C.3       23 UNK        -0.0398 
    125 S125       -0.9635  -18.5968  -53.4285 S.3       23 UNK        -0.2404 
    126 C126        0.8010  -18.8702  -53.7657 C.3       23 UNK        -0.0205 
    127 H127        2.3527  -13.3381  -54.0934 H         1 UNK         0.0600 
    128 H128        2.7784  -15.0319  -53.8217 H         1 UNK         0.0600 
    129 H129        3.9335  -13.7587  -53.4293 H         1 UNK         0.0600 
    130 H130        3.9390  -13.0133  -51.3615 H         1 UNK         0.3000 
    131 H131        3.3996  -12.3760  -49.3596 H         1 UNK         0.0600 
    132 H132        3.1012  -14.1224  -47.7066 H         1 UNK         0.0800 
    133 H133        4.2420  -14.5817  -48.9115 H         1 UNK         0.0800 
    134 H134        4.3103  -17.2206  -49.3203 H         1 UNK         0.0800 
    135 H135        3.9235  -16.2726  -50.7367 H         1 UNK         0.0800 
    136 H136        2.0138  -16.9724  -52.2444 H         1 UNK         0.1150 
    137 H137        1.3091  -21.1887  -52.4280 H         1 UNK         0.1150 
    138 H138        3.5487  -19.5100  -49.1653 H         1 UNK         0.1150 
    139 H139        1.5911  -22.3943  -50.1002 H         1 UNK         0.0800 
    140 H140        3.0980  -22.5358  -50.9609 H         1 UNK         0.0800 
    141 H141        1.4789  -21.0960  -47.7982 H         1 UNK         0.0800 
    142 H142        2.7842  -21.0766  -46.6584 H         1 UNK         0.0800 
    143 H143        2.4129  -23.8004  -46.7575 H         1 UNK         0.0600 
    144 H144        1.2972  -21.8030  -44.9212 H         1 UNK         0.3000 
    145 H145        0.3018  -22.9759  -42.7173 H         1 UNK         0.0600 
    146 H146        1.5415  -23.8866  -40.7412 H         1 UNK         0.0600 
    147 H147        1.0708  -25.1516  -41.8650 H         1 UNK         0.0600 
    148 H148        2.7394  -24.6023  -41.8194 H         1 UNK         0.0600 
    149 H149        1.4747  -21.1366  -42.4618 H         1 UNK         0.3000 
    150 H150        4.7365  -20.2210  -41.8671 H         1 UNK         0.0600 
    151 H151        5.0099  -20.3463  -44.3518 H         1 UNK         0.0600 
    152 H152        4.6357  -18.7082  -43.8374 H         1 UNK         0.0600 
    153 H153        3.3847  -19.7084  -44.5715 H         1 UNK         0.0600 
    154 H154        2.3814  -18.7179  -42.5828 H         1 UNK         0.3000 
    155 H155        0.9527  -18.6900  -39.2990 H         1 UNK         0.0600 
    156 H156        2.6274  -16.8439  -39.3638 H         1 UNK         0.0600 
    157 H157        1.0226  -16.2576  -39.7758 H         1 UNK         0.0600 
    158 H158        2.2205  -16.5110  -41.0424 H         1 UNK         0.0600 
    159 H159        0.0585  -17.5525  -41.7486 H         1 UNK         0.3000 
    160 H160       -1.8194  -20.3950  -42.8802 H         1 UNK         0.0600 
    161 H161       -2.6270  -17.6346  -41.8273 H         1 UNK         0.0600 
    162 H162       -3.2573  -19.1753  -41.2615 H         1 UNK         0.0600 
    163 H163       -3.5815  -18.6485  -42.9056 H         1 UNK         0.0600 
    164 H164       -1.4541  -17.8324  -44.0516 H         1 UNK         0.3000 
    165 H165        1.4868  -18.6544  -45.9585 H         1 UNK         0.0600 
    166 H166        0.0276  -17.9687  -47.7973 H         1 UNK         0.0600 
    167 H167       -0.5544  -19.5088  -47.1706 H         1 UNK         0.0600 
    168 H168       -1.3991  -18.0237  -46.7642 H         1 UNK         0.0600 
    169 H169        0.0088  -16.2465  -45.8293 H         1 UNK         0.3000 
    170 H170        1.6375  -14.8068  -42.9687 H         1 UNK         0.0600 
    171 H171        1.9219  -12.9971  -44.6227 H         1 UNK         0.0600 
    172 H172        3.0220  -14.3163  -44.9959 H         1 UNK         0.0600 
    173 H173        1.5572  -14.1007  -45.9451 H         1 UNK         0.0600 
    174 H174       -0.5446  -14.0131  -44.6903 H         1 UNK         0.3000 
    175 H175       -3.1601  -15.2593  -42.6262 H         1 UNK         0.0600 
    176 H176       -2.4671  -13.1418  -41.4993 H         1 UNK         0.0600 
    177 H177       -2.1710  -12.3889  -43.0619 H         1 UNK         0.0600 
    178 H178       -3.8057  -12.8657  -42.6021 H         1 UNK         0.0600 
    179 H179       -3.1023  -13.6268  -44.9913 H         1 UNK         0.3000 
    180 H180       -3.1924  -16.3044  -47.3491 H         1 UNK         0.0600 
    181 H181       -5.5449  -16.0396  -46.5928 H         1 UNK         0.0600 
    182 H182       -5.3298  -14.2988  -46.4463 H         1 UNK         0.0600 
    183 H183       -5.2459  -15.0710  -48.0284 H         1 UNK         0.0600 
    184 H184       -3.3102  -13.5266  -47.7808 H         1 UNK         0.3000 
    185 H185       -1.3921  -12.7081  -49.0383 H         1 UNK         0.0600 
    186 H186       -1.8591  -11.5351  -46.8424 H         1 UNK         0.0600 
    187 H187       -0.2623  -11.9868  -46.2558 H         1 UNK         0.0600 
    188 H188       -0.4282  -10.8685  -47.6057 H         1 UNK         0.0600 
    189 H189        0.8646  -14.1629  -48.1528 H         1 UNK         0.3000 
    190 H190        1.3314  -24.4928  -48.6572 H         1 UNK         0.3000 
    191 H191       -1.1941  -25.5201  -48.3664 H         1 UNK         0.0600 
    192 H192        0.4870  -26.3766  -49.9578 H         1 UNK         0.0600 
    193 H193        0.3326  -24.9292  -50.9548 H         1 UNK         0.0600 
    194 H194       -1.0143  -26.0517  -50.8073 H         1 UNK         0.0600 
    195 H195       -0.4449  -22.3329  -49.6248 H         1 UNK         0.3000 
    196 H196       -2.8407  -21.6370  -50.9224 H         1 UNK         0.0600 
    197 H197       -2.0777  -19.2791  -50.3460 H         1 UNK         0.0600 
    198 H198       -0.8509  -20.2807  -51.0919 H         1 UNK         0.0600 
    199 H199       -0.7969  -19.9813  -49.3639 H         1 UNK         0.0600 
    200 H200       -2.1165  -21.8379  -47.4670 H         1 UNK         0.3000 
    201 H201       -4.9032  -20.9578  -46.7899 H         1 UNK         0.0600 
    202 H202       -3.9686  -20.6415  -44.4959 H         1 UNK         0.0600 
    203 H203       -2.3664  -21.0743  -45.0881 H         1 UNK         0.0600 
    204 H204       -3.1631  -19.6127  -45.6703 H         1 UNK         0.0600 
    205 H205       -2.3431  -23.4226  -46.1604 H         1 UNK         0.3000 
    206 H206       -3.8881  -24.9653  -44.3731 H         1 UNK         0.0600 
    207 H207       -1.4094  -24.9472  -44.4179 H         1 UNK         0.0600 
    208 H208       -2.0160  -26.5881  -44.5737 H         1 UNK         0.0600 
    209 H209       -1.4053  -25.7433  -45.9891 H         1 UNK         0.0600 
    210 H210       -3.5960  -25.2064  -47.9096 H         1 UNK         0.3000 
    211 H211       -5.5237  -27.4986  -47.9330 H         1 UNK         0.0600 
    212 H212       -4.5385  -28.0979  -50.0997 H         1 UNK         0.0600 
    213 H213       -3.2569  -28.0346  -48.9012 H         1 UNK         0.0600 
    214 H214       -3.4536  -26.7175  -50.0560 H         1 UNK         0.0600 
    215 H215       -5.4275  -24.2600  -48.0889 H         1 UNK         0.3000 
    216 H216       -6.5541  -22.5678  -48.9403 H         1 UNK         0.0600 
    217 H217       -8.9548  -22.8774  -49.4004 H         1 UNK         0.0600 
    218 H218       -8.4887  -23.8476  -48.0139 H         1 UNK         0.0600 
    219 H219       -8.7407  -24.6136  -49.5823 H         1 UNK         0.0600 
    220 H220       -4.6219  -23.6383  -50.6901 H         1 UNK         0.3000 
    221 H221       -5.6062  -23.7983  -53.3953 H         1 UNK         0.0600 
    222 H222       -2.7569  -23.4213  -52.3408 H         1 UNK         0.0600 
    223 H223       -3.5517  -24.9609  -52.6468 H         1 UNK         0.0600 
    224 H224       -3.2105  -23.8639  -53.9767 H         1 UNK         0.0600 
    225 H225       -6.9269  -21.8685  -53.2504 H         1 UNK         0.3000 
    226 H226       -7.5846  -19.9824  -54.1425 H         1 UNK         0.0600 
    227 H227       -6.1930  -18.6668  -55.7084 H         1 UNK         0.0600 
    228 H228       -4.7500  -19.5275  -55.2008 H         1 UNK         0.0600 
    229 H229       -6.0400  -20.3851  -56.0416 H         1 UNK         0.0600 
    230 H230       -4.7561  -19.7139  -52.1258 H         1 UNK         0.3000 
    231 H231       -4.1926  -18.4896  -50.3898 H         1 UNK         0.0600 
    232 H232       -6.5438  -18.6930  -49.6171 H         1 UNK         0.0600 
    233 H233       -6.9552  -17.1848  -50.4356 H         1 UNK         0.0600 
    234 H234       -5.8113  -17.1844  -49.1010 H         1 UNK         0.0600 
    235 H235       -5.7518  -16.4780  -52.8480 H         1 UNK         0.3000 
    236 H236       -3.8137  -14.2493  -52.4463 H         1 UNK         0.0600 
    237 H237       -6.2529  -13.7066  -52.5611 H         1 UNK         0.0600 
    238 H238       -5.3726  -12.9925  -53.9009 H         1 UNK         0.0600 
    239 H239       -6.3455  -14.4372  -54.1632 H         1 UNK         0.0600 
    240 H240       -2.8113  -16.7539  -53.4116 H         1 UNK         0.3000 
    241 H241       -2.5386  -16.7324  -56.2703 H         1 UNK         0.0600 
    242 H242       -0.7879  -14.8399  -53.9098 H         1 UNK         0.3800 
    243 H243        0.5123  -14.4278  -54.9931 H         1 UNK         0.3800 
    244 H244       -2.5080  -18.8633  -55.2243 H         1 UNK         0.0800 
    245 H245       -0.9128  -18.6302  -55.8585 H         1 UNK         0.0800 
    246 H246        1.2028  -18.0200  -54.3193 H         1 UNK         0.0800 
    247 H247        0.9181  -19.7444  -54.4079 H         1 UNK         0.0800 
@<TRIPOS>BOND
     1    1    2 1    
     2    1  127 1    
     3    1  128 1    
     4    1  129 1    
     5    2    3 2    
     6    2    4 am   BACKBONE|DICT|INTERRES
     7    4    5 1    
     8    4  130 1    
     9    5    6 1    
    10    5   65 1    
    11    5  131 1    
    12    6    7 1    
    13    6  132 1    
    14    6  133 1    
    15    7    8 1    
    16    8    9 1    
    17    8  134 1    
    18    8  135 1    
    19    9   10 ar   
    20    9   14 ar   
    21   10   11 ar   
    22   10  136 1    
    23   11   12 ar   
    24   11  126 1    
    25   12   13 ar   
    26   12  137 1    
    27   13   14 ar   
    28   13   15 1    
    29   14  138 1    
    30   15   16 1    
    31   15  139 1    
    32   15  140 1    
    33   16   17 1    
    34   17   18 1    
    35   17  141 1    
    36   17  142 1    
    37   18   19 1    
    38   18   67 1    
    39   18  143 1    
    40   19   20 am   BACKBONE|DICT|INTERRES
    41   19  144 1    
    42   20   21 2    
    43   20   22 1    
    44   22   23 1    
    45   22   24 1    
    46   22  145 1    
    47   23  146 1    
    48   23  147 1    
    49   23  148 1    
    50   24   25 am   BACKBONE|DICT|INTERRES
    51   24  149 1    
    52   25   26 2    
    53   25   27 1    
    54   27   28 1    
    55   27   29 1    
    56   27  150 1    
    57   28  151 1    
    58   28  152 1    
    59   28  153 1    
    60   29   30 am   BACKBONE|DICT|INTERRES
    61   29  154 1    
    62   30   31 2    
    63   30   32 1    
    64   32   33 1    
    65   32   34 1    
    66   32  155 1    
    67   33  156 1    
    68   33  157 1    
    69   33  158 1    
    70   34   35 am   BACKBONE|DICT|INTERRES
    71   34  159 1    
    72   35   36 2    
    73   35   37 1    
    74   37   38 1    
    75   37   39 1    
    76   37  160 1    
    77   38  161 1    
    78   38  162 1    
    79   38  163 1    
    80   39   40 am   BACKBONE|DICT|INTERRES
    81   39  164 1    
    82   40   41 2    
    83   40   42 1    
    84   42   43 1    
    85   42   44 1    
    86   42  165 1    
    87   43  166 1    
    88   43  167 1    
    89   43  168 1    
    90   44   45 am   BACKBONE|DICT|INTERRES
    91   44  169 1    
    92   45   46 2    
    93   45   47 1    
    94   47   48 1    
    95   47   49 1    
    96   47  170 1    
    97   48  171 1    
    98   48  172 1    
    99   48  173 1    
   100   49   50 am   BACKBONE|DICT|INTERRES
   101   49  174 1    
   102   50   51 2    
   103   50   52 1    
   104   52   53 1    
   105   52   54 1    
   106   52  175 1    
   107   53  176 1    
   108   53  177 1    
   109   53  178 1    
   110   54   55 am   BACKBONE|DICT|INTERRES
   111   54  179 1    
   112   55   56 2    
   113   55   57 1    
   114   57   58 1    
   115   57   59 1    
   116   57  180 1    
   117   58  181 1    
   118   58  182 1    
   119   58  183 1    
   120   59   60 am   BACKBONE|DICT|INTERRES
   121   59  184 1    
   122   60   61 2    
   123   60   62 1    
   124   62   63 1    
   125   62   64 1    
   126   62  185 1    
   127   63  186 1    
   128   63  187 1    
   129   63  188 1    
   130   64   65 am   BACKBONE|DICT|INTERRES
   131   64  189 1    
   132   65   66 2    
   133   67   68 2    
   134   67   69 am   BACKBONE|DICT|INTERRES
   135   69   70 1    
   136   69  190 1    
   137   70   71 1    
   138   70   72 1    
   139   70  191 1    
   140   71  192 1    
   141   71  193 1    
   142   71  194 1    
   143   72   73 2    
   144   72   74 am   BACKBONE|DICT|INTERRES
   145   74   75 1    
   146   74  195 1    
   147   75   76 1    
   148   75   77 1    
   149   75  196 1    
   150   76  197 1    
   151   76  198 1    
   152   76  199 1    
   153   77   78 2    
   154   77   79 am   BACKBONE|DICT|INTERRES
   155   79   80 1    
   156   79  200 1    
   157   80   81 1    
   158   80   82 1    
   159   80  201 1    
   160   81  202 1    
   161   81  203 1    
   162   81  204 1    
   163   82   83 2    
   164   82   84 am   BACKBONE|DICT|INTERRES
   165   84   85 1    
   166   84  205 1    
   167   85   86 1    
   168   85   87 1    
   169   85  206 1    
   170   86  207 1    
   171   86  208 1    
   172   86  209 1    
   173   87   88 2    
   174   87   89 am   BACKBONE|DICT|INTERRES
   175   89   90 1    
   176   89  210 1    
   177   90   91 1    
   178   90   92 1    
   179   90  211 1    
   180   91  212 1    
   181   91  213 1    
   182   91  214 1    
   183   92   93 2    
   184   92   94 am   BACKBONE|DICT|INTERRES
   185   94   95 1    
   186   94  215 1    
   187   95   96 1    
   188   95   97 1    
   189   95  216 1    
   190   96  217 1    
   191   96  218 1    
   192   96  219 1    
   193   97   98 2    
   194   97   99 am   BACKBONE|DICT|INTERRES
   195   99  100 1    
   196   99  220 1    
   197  100  101 1    
   198  100  102 1    
   199  100  221 1    
   200  101  222 1    
   201  101  223 1    
   202  101  224 1    
   203  102  103 2    
   204  102  104 am   BACKBONE|DICT|INTERRES
   205  104  105 1    
   206  104  225 1    
   207  105  106 1    
   208  105  107 1    
   209  105  226 1    
   210  106  227 1    
   211  106  228 1    
   212  106  229 1    
   213  107  108 2    
   214  107  109 am   BACKBONE|DICT|INTERRES
   215  109  110 1    
   216  109  230 1    
   217  110  111 1    
   218  110  112 1    
   219  110  231 1    
   220  111  232 1    
   221  111  233 1    
   222  111  234 1    
   223  112  113 2    
   224  112  114 am   BACKBONE|DICT|INTERRES
   225  114  115 1    
   226  114  235 1    
   227  115  116 1    
   228  115  117 1    
   229  115  236 1    
   230  116  237 1    
   231  116  238 1    
   232  116  239 1    
   233  117  118 2    
   234  117  119 am   BACKBONE|DICT|INTERRES
   235  119  120 1    
   236  119  240 1    
   237  120  121 1    
   238  120  124 1    
   239  120  241 1    
   240  121  122 am   BACKBONE|DICT|INTERRES
   241  121  123 2    
   242  122  242 1    
   243  122  243 1    
   244  124  125 1    
   245  124  244 1    
   246  124  245 1    
   247  125  126 1    
   248  126  246 1    
   249  126  247 1    
@<TRIPOS>SUBSTRUCTURE
     1 UNK         1 GROUP             0       ****    0 ROOT    
