@<TRIPOS>MOLECULE
3R540
247   249    1
SMALL
USER_CHARGES


@<TRIPOS>ATOM
      1 CA          4.5927  -10.6766  -53.0633 C.3       0 UNK        -0.1800 
      2 C           4.6993  -11.2136  -51.6428 C.2       0 UNK         0.5000 
      3 O           5.8032  -11.3102  -51.1056 O.2       0 UNK        -0.5000 
      4 N           3.5599  -11.5712  -51.0384 N.am      1 UNK        -0.5000 
      5 CA          3.4539  -12.0621  -49.6615 C.3       1 UNK         0.1400 
      6 C6          2.0489  -12.6369  -49.3611 C.3       23 UNK        -0.0398 
      7 S7          1.6622  -14.1317  -50.3358 S.3       23 UNK        -0.2404 
      8 C8          1.8554  -15.4334  -49.0757 C.3       23 UNK        -0.0205 
      9 C9          1.0053  -16.6559  -49.3832 C.ar      23 UNK        -0.0193 
     10 C10        -0.3867  -16.5691  -49.2924 C.ar      23 UNK        -0.1150 
     11 C11        -1.1855  -17.6993  -49.4786 C.ar      23 UNK        -0.0193 
     12 C12        -0.5767  -18.9267  -49.7573 C.ar      23 UNK        -0.1150 
     13 C13         0.8123  -19.0254  -49.8753 C.ar      23 UNK        -0.0193 
     14 C14         1.5996  -17.8827  -49.6956 C.ar      23 UNK        -0.1150 
     15 C15         1.4507  -20.3786  -50.1651 C.3       23 UNK        -0.0205 
     16 S16         2.5920  -20.9389  -48.8544 S.3       23 UNK        -0.2404 
     17 C17         1.6082  -20.7264  -47.3302 C.3       23 UNK        -0.0398 
     18 CA          0.9698  -22.0240  -46.7861 C.3       11 UNK         0.1400 
     19 N           0.5310  -21.8430  -45.4022 N.am      11 UNK        -0.5000 
     20 C           0.0794  -22.8058  -44.5896 C.2       10 UNK         0.5000 
     21 O           0.0217  -23.9943  -44.9024 O.2       10 UNK        -0.5000 
     22 CA         -0.4374  -22.3533  -43.2108 C.3       10 UNK         0.1400 
     23 CB          0.7256  -22.1345  -42.2319 C.3       10 UNK        -0.1800 
     24 N          -1.2520  -21.1383  -43.2873 N.am      10 UNK        -0.5000 
     25 C          -2.4280  -21.0606  -43.9275 C.2       9 UNK         0.5000 
     26 O          -2.9663  -22.0171  -44.4847 O.2       9 UNK        -0.5000 
     27 CA         -3.0952  -19.6754  -43.9964 C.3       9 UNK         0.1400 
     28 CB         -3.8084  -19.3467  -42.6765 C.3       9 UNK        -0.1800 
     29 N          -2.1514  -18.6072  -44.3262 N.am      9 UNK        -0.5000 
     30 C          -1.4641  -18.5283  -45.4745 C.2       8 UNK         0.5000 
     31 O          -1.5817  -19.3344  -46.3958 O.2       8 UNK        -0.5000 
     32 CA         -0.4276  -17.3953  -45.5886 C.3       8 UNK         0.1400 
     33 CB         -1.1098  -16.0573  -45.9062 C.3       8 UNK        -0.1800 
     34 N           0.3889  -17.2574  -44.3812 N.am      8 UNK        -0.5000 
     35 C           1.1733  -18.2240  -43.8817 C.2       7 UNK         0.5000 
     36 O           1.3315  -19.3203  -44.4138 O.2       7 UNK        -0.5000 
     37 CA          1.8611  -17.9424  -42.5387 C.3       7 UNK         0.1400 
     38 CB          3.1414  -17.1306  -42.7490 C.3       7 UNK        -0.1800 
     39 N           0.9763  -17.2357  -41.6171 N.am      7 UNK        -0.5000 
     40 C          -0.0751  -17.8009  -41.0092 C.2       6 UNK         0.5000 
     41 O          -0.3863  -18.9861  -41.1366 O.2       6 UNK        -0.5000 
     42 CA         -0.9466  -16.8667  -40.1511 C.3       6 UNK         0.1400 
     43 CB         -0.3105  -16.6409  -38.7713 C.3       6 UNK        -0.1800 
     44 N          -1.1853  -15.5732  -40.7958 N.am      6 UNK        -0.5000 
     45 C          -1.8853  -15.4181  -41.9276 C.2       5 UNK         0.5000 
     46 O          -2.4035  -16.3496  -42.5420 O.2       5 UNK        -0.5000 
     47 CA         -2.0155  -13.9893  -42.4826 C.3       5 UNK         0.1400 
     48 CB         -3.2314  -13.2857  -41.8614 C.3       5 UNK        -0.1800 
     49 N          -0.8297  -13.1473  -42.3037 N.am      5 UNK        -0.5000 
     50 C           0.3967  -13.4001  -42.7823 C.2       4 UNK         0.5000 
     51 O           0.7130  -14.4581  -43.3340 O.2       4 UNK        -0.5000 
     52 CA          1.4031  -12.2385  -42.6463 C.3       4 UNK         0.1400 
     53 CB          1.6572  -11.8558  -41.1717 C.3       4 UNK        -0.1800 
     54 N           2.6540  -12.4594  -43.3835 N.am      4 UNK        -0.5000 
     55 C           3.6881  -13.2517  -43.0628 C.2       3 UNK         0.5000 
     56 O           3.7662  -13.8967  -42.0169 O.2       3 UNK        -0.5000 
     57 CA          4.8471  -13.3394  -44.0800 C.3       3 UNK         0.1400 
     58 CB          4.9860  -14.7645  -44.6389 C.3       3 UNK        -0.1800 
     59 N           4.7116  -12.4184  -45.2128 N.am      3 UNK        -0.5000 
     60 C           5.1521  -11.1517  -45.2332 C.2       2 UNK         0.5000 
     61 O           5.6571  -10.5972  -44.2564 O.2       2 UNK        -0.5000 
     62 CA          5.0181  -10.3800  -46.5630 C.3       2 UNK         0.1400 
     63 CB          6.3151   -9.6360  -46.9309 C.3       2 UNK        -0.1800 
     64 N           4.6371  -11.2638  -47.6696 N.am      2 UNK        -0.5000 
     65 C           3.7855  -10.9443  -48.6504 C.2       1 UNK         0.5000 
     66 O           3.2391   -9.8436  -48.7581 O.2       1 UNK        -0.5000 
     67 C          -0.1773  -22.5349  -47.6826 C.2       11 UNK         0.5000 
     68 O           0.0181  -23.5012  -48.4191 O.2       11 UNK        -0.5000 
     69 N          -1.3652  -21.9218  -47.5698 N.am      12 UNK        -0.5000 
     70 CA         -2.5804  -22.3436  -48.2677 C.3       12 UNK         0.1400 
     71 CB         -3.7025  -21.3241  -48.0357 C.3       12 UNK        -0.1800 
     72 C          -3.0423  -23.7541  -47.8664 C.2       12 UNK         0.5000 
     73 O          -3.4248  -24.5294  -48.7421 O.2       12 UNK        -0.5000 
     74 N          -2.9677  -24.0755  -46.5671 N.am      13 UNK        -0.5000 
     75 CA         -3.2659  -25.4021  -46.0266 C.3       13 UNK         0.1400 
     76 CB         -3.2853  -25.3515  -44.4916 C.3       13 UNK        -0.1800 
     77 C          -2.2880  -26.4770  -46.5341 C.2       13 UNK         0.5000 
     78 O          -2.7327  -27.5459  -46.9526 O.2       13 UNK        -0.5000 
     79 N          -0.9850  -26.1595  -46.5433 N.am      14 UNK        -0.5000 
     80 CA          0.0790  -27.0097  -47.0859 C.3       14 UNK         0.1400 
     81 CB          1.4472  -26.3984  -46.7484 C.3       14 UNK        -0.1800 
     82 C          -0.0549  -27.2461  -48.6031 C.2       14 UNK         0.5000 
     83 O           0.2078  -28.3534  -49.0732 O.2       14 UNK        -0.5000 
     84 N          -0.5034  -26.2157  -49.3318 N.am      15 UNK        -0.5000 
     85 CA         -0.8278  -26.2644  -50.7581 C.3       15 UNK         0.1400 
     86 CB         -0.8183  -24.8306  -51.3164 C.3       15 UNK        -0.1800 
     87 C          -2.1771  -26.9480  -51.0651 C.2       15 UNK         0.5000 
     88 O          -2.5070  -27.1002  -52.2403 O.2       15 UNK        -0.5000 
     89 N          -2.9535  -27.3100  -50.0316 N.am      16 UNK        -0.5000 
     90 CA         -4.3005  -27.8913  -50.0949 C.3       16 UNK         0.1400 
     91 CB         -4.2476  -29.3242  -50.6640 C.3       16 UNK        -0.1800 
     92 C          -5.3108  -26.9833  -50.8317 C.2       16 UNK         0.5000 
     93 O          -6.1690  -27.4744  -51.5668 O.2       16 UNK        -0.5000 
     94 N          -5.1617  -25.6655  -50.6310 N.am      17 UNK        -0.5000 
     95 CA         -5.9229  -24.5614  -51.2230 C.3       17 UNK         0.1400 
     96 CB         -7.4055  -24.6229  -50.8029 C.3       17 UNK        -0.1800 
     97 C          -5.7503  -24.4001  -52.7498 C.2       17 UNK         0.5000 
     98 O          -6.4961  -23.6294  -53.3572 O.2       17 UNK        -0.5000 
     99 N          -4.7512  -25.0692  -53.3498 N.am      18 UNK        -0.5000 
    100 CA        -4.4647  -25.0426  -54.7914 C.3       18 UNK         0.1400 
    101 CB        -3.4017  -26.1004  -55.1210 C.3       18 UNK        -0.1800 
    102 C         -4.0328  -23.6639  -55.3320 C.2       18 UNK         0.5000 
    103 O         -4.0989  -23.4417  -56.5416 O.2       18 UNK        -0.5000 
    104 N         -3.6240  -22.7583  -54.4317 N.am      19 UNK        -0.5000 
    105 CA        -3.3389  -21.3513  -54.7150 C.3       19 UNK         0.1400 
    106 CB        -2.7190  -20.7126  -53.4625 C.3       19 UNK        -0.1800 
    107 C         -4.5804  -20.5540  -55.1692 C.2       19 UNK         0.5000 
    108 O         -4.4237  -19.5672  -55.8893 O.2       19 UNK        -0.5000 
    109 N         -5.7782  -20.9971  -54.7495 N.am      20 UNK        -0.5000 
    110 CA        -7.1263  -20.5068  -55.0727 C.3       20 UNK         0.1400 
    111 CB        -7.4210  -20.6475  -56.5776 C.3       20 UNK        -0.1800 
    112 C         -7.4470  -19.0831  -54.5748 C.2       20 UNK         0.5000 
    113 O         -8.4773  -18.8837  -53.9289 O.2       20 UNK        -0.5000 
    114 N         -6.5558  -18.1243  -54.8542 N.am      21 UNK        -0.5000 
    115 CA        -6.6593  -16.7050  -54.4999 C.3       21 UNK         0.1400 
    116 CB        -5.4908  -15.9494  -55.1508 C.3       21 UNK        -0.1800 
    117 C         -6.6960  -16.4358  -52.9824 C.2       21 UNK         0.5000 
    118 O         -7.1818  -15.3846  -52.5628 O.2       21 UNK        -0.5000 
    119 N         -6.2001  -17.3957  -52.1936 N.am      22 UNK        -0.5000 
    120 CA        -6.2567  -17.4118  -50.7253 C.3       22 UNK         0.1400 
    121 C         -7.6861  -17.6263  -50.1419 C.2       22 UNK         0.5000 
    122 N         -8.6735  -18.0525  -50.9233 N.am      22 UNK        -0.7600 
    123 O         -7.9025  -17.3989  -48.9551 O.2       22 UNK        -0.5000 
    124 C124       -5.2751  -18.4530  -50.1293 C.3       23 UNK        -0.0398 
    125 S125       -3.5723  -18.2910  -50.7679 S.3       23 UNK        -0.2404 
    126 C126       -2.6975  -17.6037  -49.3267 C.3       23 UNK        -0.0205 
    127 H127        4.9871   -9.6616  -53.1110 H         1 UNK         0.0600 
    128 H128        3.5602  -10.6570  -53.4131 H         1 UNK         0.0600 
    129 H129        5.1706  -11.3008  -53.7449 H         1 UNK         0.0600 
    130 H130        2.6843  -11.4624  -51.5293 H         1 UNK         0.3000 
    131 H131        4.1834  -12.8659  -49.5393 H         1 UNK         0.0600 
    132 H132        1.9448  -12.8636  -48.2989 H         1 UNK         0.0800 
    133 H133        1.2816  -11.8903  -49.5745 H         1 UNK         0.0800 
    134 H134        1.5575  -15.0621  -48.0944 H         1 UNK         0.0800 
    135 H135        2.9106  -15.6993  -48.9966 H         1 UNK         0.0800 
    136 H136       -0.8440  -15.6195  -49.0526 H         1 UNK         0.1150 
    137 H137       -1.1909  -19.8082  -49.8763 H         1 UNK         0.1150 
    138 H138        2.6756  -17.9603  -49.7642 H         1 UNK         0.1150 
    139 H139        0.6861  -21.1436  -50.3102 H         1 UNK         0.0800 
    140 H140        1.9991  -20.3158  -51.1058 H         1 UNK         0.0800 
    141 H141        0.8591  -19.9437  -47.4420 H         1 UNK         0.0800 
    142 H142        2.3111  -20.3410  -46.5913 H         1 UNK         0.0800 
    143 H143        1.7404  -22.7976  -46.7709 H         1 UNK         0.0600 
    144 H144        0.5921  -20.8949  -45.0375 H         1 UNK         0.3000 
    145 H145       -1.0670  -23.1525  -42.8145 H         1 UNK         0.0600 
    146 H146        0.3601  -21.8755  -41.2380 H         1 UNK         0.0600 
    147 H147        1.3271  -23.0389  -42.1330 H         1 UNK         0.0600 
    148 H148        1.3878  -21.3342  -42.5623 H         1 UNK         0.0600 
    149 H149       -0.8850  -20.3105  -42.8329 H         1 UNK         0.3000 
    150 H150       -3.8463  -19.7097  -44.7882 H         1 UNK         0.0600 
    151 H151       -4.5197  -20.1295  -42.4101 H         1 UNK         0.0600 
    152 H152       -4.3658  -18.4130  -42.7531 H         1 UNK         0.0600 
    153 H153       -3.1028  -19.2467  -41.8510 H         1 UNK         0.0600 
    154 H154       -2.0352  -17.8741  -43.6315 H         1 UNK         0.3000 
    155 H155        0.2412  -17.6409  -46.4162 H         1 UNK         0.0600 
    156 H156       -1.7620  -15.7381  -45.0958 H         1 UNK         0.0600 
    157 H157       -1.7277  -16.1349  -46.8003 H         1 UNK         0.0600 
    158 H158       -0.3760  -15.2700  -46.0795 H         1 UNK         0.0600 
    159 H159        0.3499  -16.3646  -43.8996 H         1 UNK         0.3000 
    160 H160        2.1356  -18.8996  -42.0902 H         1 UNK         0.0600 
    161 H161        2.9189  -16.1700  -43.2111 H         1 UNK         0.0600 
    162 H162        3.8375  -17.6588  -43.4018 H         1 UNK         0.0600 
    163 H163        3.6540  -16.9406  -41.8060 H         1 UNK         0.0600 
    164 H164        1.1308  -16.2433  -41.5086 H         1 UNK         0.3000 
    165 H165       -1.9123  -17.3557  -40.0055 H         1 UNK         0.0600 
    166 H166       -0.9622  -16.0480  -38.1293 H         1 UNK         0.0600 
    167 H167       -0.1326  -17.5901  -38.2641 H         1 UNK         0.0600 
    168 H168        0.6472  -16.1242  -38.8468 H         1 UNK         0.0600 
    169 H169       -0.7870  -14.7562  -40.3569 H         1 UNK         0.3000 
    170 H170       -2.1919  -14.0707  -43.5560 H         1 UNK         0.0600 
    171 H171       -4.1377  -13.8774  -41.9980 H         1 UNK         0.0600 
    172 H172       -3.1014  -13.1272  -40.7901 H         1 UNK         0.0600 
    173 H173       -3.4071  -12.3154  -42.3262 H         1 UNK         0.0600 
    174 H174       -0.9934  -12.2549  -41.8606 H         1 UNK         0.3000 
    175 H175        0.9405  -11.3769  -43.1299 H         1 UNK         0.0600 
    176 H176        1.9696  -12.7125  -40.5740 H         1 UNK         0.0600 
    177 H177        2.4283  -11.0897  -41.0896 H         1 UNK         0.0600 
    178 H178        0.7566  -11.4531  -40.7078 H         1 UNK         0.0600 
    179 H179        2.7031  -12.0004  -44.2807 H         1 UNK         0.3000 
    180 H180        5.7661  -13.1043  -43.5387 H         1 UNK         0.0600 
    181 H181        4.0730  -15.0953  -45.1357 H         1 UNK         0.0600 
    182 H182        5.2090  -15.4737  -43.8415 H         1 UNK         0.0600 
    183 H183        5.8026  -14.8295  -45.3581 H         1 UNK         0.0600 
    184 H184        4.2631  -12.7891  -46.0363 H         1 UNK         0.3000 
    185 H185        4.2326   -9.6396  -46.3979 H         1 UNK         0.0600 
    186 H186        6.6055   -8.9346  -46.1478 H         1 UNK         0.0600 
    187 H187        7.1447  -10.3282  -47.0791 H         1 UNK         0.0600 
    188 H188        6.1919   -9.0605  -47.8486 H         1 UNK         0.0600 
    189 H189        5.0911  -12.1666  -47.6868 H         1 UNK         0.3000 
    190 H190       -1.4449  -21.0991  -46.9755 H         1 UNK         0.3000 
    191 H191       -2.3579  -22.3604  -49.3364 H         1 UNK         0.0600 
    192 H192       -3.9340  -21.2102  -46.9765 H         1 UNK         0.0600 
    193 H193       -4.6188  -21.6237  -48.5459 H         1 UNK         0.0600 
    194 H194       -3.4215  -20.3481  -48.4234 H         1 UNK         0.0600 
    195 H195       -2.6994  -23.3595  -45.8983 H         1 UNK         0.3000 
    196 H196       -4.2662  -25.6796  -46.3656 H         1 UNK         0.0600 
    197 H197       -3.5294  -26.3281  -44.0720 H         1 UNK         0.0600 
    198 H198       -4.0341  -24.6461  -44.1311 H         1 UNK         0.0600 
    199 H199       -2.3206  -25.0507  -44.0836 H         1 UNK         0.0600 
    200 H200       -0.6946  -25.2727  -46.1389 H         1 UNK         0.3000 
    201 H201        0.0106  -27.9817  -46.5932 H         1 UNK         0.0600 
    202 H202        1.5799  -26.3011  -45.6708 H         1 UNK         0.0600 
    203 H203        1.5663  -25.4087  -47.1899 H         1 UNK         0.0600 
    204 H204        2.2584  -27.0250  -47.1213 H         1 UNK         0.0600 
    205 H205       -0.6178  -25.3150  -48.8759 H         1 UNK         0.3000 
    206 H206       -0.0514  -26.8346  -51.2720 H         1 UNK         0.0600 
    207 H207        0.1442  -24.3475  -51.1469 H         1 UNK         0.0600 
    208 H208       -0.9984  -24.8238  -52.3921 H         1 UNK         0.0600 
    209 H209       -1.5877  -24.2143  -50.8511 H         1 UNK         0.0600 
    210 H210       -2.6112  -27.1243  -49.0970 H         1 UNK         0.3000 
    211 H211       -4.6509  -27.9584  -49.0642 H         1 UNK         0.0600 
    212 H212       -3.9585  -29.3329  -51.7153 H         1 UNK         0.0600 
    213 H213       -5.2204  -29.8112  -50.5883 H         1 UNK         0.0600 
    214 H214       -3.5345  -29.9389  -50.1147 H         1 UNK         0.0600 
    215 H215       -4.4270  -25.3713  -49.9876 H         1 UNK         0.3000 
    216 H216       -5.5020  -23.6548  -50.7859 H         1 UNK         0.0600 
    217 H217       -7.9355  -23.7173  -51.1001 H         1 UNK         0.0600 
    218 H218       -7.5050  -24.7135  -49.7212 H         1 UNK         0.0600 
    219 H219       -7.9226  -25.4665  -51.2604 H         1 UNK         0.0600 
    220 H220       -4.1760  -25.6893  -52.7923 H         1 UNK         0.3000 
    221 H221       -5.3850  -25.3155  -55.3116 H         1 UNK         0.0600 
    222 H222       -2.4475  -25.8711  -54.6454 H         1 UNK         0.0600 
    223 H223       -3.7140  -27.0915  -54.7912 H         1 UNK         0.0600 
    224 H224       -3.2258  -26.1576  -56.1960 H         1 UNK         0.0600 
    225 H225       -3.5831  -23.0436  -53.4652 H         1 UNK         0.3000 
    226 H226       -2.6061  -21.3097  -55.5234 H         1 UNK         0.0600 
    227 H227       -2.4882  -19.6597  -53.6311 H         1 UNK         0.0600 
    228 H228       -3.3944  -20.7671  -52.6079 H         1 UNK         0.0600 
    229 H229       -1.7877  -21.2070  -53.1851 H         1 UNK         0.0600 
    230 H230       -5.7808  -21.8281  -54.1679 H         1 UNK         0.3000 
    231 H231       -7.8083  -21.1775  -54.5474 H         1 UNK         0.0600 
    232 H232       -7.2778  -21.6756  -56.9107 H         1 UNK         0.0600 
    233 H233       -6.7781  -20.0074  -57.1824 H         1 UNK         0.0600 
    234 H234       -8.4535  -20.3744  -56.7992 H         1 UNK         0.0600 
    235 H235       -5.7204  -18.4110  -55.3608 H         1 UNK         0.3000 
    236 H236       -7.5929  -16.3258  -54.9199 H         1 UNK         0.0600 
    237 H237       -5.5447  -14.8815  -54.9351 H         1 UNK         0.0600 
    238 H238       -4.5281  -16.3111  -54.7867 H         1 UNK         0.0600 
    239 H239       -5.5031  -16.0623  -56.2351 H         1 UNK         0.0600 
    240 H240       -5.8018  -18.2117  -52.6321 H         1 UNK         0.3000 
    241 H241       -5.9350  -16.4265  -50.3826 H         1 UNK         0.0600 
    242 H242       -8.5197  -18.2474  -51.9056 H         1 UNK         0.3800 
    243 H243       -9.5922  -18.1822  -50.5300 H         1 UNK         0.3800 
    244 H244       -5.2620  -18.3838  -49.0402 H         1 UNK         0.0800 
    245 H245       -5.6146  -19.4645  -50.3596 H         1 UNK         0.0800 
    246 H246       -3.0106  -16.5673  -49.1930 H         1 UNK         0.0800 
    247 H247       -2.9855  -18.1320  -48.4186 H         1 UNK         0.0800 
@<TRIPOS>BOND
     1    1    2 1    
     2    1  127 1    
     3    1  128 1    
     4    1  129 1    
     5    2    3 2    
     6    2    4 am   BACKBONE|DICT|INTERRES
     7    4    5 1    
     8    4  130 1    
     9    5    6 1    
    10    5   65 1    
    11    5  131 1    
    12    6    7 1    
    13    6  132 1    
    14    6  133 1    
    15    7    8 1    
    16    8    9 1    
    17    8  134 1    
    18    8  135 1    
    19    9   10 ar   
    20    9   14 ar   
    21   10   11 ar   
    22   10  136 1    
    23   11   12 ar   
    24   11  126 1    
    25   12   13 ar   
    26   12  137 1    
    27   13   14 ar   
    28   13   15 1    
    29   14  138 1    
    30   15   16 1    
    31   15  139 1    
    32   15  140 1    
    33   16   17 1    
    34   17   18 1    
    35   17  141 1    
    36   17  142 1    
    37   18   19 1    
    38   18   67 1    
    39   18  143 1    
    40   19   20 am   BACKBONE|DICT|INTERRES
    41   19  144 1    
    42   20   21 2    
    43   20   22 1    
    44   22   23 1    
    45   22   24 1    
    46   22  145 1    
    47   23  146 1    
    48   23  147 1    
    49   23  148 1    
    50   24   25 am   BACKBONE|DICT|INTERRES
    51   24  149 1    
    52   25   26 2    
    53   25   27 1    
    54   27   28 1    
    55   27   29 1    
    56   27  150 1    
    57   28  151 1    
    58   28  152 1    
    59   28  153 1    
    60   29   30 am   BACKBONE|DICT|INTERRES
    61   29  154 1    
    62   30   31 2    
    63   30   32 1    
    64   32   33 1    
    65   32   34 1    
    66   32  155 1    
    67   33  156 1    
    68   33  157 1    
    69   33  158 1    
    70   34   35 am   BACKBONE|DICT|INTERRES
    71   34  159 1    
    72   35   36 2    
    73   35   37 1    
    74   37   38 1    
    75   37   39 1    
    76   37  160 1    
    77   38  161 1    
    78   38  162 1    
    79   38  163 1    
    80   39   40 am   BACKBONE|DICT|INTERRES
    81   39  164 1    
    82   40   41 2    
    83   40   42 1    
    84   42   43 1    
    85   42   44 1    
    86   42  165 1    
    87   43  166 1    
    88   43  167 1    
    89   43  168 1    
    90   44   45 am   BACKBONE|DICT|INTERRES
    91   44  169 1    
    92   45   46 2    
    93   45   47 1    
    94   47   48 1    
    95   47   49 1    
    96   47  170 1    
    97   48  171 1    
    98   48  172 1    
    99   48  173 1    
   100   49   50 am   BACKBONE|DICT|INTERRES
   101   49  174 1    
   102   50   51 2    
   103   50   52 1    
   104   52   53 1    
   105   52   54 1    
   106   52  175 1    
   107   53  176 1    
   108   53  177 1    
   109   53  178 1    
   110   54   55 am   BACKBONE|DICT|INTERRES
   111   54  179 1    
   112   55   56 2    
   113   55   57 1    
   114   57   58 1    
   115   57   59 1    
   116   57  180 1    
   117   58  181 1    
   118   58  182 1    
   119   58  183 1    
   120   59   60 am   BACKBONE|DICT|INTERRES
   121   59  184 1    
   122   60   61 2    
   123   60   62 1    
   124   62   63 1    
   125   62   64 1    
   126   62  185 1    
   127   63  186 1    
   128   63  187 1    
   129   63  188 1    
   130   64   65 am   BACKBONE|DICT|INTERRES
   131   64  189 1    
   132   65   66 2    
   133   67   68 2    
   134   67   69 am   BACKBONE|DICT|INTERRES
   135   69   70 1    
   136   69  190 1    
   137   70   71 1    
   138   70   72 1    
   139   70  191 1    
   140   71  192 1    
   141   71  193 1    
   142   71  194 1    
   143   72   73 2    
   144   72   74 am   BACKBONE|DICT|INTERRES
   145   74   75 1    
   146   74  195 1    
   147   75   76 1    
   148   75   77 1    
   149   75  196 1    
   150   76  197 1    
   151   76  198 1    
   152   76  199 1    
   153   77   78 2    
   154   77   79 am   BACKBONE|DICT|INTERRES
   155   79   80 1    
   156   79  200 1    
   157   80   81 1    
   158   80   82 1    
   159   80  201 1    
   160   81  202 1    
   161   81  203 1    
   162   81  204 1    
   163   82   83 2    
   164   82   84 am   BACKBONE|DICT|INTERRES
   165   84   85 1    
   166   84  205 1    
   167   85   86 1    
   168   85   87 1    
   169   85  206 1    
   170   86  207 1    
   171   86  208 1    
   172   86  209 1    
   173   87   88 2    
   174   87   89 am   BACKBONE|DICT|INTERRES
   175   89   90 1    
   176   89  210 1    
   177   90   91 1    
   178   90   92 1    
   179   90  211 1    
   180   91  212 1    
   181   91  213 1    
   182   91  214 1    
   183   92   93 2    
   184   92   94 am   BACKBONE|DICT|INTERRES
   185   94   95 1    
   186   94  215 1    
   187   95   96 1    
   188   95   97 1    
   189   95  216 1    
   190   96  217 1    
   191   96  218 1    
   192   96  219 1    
   193   97   98 2    
   194   97   99 am   BACKBONE|DICT|INTERRES
   195   99  100 1    
   196   99  220 1    
   197  100  101 1    
   198  100  102 1    
   199  100  221 1    
   200  101  222 1    
   201  101  223 1    
   202  101  224 1    
   203  102  103 2    
   204  102  104 am   BACKBONE|DICT|INTERRES
   205  104  105 1    
   206  104  225 1    
   207  105  106 1    
   208  105  107 1    
   209  105  226 1    
   210  106  227 1    
   211  106  228 1    
   212  106  229 1    
   213  107  108 2    
   214  107  109 am   BACKBONE|DICT|INTERRES
   215  109  110 1    
   216  109  230 1    
   217  110  111 1    
   218  110  112 1    
   219  110  231 1    
   220  111  232 1    
   221  111  233 1    
   222  111  234 1    
   223  112  113 2    
   224  112  114 am   BACKBONE|DICT|INTERRES
   225  114  115 1    
   226  114  235 1    
   227  115  116 1    
   228  115  117 1    
   229  115  236 1    
   230  116  237 1    
   231  116  238 1    
   232  116  239 1    
   233  117  118 2    
   234  117  119 am   BACKBONE|DICT|INTERRES
   235  119  120 1    
   236  119  240 1    
   237  120  121 1    
   238  120  124 1    
   239  120  241 1    
   240  121  122 am   BACKBONE|DICT|INTERRES
   241  121  123 2    
   242  122  242 1    
   243  122  243 1    
   244  124  125 1    
   245  124  244 1    
   246  124  245 1    
   247  125  126 1    
   248  126  246 1    
   249  126  247 1    
@<TRIPOS>SUBSTRUCTURE
     1 UNK         1 GROUP             0       ****    0 ROOT    
