@<TRIPOS>MOLECULE
3R540
247   249    1
SMALL
USER_CHARGES


@<TRIPOS>ATOM
      1 CA         -0.8547  -17.7969  -49.7081 C.3       0 UNK        -0.1800 
      2 C          -1.1168  -16.3326  -50.0255 C.2       0 UNK         0.5000 
      3 O          -2.2685  -15.9046  -50.0651 O.2       0 UNK        -0.5000 
      4 N          -0.0447  -15.5676  -50.2536 N.am      1 UNK        -0.5000 
      5 CA         -0.0662  -14.1491  -50.6271 C.3       1 UNK         0.1400 
      6 C6          1.2906  -13.6882  -51.2186 C.3       23 UNK        -0.0398 
      7 S7          2.7533  -14.1689  -50.2261 S.3       23 UNK        -0.2404 
      8 C8          3.6340  -15.2943  -51.3599 C.3       23 UNK        -0.0205 
      9 C9          3.0629  -16.7066  -51.3502 C.ar      23 UNK        -0.0193 
     10 C10         2.0183  -17.0571  -52.2116 C.ar      23 UNK        -0.1150 
     11 C11         1.5083  -18.3586  -52.2186 C.ar      23 UNK        -0.0193 
     12 C12         2.0700  -19.3204  -51.3764 C.ar      23 UNK        -0.1150 
     13 C13         3.0987  -18.9803  -50.4938 C.ar      23 UNK        -0.0193 
     14 C14         3.5928  -17.6722  -50.4878 C.ar      23 UNK        -0.1150 
     15 C15         3.6736  -20.0265  -49.5480 C.3       23 UNK        -0.0205 
     16 S16         3.0188  -19.8681  -47.8533 S.3       23 UNK        -0.2404 
     17 C17         1.2747  -20.3605  -48.0535 C.3       23 UNK        -0.0398 
     18 CA          0.9872  -21.8210  -47.6305 C.3       11 UNK         0.1400 
     19 N           1.3196  -22.0886  -46.2274 N.am      11 UNK        -0.5000 
     20 C           1.5777  -23.3044  -45.7274 C.2       10 UNK         0.5000 
     21 O           1.6481  -24.3246  -46.4158 O.2       10 UNK        -0.5000 
     22 CA          1.7975  -23.3737  -44.2015 C.3       10 UNK         0.1400 
     23 CB          2.2857  -24.7520  -43.7078 C.3       10 UNK        -0.1800 
     24 N           2.6627  -22.2905  -43.7211 N.am      10 UNK        -0.5000 
     25 C           3.9556  -22.0857  -44.0114 C.2       9 UNK         0.5000 
     26 O           4.6446  -22.8665  -44.6691 O.2       9 UNK        -0.5000 
     27 CA          4.5969  -20.7810  -43.4988 C.3       9 UNK         0.1400 
     28 CB          4.8318  -19.8037  -44.6600 C.3       9 UNK        -0.1800 
     29 N           3.8161  -20.0914  -42.4699 N.am      9 UNK        -0.5000 
     30 C           3.8143  -20.4096  -41.1693 C.2       8 UNK         0.5000 
     31 O           4.4126  -21.3784  -40.7003 O.2       8 UNK        -0.5000 
     32 CA          3.0188  -19.4805  -40.2364 C.3       8 UNK         0.1400 
     33 CB          3.7821  -18.1692  -39.9897 C.3       8 UNK        -0.1800 
     34 N           1.6972  -19.1729  -40.7786 N.am      8 UNK        -0.5000 
     35 C           0.6135  -19.9415  -40.6076 C.2       7 UNK         0.5000 
     36 O           0.6083  -20.9779  -39.9426 O.2       7 UNK        -0.5000 
     37 CA         -0.6862  -19.4829  -41.2983 C.3       7 UNK         0.1400 
     38 CB         -1.5070  -18.5857  -40.3602 C.3       7 UNK        -0.1800 
     39 N          -0.4594  -18.7743  -42.5577 N.am      7 UNK        -0.5000 
     40 C           0.0915  -19.3231  -43.6475 C.2       6 UNK         0.5000 
     41 O           0.4395  -20.4987  -43.7266 O.2       6 UNK        -0.5000 
     42 CA          0.3308  -18.4013  -44.8482 C.3       6 UNK         0.1400 
     43 CB         -0.9442  -18.3033  -45.6962 C.3       6 UNK        -0.1800 
     44 N           0.7894  -17.0636  -44.4825 N.am      6 UNK        -0.5000 
     45 C           1.9136  -16.7924  -43.8040 C.2       5 UNK         0.5000 
     46 O           2.6761  -17.6525  -43.3648 O.2       5 UNK        -0.5000 
     47 CA          2.2069  -15.3102  -43.5300 C.3       5 UNK         0.1400 
     48 CB          2.7421  -14.6135  -44.7906 C.3       5 UNK        -0.1800 
     49 N           1.0116  -14.6214  -43.0490 N.am      5 UNK        -0.5000 
     50 C           0.4897  -14.7889  -41.8254 C.2       4 UNK         0.5000 
     51 O           1.0089  -15.4755  -40.9449 O.2       4 UNK        -0.5000 
     52 CA         -0.8584  -14.0967  -41.5543 C.3       4 UNK         0.1400 
     53 CB         -0.6407  -12.6495  -41.0878 C.3       4 UNK        -0.1800 
     54 N          -1.7412  -14.1012  -42.7228 N.am      4 UNK        -0.5000 
     55 C          -2.2876  -15.2039  -43.2544 C.2       3 UNK         0.5000 
     56 O          -2.1132  -16.3382  -42.8095 O.2       3 UNK        -0.5000 
     57 CA         -3.1385  -15.0063  -44.5222 C.3       3 UNK         0.1400 
     58 CB         -4.5812  -14.6315  -44.1527 C.3       3 UNK        -0.1800 
     59 N          -2.5932  -14.0029  -45.4425 N.am      3 UNK        -0.5000 
     60 C          -1.4183  -14.1186  -46.0741 C.2       2 UNK         0.5000 
     61 O          -0.6296  -15.0476  -45.8900 O.2       2 UNK        -0.5000 
     62 CA         -1.0464  -13.0161  -47.0689 C.3       2 UNK         0.1400 
     63 CB         -0.0337  -12.0333  -46.4587 C.3       2 UNK        -0.1800 
     64 N          -0.4757  -13.6659  -48.2416 N.am      2 UNK        -0.5000 
     65 C          -0.5559  -13.2133  -49.4976 C.2       1 UNK         0.5000 
     66 O          -1.0215  -12.1109  -49.7916 O.2       1 UNK        -0.5000 
     67 C          -0.4877  -22.1737  -47.9154 C.2       11 UNK         0.5000 
     68 O          -1.2864  -22.3186  -46.9853 O.2       11 UNK        -0.5000 
     69 N          -0.8264  -22.2660  -49.2090 N.am      12 UNK        -0.5000 
     70 CA         -2.1166  -22.6996  -49.7541 C.3       12 UNK         0.1400 
     71 CB         -2.0840  -22.5382  -51.2807 C.3       12 UNK        -0.1800 
     72 C          -3.3630  -22.0141  -49.1598 C.2       12 UNK         0.5000 
     73 O          -4.3713  -22.6884  -48.9565 O.2       12 UNK        -0.5000 
     74 N          -3.2739  -20.7174  -48.8275 N.am      13 UNK        -0.5000 
     75 CA         -4.3699  -19.9648  -48.2016 C.3       13 UNK         0.1400 
     76 CB         -4.0279  -18.4702  -48.1569 C.3       13 UNK        -0.1800 
     77 C          -4.7581  -20.4684  -46.7966 C.2       13 UNK         0.5000 
     78 O          -5.8947  -20.2480  -46.3797 O.2       13 UNK        -0.5000 
     79 N          -3.8292  -21.1455  -46.1095 N.am      14 UNK        -0.5000 
     80 CA         -4.0676  -21.8187  -44.8361 C.3       14 UNK         0.1400 
     81 CB         -2.9058  -21.5110  -43.8783 C.3       14 UNK        -0.1800 
     82 C          -4.2159  -23.3356  -45.0419 C.2       14 UNK         0.5000 
     83 O          -5.1264  -23.9373  -44.4729 O.2       14 UNK        -0.5000 
     84 N          -3.3191  -23.9276  -45.8435 N.am      15 UNK        -0.5000 
     85 CA         -3.2005  -25.3742  -46.0333 C.3       15 UNK         0.1400 
     86 CB         -1.8310  -25.6866  -46.6555 C.3       15 UNK        -0.1800 
     87 C          -4.3311  -25.9976  -46.8728 C.2       15 UNK         0.5000 
     88 O          -4.7697  -27.1051  -46.5598 O.2       15 UNK        -0.5000 
     89 N          -4.7738  -25.2899  -47.9190 N.am      16 UNK        -0.5000 
     90 CA         -5.8191  -25.7231  -48.8520 C.3       16 UNK         0.1400 
     91 CB         -5.2400  -25.7088  -50.2779 C.3       16 UNK        -0.1800 
     92 C          -7.0758  -24.8351  -48.7676 C.2       16 UNK         0.5000 
     93 O          -8.0578  -25.1187  -49.4544 O.2       16 UNK        -0.5000 
     94 N          -7.0208  -23.7796  -47.9411 N.am      17 UNK        -0.5000 
     95 CA         -8.0457  -22.7547  -47.7164 C.3       17 UNK         0.1400 
     96 CB         -9.3293  -23.3741  -47.1241 C.3       17 UNK        -0.1800 
     97 C          -8.3251  -21.8616  -48.9471 C.2       17 UNK         0.5000 
     98 O          -9.3806  -21.2283  -49.0083 O.2       17 UNK        -0.5000 
     99 N          -7.3821  -21.8003  -49.8961 N.am      18 UNK        -0.5000 
    100 CA        -7.4618  -20.9930  -51.1101 C.3       18 UNK         0.1400 
    101 CB        -8.3430  -21.6884  -52.1634 C.3       18 UNK        -0.1800 
    102 C         -6.0400  -20.7798  -51.6370 C.2       18 UNK         0.5000 
    103 O         -5.3033  -21.7547  -51.7778 O.2       18 UNK        -0.5000 
    104 N         -5.6753  -19.5197  -51.9071 N.am      19 UNK        -0.5000 
    105 CA        -4.3227  -19.1070  -52.2995 C.3       19 UNK         0.1400 
    106 CB        -4.2398  -17.5739  -52.2637 C.3       19 UNK        -0.1800 
    107 C         -3.8624  -19.6246  -53.6761 C.2       19 UNK         0.5000 
    108 O         -2.6579  -19.7253  -53.9013 O.2       19 UNK        -0.5000 
    109 N         -4.8188  -19.9329  -54.5638 N.am      20 UNK        -0.5000 
    110 CA        -4.6188  -20.3843  -55.9442 C.3       20 UNK         0.1400 
    111 CB        -3.9365  -21.7716  -55.9750 C.3       20 UNK        -0.1800 
    112 C         -3.9171  -19.3138  -56.8119 C.2       20 UNK         0.5000 
    113 O         -4.1461  -18.1194  -56.6036 O.2       20 UNK        -0.5000 
    114 N         -3.1035  -19.7474  -57.7853 N.am      21 UNK        -0.5000 
    115 CA        -2.4559  -18.9059  -58.7984 C.3       21 UNK         0.1400 
    116 CB        -1.7026  -19.8080  -59.7881 C.3       21 UNK        -0.1800 
    117 C         -1.5149  -17.8210  -58.2376 C.2       21 UNK         0.5000 
    118 O         -1.3894  -16.7589  -58.8489 O.2       21 UNK        -0.5000 
    119 N         -0.8875  -18.0978  -57.0890 N.am      22 UNK        -0.5000 
    120 CA        -0.0577  -17.1478  -56.3315 C.3       22 UNK         0.1400 
    121 C         -0.8576  -16.2203  -55.3670 C.2       22 UNK         0.5000 
    122 N         -2.1787  -16.3207  -55.2714 N.am      22 UNK        -0.7600 
    123 O         -0.2678  -15.3744  -54.7004 O.2       22 UNK        -0.5000 
    124 C124        1.1525  -17.8428  -55.6456 C.3       23 UNK        -0.0398 
    125 S125        0.7540  -19.3628  -54.7123 S.3       23 UNK        -0.2404 
    126 C126        0.3028  -18.7170  -53.0732 C.3       23 UNK        -0.0205 
    127 H127        0.2129  -18.0019  -49.6464 H         1 UNK         0.0600 
    128 H128       -1.2967  -18.0631  -48.7528 H         1 UNK         0.0600 
    129 H129       -1.2883  -18.4335  -50.4788 H         1 UNK         0.0600 
    130 H130        0.8791  -15.9761  -50.2048 H         1 UNK         0.3000 
    131 H131       -0.8049  -14.0501  -51.4259 H         1 UNK         0.0600 
    132 H132        1.3077  -12.6053  -51.3544 H         1 UNK         0.0800 
    133 H133        1.3911  -14.0935  -52.2253 H         1 UNK         0.0800 
    134 H134        4.6836  -15.3261  -51.0636 H         1 UNK         0.0800 
    135 H135        3.6261  -14.8883  -52.3726 H         1 UNK         0.0800 
    136 H136        1.5855  -16.3117  -52.8626 H         1 UNK         0.1150 
    137 H137        1.6815  -20.3288  -51.3877 H         1 UNK         0.1150 
    138 H138        4.3921  -17.4070  -49.8097 H         1 UNK         0.1150 
    139 H139        3.4787  -21.0336  -49.9197 H         1 UNK         0.0800 
    140 H140        4.7589  -19.9219  -49.5141 H         1 UNK         0.0800 
    141 H141        0.9887  -20.2066  -49.0913 H         1 UNK         0.0800 
    142 H142        0.6596  -19.6665  -47.4868 H         1 UNK         0.0800 
    143 H143        1.6023  -22.4732  -48.2545 H         1 UNK         0.0600 
    144 H144        1.2160  -21.3249  -45.5727 H         1 UNK         0.3000 
    145 H145        0.8190  -23.2009  -43.7510 H         1 UNK         0.0600 
    146 H146        2.4234  -24.7566  -42.6266 H         1 UNK         0.0600 
    147 H147        1.5577  -25.5284  -43.9456 H         1 UNK         0.0600 
    148 H148        3.2302  -25.0414  -44.1685 H         1 UNK         0.0600 
    149 H149        2.1721  -21.5492  -43.2343 H         1 UNK         0.3000 
    150 H150        5.5706  -21.0447  -43.0807 H         1 UNK         0.0600 
    151 H151        5.4004  -20.2708  -45.4652 H         1 UNK         0.0600 
    152 H152        5.3915  -18.9281  -44.3309 H         1 UNK         0.0600 
    153 H153        3.8886  -19.4554  -45.0804 H         1 UNK         0.0600 
    154 H154        3.3213  -19.2534  -42.7699 H         1 UNK         0.3000 
    155 H155        2.9067  -19.9850  -39.2742 H         1 UNK         0.0600 
    156 H156        4.7691  -18.3654  -39.5693 H         1 UNK         0.0600 
    157 H157        3.2486  -17.5313  -39.2846 H         1 UNK         0.0600 
    158 H158        3.9238  -17.6009  -40.9096 H         1 UNK         0.0600 
    159 H159        1.6248  -18.3526  -41.3657 H         1 UNK         0.3000 
    160 H160       -1.2734  -20.3767  -41.5179 H         1 UNK         0.0600 
    161 H161       -0.9882  -17.6504  -40.1451 H         1 UNK         0.0600 
    162 H162       -1.7000  -19.0836  -39.4092 H         1 UNK         0.0600 
    163 H163       -2.4736  -18.3380  -40.7995 H         1 UNK         0.0600 
    164 H164       -0.7814  -17.8122  -42.6052 H         1 UNK         0.3000 
    165 H165        1.1242  -18.8488  -45.4473 H         1 UNK         0.0600 
    166 H166       -1.2617  -19.2865  -46.0461 H         1 UNK         0.0600 
    167 H167       -0.7836  -17.6733  -46.5692 H         1 UNK         0.0600 
    168 H168       -1.7716  -17.8801  -45.1276 H         1 UNK         0.0600 
    169 H169        0.2351  -16.2883  -44.8385 H         1 UNK         0.3000 
    170 H170        2.9771  -15.2538  -42.7576 H         1 UNK         0.0600 
    171 H171        2.9665  -13.5645  -44.5970 H         1 UNK         0.0600 
    172 H172        3.6642  -15.0858  -45.1314 H         1 UNK         0.0600 
    173 H173        2.0308  -14.6582  -45.6155 H         1 UNK         0.0600 
    174 H174        0.4966  -14.0767  -43.7242 H         1 UNK         0.3000 
    175 H175       -1.3565  -14.6443  -40.7512 H         1 UNK         0.0600 
    176 H176        0.0000  -12.6165  -40.2055 H         1 UNK         0.0600 
    177 H177       -0.1670  -12.0428  -41.8605 H         1 UNK         0.0600 
    178 H178       -1.5850  -12.1753  -40.8197 H         1 UNK         0.0600 
    179 H179       -1.9359  -13.2100  -43.1546 H         1 UNK         0.3000 
    180 H180       -3.1661  -15.9603  -45.0519 H         1 UNK         0.0600 
    181 H181       -5.0174  -15.3733  -43.4822 H         1 UNK         0.0600 
    182 H182       -4.6317  -13.6647  -43.6504 H         1 UNK         0.0600 
    183 H183       -5.2153  -14.5842  -45.0382 H         1 UNK         0.0600 
    184 H184       -3.1823  -13.2068  -45.6400 H         1 UNK         0.3000 
    185 H185       -1.9530  -12.4766  -47.3515 H         1 UNK         0.0600 
    186 H186       -0.4359  -11.5633  -45.5605 H         1 UNK         0.0600 
    187 H187        0.8961  -12.5315  -46.1832 H         1 UNK         0.0600 
    188 H188        0.2120  -11.2362  -47.1605 H         1 UNK         0.0600 
    189 H189       -0.1083  -14.5934  -48.0728 H         1 UNK         0.3000 
    190 H190       -0.1029  -22.1296  -49.8993 H         1 UNK         0.3000 
    191 H191       -2.2078  -23.7649  -49.5353 H         1 UNK         0.0600 
    192 H192       -1.2413  -23.0724  -51.7196 H         1 UNK         0.0600 
    193 H193       -2.0082  -21.4911  -51.5762 H         1 UNK         0.0600 
    194 H194       -2.9874  -22.9450  -51.7355 H         1 UNK         0.0600 
    195 H195       -2.4080  -20.2295  -48.9925 H         1 UNK         0.3000 
    196 H196       -5.2505  -20.0820  -48.8348 H         1 UNK         0.0600 
    197 H197       -4.8798  -17.8886  -47.8025 H         1 UNK         0.0600 
    198 H198       -3.7725  -18.0923  -49.1458 H         1 UNK         0.0600 
    199 H199       -3.1977  -18.2652  -47.4827 H         1 UNK         0.0600 
    200 H200       -2.9285  -21.3182  -46.5427 H         1 UNK         0.3000 
    201 H201       -4.9865  -21.4523  -44.3735 H         1 UNK         0.0600 
    202 H202       -3.0493  -22.0040  -42.9162 H         1 UNK         0.0600 
    203 H203       -1.9482  -21.8454  -44.2796 H         1 UNK         0.0600 
    204 H204       -2.8318  -20.4405  -43.6872 H         1 UNK         0.0600 
    205 H205       -2.5866  -23.3581  -46.2607 H         1 UNK         0.3000 
    206 H206       -3.2313  -25.8432  -45.0474 H         1 UNK         0.0600 
    207 H207       -1.0200  -25.3290  -46.0209 H         1 UNK         0.0600 
    208 H208       -1.6938  -26.7611  -46.7825 H         1 UNK         0.0600 
    209 H209       -1.7166  -25.2226  -47.6351 H         1 UNK         0.0600 
    210 H210       -4.3798  -24.3730  -48.1088 H         1 UNK         0.3000 
    211 H211       -6.1375  -26.7426  -48.6267 H         1 UNK         0.0600 
    212 H212       -5.9646  -26.0903  -50.9983 H         1 UNK         0.0600 
    213 H213       -4.3518  -26.3366  -50.3488 H         1 UNK         0.0600 
    214 H214       -4.9653  -24.7023  -50.5953 H         1 UNK         0.0600 
    215 H215       -6.1506  -23.6344  -47.4502 H         1 UNK         0.3000 
    216 H216       -7.6363  -22.0913  -46.9557 H         1 UNK         0.0600 
    217 H217      -10.0190  -22.5987  -46.7891 H         1 UNK         0.0600 
    218 H218       -9.1034  -23.9989  -46.2600 H         1 UNK         0.0600 
    219 H219       -9.8597  -23.9868  -47.8534 H         1 UNK         0.0600 
    220 H220       -6.5186  -22.3205  -49.7788 H         1 UNK         0.3000 
    221 H221       -7.8967  -20.0217  -50.8647 H         1 UNK         0.0600 
    222 H222       -7.9646  -22.6817  -52.4084 H         1 UNK         0.0600 
    223 H223       -9.3690  -21.7998  -51.8127 H         1 UNK         0.0600 
    224 H224       -8.3773  -21.1108  -53.0879 H         1 UNK         0.0600 
    225 H225       -6.3477  -18.7765  -51.7821 H         1 UNK         0.3000 
    226 H226       -3.6271  -19.5013  -51.5560 H         1 UNK         0.0600 
    227 H227       -3.2268  -17.2339  -52.4843 H         1 UNK         0.0600 
    228 H228       -4.9053  -17.1178  -52.9976 H         1 UNK         0.0600 
    229 H229       -4.5040  -17.1822  -51.2816 H         1 UNK         0.0600 
    230 H230       -5.7772  -19.7813  -54.2865 H         1 UNK         0.3000 
    231 H231       -5.6174  -20.5023  -56.3668 H         1 UNK         0.0600 
    232 H232       -4.4368  -22.4663  -55.3000 H         1 UNK         0.0600 
    233 H233       -2.8888  -21.7198  -55.6761 H         1 UNK         0.0600 
    234 H234       -3.9777  -22.2135  -56.9710 H         1 UNK         0.0600 
    235 H235       -2.9592  -20.7425  -57.8761 H         1 UNK         0.3000 
    236 H236       -3.2483  -18.3909  -59.3453 H         1 UNK         0.0600 
    237 H237       -2.3780  -20.5112  -60.2757 H         1 UNK         0.0600 
    238 H238       -1.2292  -19.2175  -60.5738 H         1 UNK         0.0600 
    239 H239       -0.9190  -20.3820  -59.2919 H         1 UNK         0.0600 
    240 H240       -1.0628  -18.9834  -56.6353 H         1 UNK         0.3000 
    241 H241        0.3794  -16.4522  -57.0503 H         1 UNK         0.0600 
    242 H242       -2.6705  -15.6959  -54.6546 H         1 UNK         0.3800 
    243 H243       -2.7015  -17.0001  -55.8138 H         1 UNK         0.3800 
    244 H244        1.7094  -17.1491  -55.0166 H         1 UNK         0.0800 
    245 H245        1.8591  -18.1393  -56.4216 H         1 UNK         0.0800 
    246 H246       -0.2826  -19.4835  -52.5636 H         1 UNK         0.0800 
    247 H247       -0.3649  -17.8614  -53.1672 H         1 UNK         0.0800 
@<TRIPOS>BOND
     1    1    2 1    
     2    1  127 1    
     3    1  128 1    
     4    1  129 1    
     5    2    3 2    
     6    2    4 am   BACKBONE|DICT|INTERRES
     7    4    5 1    
     8    4  130 1    
     9    5    6 1    
    10    5   65 1    
    11    5  131 1    
    12    6    7 1    
    13    6  132 1    
    14    6  133 1    
    15    7    8 1    
    16    8    9 1    
    17    8  134 1    
    18    8  135 1    
    19    9   10 ar   
    20    9   14 ar   
    21   10   11 ar   
    22   10  136 1    
    23   11   12 ar   
    24   11  126 1    
    25   12   13 ar   
    26   12  137 1    
    27   13   14 ar   
    28   13   15 1    
    29   14  138 1    
    30   15   16 1    
    31   15  139 1    
    32   15  140 1    
    33   16   17 1    
    34   17   18 1    
    35   17  141 1    
    36   17  142 1    
    37   18   19 1    
    38   18   67 1    
    39   18  143 1    
    40   19   20 am   BACKBONE|DICT|INTERRES
    41   19  144 1    
    42   20   21 2    
    43   20   22 1    
    44   22   23 1    
    45   22   24 1    
    46   22  145 1    
    47   23  146 1    
    48   23  147 1    
    49   23  148 1    
    50   24   25 am   BACKBONE|DICT|INTERRES
    51   24  149 1    
    52   25   26 2    
    53   25   27 1    
    54   27   28 1    
    55   27   29 1    
    56   27  150 1    
    57   28  151 1    
    58   28  152 1    
    59   28  153 1    
    60   29   30 am   BACKBONE|DICT|INTERRES
    61   29  154 1    
    62   30   31 2    
    63   30   32 1    
    64   32   33 1    
    65   32   34 1    
    66   32  155 1    
    67   33  156 1    
    68   33  157 1    
    69   33  158 1    
    70   34   35 am   BACKBONE|DICT|INTERRES
    71   34  159 1    
    72   35   36 2    
    73   35   37 1    
    74   37   38 1    
    75   37   39 1    
    76   37  160 1    
    77   38  161 1    
    78   38  162 1    
    79   38  163 1    
    80   39   40 am   BACKBONE|DICT|INTERRES
    81   39  164 1    
    82   40   41 2    
    83   40   42 1    
    84   42   43 1    
    85   42   44 1    
    86   42  165 1    
    87   43  166 1    
    88   43  167 1    
    89   43  168 1    
    90   44   45 am   BACKBONE|DICT|INTERRES
    91   44  169 1    
    92   45   46 2    
    93   45   47 1    
    94   47   48 1    
    95   47   49 1    
    96   47  170 1    
    97   48  171 1    
    98   48  172 1    
    99   48  173 1    
   100   49   50 am   BACKBONE|DICT|INTERRES
   101   49  174 1    
   102   50   51 2    
   103   50   52 1    
   104   52   53 1    
   105   52   54 1    
   106   52  175 1    
   107   53  176 1    
   108   53  177 1    
   109   53  178 1    
   110   54   55 am   BACKBONE|DICT|INTERRES
   111   54  179 1    
   112   55   56 2    
   113   55   57 1    
   114   57   58 1    
   115   57   59 1    
   116   57  180 1    
   117   58  181 1    
   118   58  182 1    
   119   58  183 1    
   120   59   60 am   BACKBONE|DICT|INTERRES
   121   59  184 1    
   122   60   61 2    
   123   60   62 1    
   124   62   63 1    
   125   62   64 1    
   126   62  185 1    
   127   63  186 1    
   128   63  187 1    
   129   63  188 1    
   130   64   65 am   BACKBONE|DICT|INTERRES
   131   64  189 1    
   132   65   66 2    
   133   67   68 2    
   134   67   69 am   BACKBONE|DICT|INTERRES
   135   69   70 1    
   136   69  190 1    
   137   70   71 1    
   138   70   72 1    
   139   70  191 1    
   140   71  192 1    
   141   71  193 1    
   142   71  194 1    
   143   72   73 2    
   144   72   74 am   BACKBONE|DICT|INTERRES
   145   74   75 1    
   146   74  195 1    
   147   75   76 1    
   148   75   77 1    
   149   75  196 1    
   150   76  197 1    
   151   76  198 1    
   152   76  199 1    
   153   77   78 2    
   154   77   79 am   BACKBONE|DICT|INTERRES
   155   79   80 1    
   156   79  200 1    
   157   80   81 1    
   158   80   82 1    
   159   80  201 1    
   160   81  202 1    
   161   81  203 1    
   162   81  204 1    
   163   82   83 2    
   164   82   84 am   BACKBONE|DICT|INTERRES
   165   84   85 1    
   166   84  205 1    
   167   85   86 1    
   168   85   87 1    
   169   85  206 1    
   170   86  207 1    
   171   86  208 1    
   172   86  209 1    
   173   87   88 2    
   174   87   89 am   BACKBONE|DICT|INTERRES
   175   89   90 1    
   176   89  210 1    
   177   90   91 1    
   178   90   92 1    
   179   90  211 1    
   180   91  212 1    
   181   91  213 1    
   182   91  214 1    
   183   92   93 2    
   184   92   94 am   BACKBONE|DICT|INTERRES
   185   94   95 1    
   186   94  215 1    
   187   95   96 1    
   188   95   97 1    
   189   95  216 1    
   190   96  217 1    
   191   96  218 1    
   192   96  219 1    
   193   97   98 2    
   194   97   99 am   BACKBONE|DICT|INTERRES
   195   99  100 1    
   196   99  220 1    
   197  100  101 1    
   198  100  102 1    
   199  100  221 1    
   200  101  222 1    
   201  101  223 1    
   202  101  224 1    
   203  102  103 2    
   204  102  104 am   BACKBONE|DICT|INTERRES
   205  104  105 1    
   206  104  225 1    
   207  105  106 1    
   208  105  107 1    
   209  105  226 1    
   210  106  227 1    
   211  106  228 1    
   212  106  229 1    
   213  107  108 2    
   214  107  109 am   BACKBONE|DICT|INTERRES
   215  109  110 1    
   216  109  230 1    
   217  110  111 1    
   218  110  112 1    
   219  110  231 1    
   220  111  232 1    
   221  111  233 1    
   222  111  234 1    
   223  112  113 2    
   224  112  114 am   BACKBONE|DICT|INTERRES
   225  114  115 1    
   226  114  235 1    
   227  115  116 1    
   228  115  117 1    
   229  115  236 1    
   230  116  237 1    
   231  116  238 1    
   232  116  239 1    
   233  117  118 2    
   234  117  119 am   BACKBONE|DICT|INTERRES
   235  119  120 1    
   236  119  240 1    
   237  120  121 1    
   238  120  124 1    
   239  120  241 1    
   240  121  122 am   BACKBONE|DICT|INTERRES
   241  121  123 2    
   242  122  242 1    
   243  122  243 1    
   244  124  125 1    
   245  124  244 1    
   246  124  245 1    
   247  125  126 1    
   248  126  246 1    
   249  126  247 1    
@<TRIPOS>SUBSTRUCTURE
     1 UNK         1 GROUP             0       ****    0 ROOT    
