@<TRIPOS>MOLECULE
3R540
247   249    1
SMALL
USER_CHARGES


@<TRIPOS>ATOM
      1 CA          3.6484  -15.1673  -48.1788 C.3       0 UNK        -0.1800 
      2 C           2.2801  -14.8493  -48.7644 C.2       0 UNK         0.5000 
      3 O           2.1687  -13.9699  -49.6173 O.2       0 UNK        -0.5000 
      4 N           1.2425  -15.5563  -48.2954 N.am      1 UNK        -0.5000 
      5 CA         -0.1604  -15.4733  -48.7397 C.3       1 UNK         0.1400 
      6 C6         -0.3619  -15.8136  -50.2415 C.3       23 UNK        -0.0398 
      7 S7          0.0551  -17.5561  -50.5627 S.3       23 UNK        -0.2404 
      8 C8          1.3065  -17.4367  -51.8715 C.3       23 UNK        -0.0205 
      9 C9          1.8404  -18.8178  -52.2226 C.ar      23 UNK        -0.0193 
     10 C10         1.0983  -19.6714  -53.0472 C.ar      23 UNK        -0.1150 
     11 C11         1.5670  -20.9550  -53.3444 C.ar      23 UNK        -0.0193 
     12 C12         2.8062  -21.3636  -52.8456 C.ar      23 UNK        -0.1150 
     13 C13         3.5577  -20.5226  -52.0210 C.ar      23 UNK        -0.0193 
     14 C14         3.0672  -19.2510  -51.7085 C.ar      23 UNK        -0.1150 
     15 C15         4.9081  -20.9864  -51.4937 C.3       23 UNK        -0.0205 
     16 S16         4.7791  -22.4660  -50.4364 S.3       23 UNK        -0.2404 
     17 C17         4.1343  -21.7751  -48.8779 C.3       23 UNK        -0.0398 
     18 CA          2.8955  -22.5540  -48.3475 C.3       11 UNK         0.1400 
     19 N           3.0709  -22.9684  -46.9510 N.am      11 UNK        -0.5000 
     20 C           2.2495  -23.7909  -46.2824 C.2       10 UNK         0.5000 
     21 O           1.2696  -24.3390  -46.7865 O.2       10 UNK        -0.5000 
     22 CA          2.5514  -23.9999  -44.7860 C.3       10 UNK         0.1400 
     23 CB          3.4829  -25.2048  -44.5891 C.3       10 UNK        -0.1800 
     24 N           3.1394  -22.8216  -44.1408 N.am      10 UNK        -0.5000 
     25 C           2.5172  -21.6453  -43.9863 C.2       9 UNK         0.5000 
     26 O           1.3789  -21.4125  -44.3972 O.2       9 UNK        -0.5000 
     27 CA          3.3263  -20.5272  -43.3167 C.3       9 UNK         0.1400 
     28 CB          3.7033  -19.4437  -44.3400 C.3       9 UNK        -0.1800 
     29 N           2.5581  -19.9148  -42.2376 N.am      9 UNK        -0.5000 
     30 C           2.6322  -20.2839  -40.9533 C.2       8 UNK         0.5000 
     31 O           3.3151  -21.2279  -40.5527 O.2       8 UNK        -0.5000 
     32 CA          1.8337  -19.4499  -39.9402 C.3       8 UNK         0.1400 
     33 CB          2.4265  -18.0362  -39.8109 C.3       8 UNK        -0.1800 
     34 N           0.4257  -19.3415  -40.3157 N.am      8 UNK        -0.5000 
     35 C          -0.5922  -19.8908  -39.6367 C.2       7 UNK         0.5000 
     36 O          -0.4412  -20.6189  -38.6545 O.2       7 UNK        -0.5000 
     37 CA         -2.0263  -19.5602  -40.1002 C.3       7 UNK         0.1400 
     38 CB         -2.7143  -18.6229  -39.0947 C.3       7 UNK        -0.1800 
     39 N          -2.0572  -18.9425  -41.4262 N.am      7 UNK        -0.5000 
     40 C          -2.0555  -19.6411  -42.5698 C.2       6 UNK         0.5000 
     41 O          -2.1510  -20.8670  -42.6086 O.2       6 UNK        -0.5000 
     42 CA         -1.9035  -18.8648  -43.8924 C.3       6 UNK         0.1400 
     43 CB         -3.2215  -18.8455  -44.6785 C.3       6 UNK        -0.1800 
     44 N          -1.4129  -17.4912  -43.7488 N.am      6 UNK        -0.5000 
     45 C          -0.1911  -17.1514  -43.3097 C.2       5 UNK         0.5000 
     46 O           0.6722  -17.9730  -43.0044 O.2       5 UNK        -0.5000 
     47 CA          0.1025  -15.6488  -43.1202 C.3       5 UNK         0.1400 
     48 CB          0.7310  -15.0774  -44.3997 C.3       5 UNK        -0.1800 
     49 N          -1.0766  -14.8521  -42.7665 N.am      5 UNK        -0.5000 
     50 C          -1.9165  -15.1068  -41.7506 C.2       4 UNK         0.5000 
     51 O          -1.7237  -15.9946  -40.9202 O.2       4 UNK        -0.5000 
     52 CA         -3.2202  -14.2865  -41.6761 C.3       4 UNK         0.1400 
     53 CB         -3.1321  -13.2419  -40.5536 C.3       4 UNK        -0.1800 
     54 N          -3.5949  -13.6114  -42.9219 N.am      4 UNK        -0.5000 
     55 C          -3.8065  -14.1840  -44.1162 C.2       3 UNK         0.5000 
     56 O          -3.7063  -15.3942  -44.3249 O.2       3 UNK        -0.5000 
     57 CA         -4.1358  -13.2355  -45.2875 C.3       3 UNK         0.1400 
     58 CB         -4.8104  -11.9196  -44.8416 C.3       3 UNK        -0.1800 
     59 N          -2.9657  -12.9396  -46.1231 N.am      3 UNK        -0.5000 
     60 C          -1.7772  -12.4526  -45.7371 C.2       2 UNK         0.5000 
     61 O          -1.4537  -12.2704  -44.5618 O.2       2 UNK        -0.5000 
     62 CA         -0.7740  -12.1454  -46.8671 C.3       2 UNK         0.1400 
     63 CB          0.4082  -11.2837  -46.3884 C.3       2 UNK        -0.1800 
     64 N          -0.2436  -13.3732  -47.4522 N.am      2 UNK        -0.5000 
     65 C          -0.8801  -14.1718  -48.3180 C.2       1 UNK         0.5000 
     66 O          -2.0173  -13.9406  -48.7331 O.2       1 UNK        -0.5000 
     67 C           1.5908  -21.7493  -48.5203 C.2       11 UNK         0.5000 
     68 O           0.7870  -22.0548  -49.3992 O.2       11 UNK        -0.5000 
     69 N           1.3778  -20.7795  -47.6192 N.am      12 UNK        -0.5000 
     70 CA          0.1743  -19.9542  -47.5681 C.3       12 UNK         0.1400 
     71 CB          0.4350  -18.7317  -46.6798 C.3       12 UNK        -0.1800 
     72 C          -1.0701  -20.7336  -47.1074 C.2       12 UNK         0.5000 
     73 O          -2.1713  -20.4307  -47.5665 O.2       12 UNK        -0.5000 
     74 N          -0.8813  -21.7329  -46.2340 N.am      13 UNK        -0.5000 
     75 CA         -1.9277  -22.6588  -45.7984 C.3       13 UNK         0.1400 
     76 CB         -1.4136  -23.5339  -44.6453 C.3       13 UNK        -0.1800 
     77 C          -2.4440  -23.5297  -46.9584 C.2       13 UNK         0.5000 
     78 O          -3.6569  -23.6445  -47.1331 O.2       13 UNK        -0.5000 
     79 N          -1.5186  -24.0823  -47.7582 N.am      14 UNK        -0.5000 
     80 CA         -1.8134  -24.8448  -48.9760 C.3       14 UNK         0.1400 
     81 CB         -0.5228  -25.4975  -49.4938 C.3       14 UNK        -0.1800 
     82 C          -2.4600  -23.9843  -50.0778 C.2       14 UNK         0.5000 
     83 O          -3.3154  -24.4712  -50.8189 O.2       14 UNK        -0.5000 
     84 N          -2.0541  -22.7123  -50.1514 N.am      15 UNK        -0.5000 
     85 CA         -2.6107  -21.7094  -51.0537 C.3       15 UNK         0.1400 
     86 CB         -1.6782  -20.4970  -51.0622 C.3       15 UNK        -0.1800 
     87 C          -4.0273  -21.2539  -50.6689 C.2       15 UNK         0.5000 
     88 O          -4.7367  -20.7409  -51.5331 O.2       15 UNK        -0.5000 
     89 N          -4.3921  -21.4151  -49.3881 N.am      16 UNK        -0.5000 
     90 CA         -5.5590  -20.8260  -48.7261 C.3       16 UNK         0.1400 
     91 CB         -6.8738  -21.4237  -49.2679 C.3       16 UNK        -0.1800 
     92 C          -5.5003  -19.2842  -48.7808 C.2       16 UNK         0.5000 
     93 O          -6.4808  -18.6267  -49.1359 O.2       16 UNK        -0.5000 
     94 N          -4.3124  -18.7513  -48.4578 N.am      17 UNK        -0.5000 
     95 CA         -3.9064  -17.3518  -48.5688 C.3       17 UNK         0.1400 
     96 CB         -4.6507  -16.4792  -47.5328 C.3       17 UNK        -0.1800 
     97 C          -4.0153  -16.8423  -50.0223 C.2       17 UNK         0.5000 
     98 O          -3.5223  -17.5031  -50.9381 O.2       17 UNK        -0.5000 
     99 N          -4.6531  -15.6803  -50.2118 N.am      18 UNK        -0.5000 
    100 CA        -4.7884  -14.9568  -51.4783 C.3       18 UNK         0.1400 
    101 CB        -5.4125  -13.5830  -51.1856 C.3       18 UNK        -0.1800 
    102 C         -5.5761  -15.6920  -52.5842 C.2       18 UNK         0.5000 
    103 O         -5.5692  -15.2289  -53.7257 O.2       18 UNK        -0.5000 
    104 N         -6.2281  -16.8159  -52.2510 N.am      19 UNK        -0.5000 
    105 CA        -6.8878  -17.7100  -53.2042 C.3       19 UNK         0.1400 
    106 CB        -7.6934  -18.7642  -52.4324 C.3       19 UNK        -0.1800 
    107 C         -5.9067  -18.3871  -54.1844 C.2       19 UNK         0.5000 
    108 O         -6.3045  -18.6842  -55.3116 O.2       19 UNK        -0.5000 
    109 N         -4.6515  -18.5896  -53.7487 N.am      20 UNK        -0.5000 
    110 CA        -3.5253  -19.1372  -54.5134 C.3       20 UNK         0.1400 
    111 CB        -3.0598  -18.1205  -55.5760 C.3       20 UNK        -0.1800 
    112 C         -3.7995  -20.5427  -55.0936 C.2       20 UNK         0.5000 
    113 O         -3.4983  -20.7946  -56.2613 O.2       20 UNK        -0.5000 
    114 N         -4.3943  -21.4170  -54.2694 N.am      21 UNK        -0.5000 
    115 CA        -4.7821  -22.7867  -54.6069 C.3       21 UNK         0.1400 
    116 CB        -5.7075  -23.3394  -53.5066 C.3       21 UNK        -0.1800 
    117 C         -3.5661  -23.6957  -54.8815 C.2       21 UNK         0.5000 
    118 O         -3.1863  -23.8573  -56.0418 O.2       21 UNK        -0.5000 
    119 N         -2.9891  -24.2859  -53.8239 N.am      22 UNK        -0.5000 
    120 CA        -1.8201  -25.1871  -53.8722 C.3       22 UNK         0.1400 
    121 C         -2.0585  -26.5337  -54.6264 C.2       22 UNK         0.5000 
    122 N         -3.2967  -26.9760  -54.8112 N.am      22 UNK        -0.7600 
    123 O         -1.1132  -27.2108  -55.0219 O.2       22 UNK        -0.5000 
    124 C124       -0.5143  -24.4640  -54.3141 C.3       23 UNK        -0.0398 
    125 S125       -0.0024  -23.1973  -53.1084 S.3       23 UNK        -0.2404 
    126 C126        0.7370  -21.9226  -54.1754 C.3       23 UNK        -0.0205 
    127 H127        4.0751  -14.2771  -47.7167 H         1 UNK         0.0600 
    128 H128        4.3237  -15.5011  -48.9666 H         1 UNK         0.0600 
    129 H129        3.5954  -15.9509  -47.4224 H         1 UNK         0.0600 
    130 H130        1.4236  -16.2586  -47.5940 H         1 UNK         0.3000 
    131 H131       -0.6798  -16.2432  -48.1689 H         1 UNK         0.0600 
    132 H132       -1.3990  -15.6745  -50.5466 H         1 UNK         0.0800 
    133 H133        0.2246  -15.1554  -50.8827 H         1 UNK         0.0800 
    134 H134        2.1164  -16.7837  -51.5420 H         1 UNK         0.0800 
    135 H135        0.8669  -16.9724  -52.7555 H         1 UNK         0.0800 
    136 H136        0.1399  -19.3465  -53.4267 H         1 UNK         0.1150 
    137 H137        3.1748  -22.3531  -53.0778 H         1 UNK         0.1150 
    138 H138        3.6402  -18.5956  -51.0678 H         1 UNK         0.1150 
    139 H139        5.5485  -21.2229  -52.3445 H         1 UNK         0.0800 
    140 H140        5.4138  -20.1896  -50.9459 H         1 UNK         0.0800 
    141 H141        3.9319  -20.7092  -49.0022 H         1 UNK         0.0800 
    142 H142        4.9573  -21.8213  -48.1632 H         1 UNK         0.0800 
    143 H143        2.7746  -23.4741  -48.9241 H         1 UNK         0.0600 
    144 H144        3.8554  -22.5756  -46.4531 H         1 UNK         0.3000 
    145 H145        1.6068  -24.2164  -44.2841 H         1 UNK         0.0600 
    146 H146        3.6370  -25.4158  -43.5307 H         1 UNK         0.0600 
    147 H147        3.0588  -26.1035  -45.0393 H         1 UNK         0.0600 
    148 H148        4.4598  -25.0390  -45.0451 H         1 UNK         0.0600 
    149 H149        4.0747  -22.9317  -43.7755 H         1 UNK         0.3000 
    150 H150        4.2541  -20.9453  -42.9202 H         1 UNK         0.0600 
    151 H151        4.2468  -19.8694  -45.1843 H         1 UNK         0.0600 
    152 H152        4.3461  -18.6881  -43.8881 H         1 UNK         0.0600 
    153 H153        2.8246  -18.9340  -44.7338 H         1 UNK         0.0600 
    154 H154        1.9142  -19.1755  -42.5125 H         1 UNK         0.3000 
    155 H155        1.9356  -19.9364  -38.9678 H         1 UNK         0.0600 
    156 H156        2.3427  -17.4719  -40.7405 H         1 UNK         0.0600 
    157 H157        3.4836  -18.0780  -39.5452 H         1 UNK         0.0600 
    158 H158        1.9179  -17.4687  -39.0314 H         1 UNK         0.0600 
    159 H159        0.2246  -18.8042  -41.1501 H         1 UNK         0.3000 
    160 H160       -2.5901  -20.4953  -40.1209 H         1 UNK         0.0600 
    161 H161       -2.1524  -17.6995  -38.9526 H         1 UNK         0.0600 
    162 H162       -2.8057  -19.1002  -38.1183 H         1 UNK         0.0600 
    163 H163       -3.7198  -18.3586  -39.4223 H         1 UNK         0.0600 
    164 H164       -1.9757  -17.9310  -41.4525 H         1 UNK         0.3000 
    165 H165       -1.1728  -19.4242  -44.4738 H         1 UNK         0.0600 
    166 H166       -3.0645  -18.4477  -45.6801 H         1 UNK         0.0600 
    167 H167       -3.6308  -19.8495  -44.7940 H         1 UNK         0.0600 
    168 H168       -3.9777  -18.2347  -44.1841 H         1 UNK         0.0600 
    169 H169       -2.0807  -16.7537  -43.9476 H         1 UNK         0.3000 
    170 H170        0.8216  -15.5529  -42.3045 H         1 UNK         0.0600 
    171 H171        1.6397  -15.6191  -44.6661 H         1 UNK         0.0600 
    172 H172        0.0447  -15.1496  -45.2436 H         1 UNK         0.0600 
    173 H173        1.0021  -14.0291  -44.2734 H         1 UNK         0.0600 
    174 H174       -1.3023  -14.0776  -43.3805 H         1 UNK         0.3000 
    175 H175       -4.0221  -14.9860  -41.4321 H         1 UNK         0.0600 
    176 H176       -2.3648  -12.4949  -40.7610 H         1 UNK         0.0600 
    177 H177       -4.0813  -12.7224  -40.4215 H         1 UNK         0.0600 
    178 H178       -2.8852  -13.7108  -39.6000 H         1 UNK         0.0600 
    179 H179       -3.6429  -12.6038  -42.8777 H         1 UNK         0.3000 
    180 H180       -4.8488  -13.7673  -45.9185 H         1 UNK         0.0600 
    181 H181       -4.1330  -11.2728  -44.2831 H         1 UNK         0.0600 
    182 H182       -5.6797  -12.1158  -44.2123 H         1 UNK         0.0600 
    183 H183       -5.1622  -11.3544  -45.7048 H         1 UNK         0.0600 
    184 H184       -3.0706  -13.1407  -47.1116 H         1 UNK         0.3000 
    185 H185       -1.3042  -11.5832  -47.6388 H         1 UNK         0.0600 
    186 H186        1.0063  -11.7973  -45.6347 H         1 UNK         0.0600 
    187 H187        1.0667  -11.0242  -47.2176 H         1 UNK         0.0600 
    188 H188        0.0571  -10.3492  -45.9488 H         1 UNK         0.0600 
    189 H189        0.6810  -13.6464  -47.1552 H         1 UNK         0.3000 
    190 H190        2.0531  -20.6386  -46.8836 H         1 UNK         0.3000 
    191 H191       -0.0247  -19.5975  -48.5775 H         1 UNK         0.0600 
    192 H192       -0.4499  -18.0982  -46.6119 H         1 UNK         0.0600 
    193 H193        1.2475  -18.1269  -47.0795 H         1 UNK         0.0600 
    194 H194        0.7102  -19.0263  -45.6684 H         1 UNK         0.0600 
    195 H195        0.0384  -21.8538  -45.8234 H         1 UNK         0.3000 
    196 H196       -2.7613  -22.0624  -45.4228 H         1 UNK         0.0600 
    197 H197       -2.2317  -24.0992  -44.1979 H         1 UNK         0.0600 
    198 H198       -0.9646  -22.9314  -43.8558 H         1 UNK         0.0600 
    199 H199       -0.6690  -24.2542  -44.9805 H         1 UNK         0.0600 
    200 H200       -0.5370  -23.9702  -47.5208 H         1 UNK         0.3000 
    201 H201       -2.5188  -25.6365  -48.7159 H         1 UNK         0.0600 
    202 H202       -0.0863  -26.1577  -48.7442 H         1 UNK         0.0600 
    203 H203        0.2272  -24.7508  -49.7584 H         1 UNK         0.0600 
    204 H204       -0.7172  -26.0966  -50.3842 H         1 UNK         0.0600 
    205 H205       -1.2680  -22.4211  -49.5807 H         1 UNK         0.3000 
    206 H206       -2.6447  -22.1267  -52.0601 H         1 UNK         0.0600 
    207 H207       -0.6495  -20.7869  -51.2675 H         1 UNK         0.0600 
    208 H208       -1.9734  -19.7712  -51.8157 H         1 UNK         0.0600 
    209 H209       -1.6953  -19.9762  -50.1071 H         1 UNK         0.0600 
    210 H210       -3.7166  -21.8425  -48.7677 H         1 UNK         0.3000 
    211 H211       -5.4831  -21.0982  -47.6724 H         1 UNK         0.0600 
    212 H212       -7.0329  -21.1863  -50.3189 H         1 UNK         0.0600 
    213 H213       -7.7320  -21.0419  -48.7140 H         1 UNK         0.0600 
    214 H214       -6.8791  -22.5091  -49.1682 H         1 UNK         0.0600 
    215 H215       -3.5654  -19.3953  -48.2046 H         1 UNK         0.3000 
    216 H216       -2.8454  -17.3296  -48.3194 H         1 UNK         0.0600 
    217 H217       -4.2361  -15.4716  -47.5039 H         1 UNK         0.0600 
    218 H218       -4.5542  -16.8878  -46.5282 H         1 UNK         0.0600 
    219 H219       -5.7169  -16.4006  -47.7478 H         1 UNK         0.0600 
    220 H220       -5.0428  -15.2211  -49.4021 H         1 UNK         0.3000 
    221 H221       -3.7809  -14.7953  -51.8670 H         1 UNK         0.0600 
    222 H222       -6.4158  -13.6790  -50.7687 H         1 UNK         0.0600 
    223 H223       -4.8056  -13.0170  -50.4782 H         1 UNK         0.0600 
    224 H224       -5.4902  -12.9838  -52.0938 H         1 UNK         0.0600 
    225 H225       -6.1768  -17.1351  -51.2930 H         1 UNK         0.3000 
    226 H226       -7.5857  -17.1137  -53.7955 H         1 UNK         0.0600 
    227 H227       -7.0452  -19.3767  -51.8069 H         1 UNK         0.0600 
    228 H228       -8.4397  -18.3002  -51.7874 H         1 UNK         0.0600 
    229 H229       -8.2197  -19.4333  -53.1143 H         1 UNK         0.0600 
    230 H230       -4.4417  -18.3401  -52.7879 H         1 UNK         0.3000 
    231 H231       -2.7033  -19.2566  -53.8111 H         1 UNK         0.0600 
    232 H232       -2.1487  -18.4598  -56.0703 H         1 UNK         0.0600 
    233 H233       -2.8414  -17.1527  -55.1243 H         1 UNK         0.0600 
    234 H234       -3.8149  -17.9671  -56.3476 H         1 UNK         0.0600 
    235 H235       -4.6159  -21.1056  -53.3255 H         1 UNK         0.3000 
    236 H236       -5.3641  -22.7452  -55.5300 H         1 UNK         0.0600 
    237 H237       -6.6163  -22.7424  -53.4268 H         1 UNK         0.0600 
    238 H238       -6.0119  -24.3629  -53.7281 H         1 UNK         0.0600 
    239 H239       -5.2317  -23.3414  -52.5261 H         1 UNK         0.0600 
    240 H240       -3.3728  -24.1420  -52.8969 H         1 UNK         0.3000 
    241 H241       -1.6667  -25.5051  -52.8407 H         1 UNK         0.0600 
    242 H242       -3.4445  -27.8512  -55.2891 H         1 UNK         0.3800 
    243 H243       -4.0863  -26.4461  -54.4798 H         1 UNK         0.3800 
    244 H244        0.3158  -25.1671  -54.3959 H         1 UNK         0.0800 
    245 H245       -0.6320  -24.0171  -55.3018 H         1 UNK         0.0800 
    246 H246       -0.0531  -21.3983  -54.7153 H         1 UNK         0.0800 
    247 H247        1.3742  -22.3938  -54.9252 H         1 UNK         0.0800 
@<TRIPOS>BOND
     1    1    2 1    
     2    1  127 1    
     3    1  128 1    
     4    1  129 1    
     5    2    3 2    
     6    2    4 am   BACKBONE|DICT|INTERRES
     7    4    5 1    
     8    4  130 1    
     9    5    6 1    
    10    5   65 1    
    11    5  131 1    
    12    6    7 1    
    13    6  132 1    
    14    6  133 1    
    15    7    8 1    
    16    8    9 1    
    17    8  134 1    
    18    8  135 1    
    19    9   10 ar   
    20    9   14 ar   
    21   10   11 ar   
    22   10  136 1    
    23   11   12 ar   
    24   11  126 1    
    25   12   13 ar   
    26   12  137 1    
    27   13   14 ar   
    28   13   15 1    
    29   14  138 1    
    30   15   16 1    
    31   15  139 1    
    32   15  140 1    
    33   16   17 1    
    34   17   18 1    
    35   17  141 1    
    36   17  142 1    
    37   18   19 1    
    38   18   67 1    
    39   18  143 1    
    40   19   20 am   BACKBONE|DICT|INTERRES
    41   19  144 1    
    42   20   21 2    
    43   20   22 1    
    44   22   23 1    
    45   22   24 1    
    46   22  145 1    
    47   23  146 1    
    48   23  147 1    
    49   23  148 1    
    50   24   25 am   BACKBONE|DICT|INTERRES
    51   24  149 1    
    52   25   26 2    
    53   25   27 1    
    54   27   28 1    
    55   27   29 1    
    56   27  150 1    
    57   28  151 1    
    58   28  152 1    
    59   28  153 1    
    60   29   30 am   BACKBONE|DICT|INTERRES
    61   29  154 1    
    62   30   31 2    
    63   30   32 1    
    64   32   33 1    
    65   32   34 1    
    66   32  155 1    
    67   33  156 1    
    68   33  157 1    
    69   33  158 1    
    70   34   35 am   BACKBONE|DICT|INTERRES
    71   34  159 1    
    72   35   36 2    
    73   35   37 1    
    74   37   38 1    
    75   37   39 1    
    76   37  160 1    
    77   38  161 1    
    78   38  162 1    
    79   38  163 1    
    80   39   40 am   BACKBONE|DICT|INTERRES
    81   39  164 1    
    82   40   41 2    
    83   40   42 1    
    84   42   43 1    
    85   42   44 1    
    86   42  165 1    
    87   43  166 1    
    88   43  167 1    
    89   43  168 1    
    90   44   45 am   BACKBONE|DICT|INTERRES
    91   44  169 1    
    92   45   46 2    
    93   45   47 1    
    94   47   48 1    
    95   47   49 1    
    96   47  170 1    
    97   48  171 1    
    98   48  172 1    
    99   48  173 1    
   100   49   50 am   BACKBONE|DICT|INTERRES
   101   49  174 1    
   102   50   51 2    
   103   50   52 1    
   104   52   53 1    
   105   52   54 1    
   106   52  175 1    
   107   53  176 1    
   108   53  177 1    
   109   53  178 1    
   110   54   55 am   BACKBONE|DICT|INTERRES
   111   54  179 1    
   112   55   56 2    
   113   55   57 1    
   114   57   58 1    
   115   57   59 1    
   116   57  180 1    
   117   58  181 1    
   118   58  182 1    
   119   58  183 1    
   120   59   60 am   BACKBONE|DICT|INTERRES
   121   59  184 1    
   122   60   61 2    
   123   60   62 1    
   124   62   63 1    
   125   62   64 1    
   126   62  185 1    
   127   63  186 1    
   128   63  187 1    
   129   63  188 1    
   130   64   65 am   BACKBONE|DICT|INTERRES
   131   64  189 1    
   132   65   66 2    
   133   67   68 2    
   134   67   69 am   BACKBONE|DICT|INTERRES
   135   69   70 1    
   136   69  190 1    
   137   70   71 1    
   138   70   72 1    
   139   70  191 1    
   140   71  192 1    
   141   71  193 1    
   142   71  194 1    
   143   72   73 2    
   144   72   74 am   BACKBONE|DICT|INTERRES
   145   74   75 1    
   146   74  195 1    
   147   75   76 1    
   148   75   77 1    
   149   75  196 1    
   150   76  197 1    
   151   76  198 1    
   152   76  199 1    
   153   77   78 2    
   154   77   79 am   BACKBONE|DICT|INTERRES
   155   79   80 1    
   156   79  200 1    
   157   80   81 1    
   158   80   82 1    
   159   80  201 1    
   160   81  202 1    
   161   81  203 1    
   162   81  204 1    
   163   82   83 2    
   164   82   84 am   BACKBONE|DICT|INTERRES
   165   84   85 1    
   166   84  205 1    
   167   85   86 1    
   168   85   87 1    
   169   85  206 1    
   170   86  207 1    
   171   86  208 1    
   172   86  209 1    
   173   87   88 2    
   174   87   89 am   BACKBONE|DICT|INTERRES
   175   89   90 1    
   176   89  210 1    
   177   90   91 1    
   178   90   92 1    
   179   90  211 1    
   180   91  212 1    
   181   91  213 1    
   182   91  214 1    
   183   92   93 2    
   184   92   94 am   BACKBONE|DICT|INTERRES
   185   94   95 1    
   186   94  215 1    
   187   95   96 1    
   188   95   97 1    
   189   95  216 1    
   190   96  217 1    
   191   96  218 1    
   192   96  219 1    
   193   97   98 2    
   194   97   99 am   BACKBONE|DICT|INTERRES
   195   99  100 1    
   196   99  220 1    
   197  100  101 1    
   198  100  102 1    
   199  100  221 1    
   200  101  222 1    
   201  101  223 1    
   202  101  224 1    
   203  102  103 2    
   204  102  104 am   BACKBONE|DICT|INTERRES
   205  104  105 1    
   206  104  225 1    
   207  105  106 1    
   208  105  107 1    
   209  105  226 1    
   210  106  227 1    
   211  106  228 1    
   212  106  229 1    
   213  107  108 2    
   214  107  109 am   BACKBONE|DICT|INTERRES
   215  109  110 1    
   216  109  230 1    
   217  110  111 1    
   218  110  112 1    
   219  110  231 1    
   220  111  232 1    
   221  111  233 1    
   222  111  234 1    
   223  112  113 2    
   224  112  114 am   BACKBONE|DICT|INTERRES
   225  114  115 1    
   226  114  235 1    
   227  115  116 1    
   228  115  117 1    
   229  115  236 1    
   230  116  237 1    
   231  116  238 1    
   232  116  239 1    
   233  117  118 2    
   234  117  119 am   BACKBONE|DICT|INTERRES
   235  119  120 1    
   236  119  240 1    
   237  120  121 1    
   238  120  124 1    
   239  120  241 1    
   240  121  122 am   BACKBONE|DICT|INTERRES
   241  121  123 2    
   242  122  242 1    
   243  122  243 1    
   244  124  125 1    
   245  124  244 1    
   246  124  245 1    
   247  125  126 1    
   248  126  246 1    
   249  126  247 1    
@<TRIPOS>SUBSTRUCTURE
     1 UNK         1 GROUP             0       ****    0 ROOT    
