@<TRIPOS>MOLECULE
3R540
247   249    1
SMALL
USER_CHARGES


@<TRIPOS>ATOM
      1 CA          9.0330   -9.9795  -48.5580 C.3       0 UNK        -0.1800 
      2 C           7.9835  -11.0319  -48.8894 C.2       0 UNK         0.5000 
      3 O           7.9843  -11.5573  -50.0027 O.2       0 UNK        -0.5000 
      4 N           7.1098  -11.3389  -47.9199 N.am      1 UNK        -0.5000 
      5 CA          5.9682  -12.2612  -47.9923 C.3       1 UNK         0.1400 
      6 C6          6.3380  -13.6702  -48.5309 C.3       23 UNK        -0.0398 
      7 S7          5.1239  -14.9513  -48.0663 S.3       23 UNK        -0.2404 
      8 C8          4.4562  -15.3812  -49.7053 C.3       23 UNK        -0.0205 
      9 C9          3.2376  -16.2825  -49.5918 C.ar      23 UNK        -0.0193 
     10 C10         1.9702  -15.8050  -49.9402 C.ar      23 UNK        -0.1150 
     11 C11         0.8459  -16.6258  -49.8156 C.ar      23 UNK        -0.0193 
     12 C12         0.9988  -17.9272  -49.3335 C.ar      23 UNK        -0.1150 
     13 C13         2.2592  -18.4199  -48.9813 C.ar      23 UNK        -0.0193 
     14 C14         3.3766  -17.5936  -49.1266 C.ar      23 UNK        -0.1150 
     15 C15         2.4155  -19.8127  -48.3837 C.3       23 UNK        -0.0205 
     16 S16         2.1739  -21.1404  -49.6014 S.3       23 UNK        -0.2404 
     17 C17         0.3942  -21.4997  -49.4088 C.3       23 UNK        -0.0398 
     18 CA          0.1338  -22.7520  -48.5426 C.3       11 UNK         0.1400 
     19 N           0.5827  -22.5982  -47.1562 N.am      11 UNK        -0.5000 
     20 C           0.7182  -23.6134  -46.2925 C.2       10 UNK         0.5000 
     21 O           0.5069  -24.7919  -46.5804 O.2       10 UNK        -0.5000 
     22 CA          1.1066  -23.2376  -44.8528 C.3       10 UNK         0.1400 
     23 CB          2.6183  -22.9880  -44.7434 C.3       10 UNK        -0.1800 
     24 N           0.3738  -22.0641  -44.3726 N.am      10 UNK        -0.5000 
     25 C          -0.9443  -22.0602  -44.1194 C.2       9 UNK         0.5000 
     26 O          -1.6648  -23.0460  -44.2661 O.2       9 UNK        -0.5000 
     27 CA         -1.5816  -20.7372  -43.6541 C.3       9 UNK         0.1400 
     28 CB         -1.5889  -20.6569  -42.1209 C.3       9 UNK        -0.1800 
     29 N          -0.9270  -19.5470  -44.1916 N.am      9 UNK        -0.5000 
     30 C          -0.8257  -19.2392  -45.4923 C.2       8 UNK         0.5000 
     31 O          -1.2911  -19.9300  -46.4015 O.2       8 UNK        -0.5000 
     32 CA         -0.0092  -17.9790  -45.8347 C.3       8 UNK         0.1400 
     33 CB         -0.9237  -16.7578  -46.0002 C.3       8 UNK        -0.1800 
     34 N           1.0573  -17.6746  -44.8761 N.am      8 UNK        -0.5000 
     35 C           2.0733  -18.4990  -44.5678 C.2       7 UNK         0.5000 
     36 O           2.1979  -19.6293  -45.0392 O.2       7 UNK        -0.5000 
     37 CA          3.1110  -18.0067  -43.5406 C.3       7 UNK         0.1400 
     38 CB          4.3474  -17.4539  -44.2663 C.3       7 UNK        -0.1800 
     39 N           2.6043  -16.9848  -42.6249 N.am      7 UNK        -0.5000 
     40 C           1.5845  -17.1317  -41.7665 C.2       6 UNK         0.5000 
     41 O           0.9787  -18.1905  -41.5977 O.2       6 UNK        -0.5000 
     42 CA          1.1395  -15.8673  -41.0024 C.3       6 UNK         0.1400 
     43 CB          1.7237  -15.8648  -39.5818 C.3       6 UNK        -0.1800 
     44 N           1.5009  -14.6105  -41.6716 N.am      6 UNK        -0.5000 
     45 C           1.0547  -14.2276  -42.8759 C.2       5 UNK         0.5000 
     46 O           0.2991  -14.9098  -43.5712 O.2       5 UNK        -0.5000 
     47 CA          1.6082  -12.8987  -43.4171 C.3       5 UNK         0.1400 
     48 CB          2.9083  -13.1464  -44.2004 C.3       5 UNK        -0.1800 
     49 N           0.6387  -12.2325  -44.2863 N.am      5 UNK        -0.5000 
     50 C          -0.4475  -11.5835  -43.8393 C.2       4 UNK         0.5000 
     51 O          -0.7079  -11.4488  -42.6424 O.2       4 UNK        -0.5000 
     52 CA         -1.3952  -10.9505  -44.8801 C.3       4 UNK         0.1400 
     53 CB         -1.2189   -9.4237  -44.9053 C.3       4 UNK        -0.1800 
     54 N          -1.1988  -11.4613  -46.2354 N.am      4 UNK        -0.5000 
     55 C          -1.6308  -12.6479  -46.6821 C.2       3 UNK         0.5000 
     56 O          -2.3253  -13.4159  -46.0171 O.2       3 UNK        -0.5000 
     57 CA         -1.2101  -13.0485  -48.1124 C.3       3 UNK         0.1400 
     58 CB         -2.3808  -12.8621  -49.0899 C.3       3 UNK        -0.1800 
     59 N          -0.0425  -12.3204  -48.6264 N.am      3 UNK        -0.5000 
     60 C           1.1887  -12.3966  -48.1060 C.2       2 UNK         0.5000 
     61 O           1.4699  -13.0913  -47.1269 O.2       2 UNK        -0.5000 
     62 CA          2.2653  -11.5063  -48.7416 C.3       2 UNK         0.1400 
     63 CB          2.0282  -10.0266  -48.3801 C.3       2 UNK        -0.1800 
     64 N           3.5604  -11.9464  -48.2383 N.am      2 UNK        -0.5000 
     65 C           4.7624  -11.6337  -48.7302 C.2       1 UNK         0.5000 
     66 O           4.9262  -10.8964  -49.7049 O.2       1 UNK        -0.5000 
     67 C          -1.3524  -23.1461  -48.5940 C.2       11 UNK         0.5000 
     68 O          -1.7101  -24.0205  -49.3805 O.2       11 UNK        -0.5000 
     69 N          -2.1812  -22.5363  -47.7320 N.am      12 UNK        -0.5000 
     70 CA         -3.5987  -22.8725  -47.5863 C.3       12 UNK         0.1400 
     71 CB         -4.2758  -21.8814  -46.6300 C.3       12 UNK        -0.1800 
     72 C          -3.8149  -24.3244  -47.1216 C.2       12 UNK         0.5000 
     73 O          -4.6637  -25.0164  -47.6811 O.2       12 UNK        -0.5000 
     74 N          -3.0155  -24.7808  -46.1462 N.am      13 UNK        -0.5000 
     75 CA         -3.0023  -26.1634  -45.6659 C.3       13 UNK         0.1400 
     76 CB         -2.1000  -26.2800  -44.4286 C.3       13 UNK        -0.1800 
     77 C          -2.5738  -27.1632  -46.7546 C.2       13 UNK         0.5000 
     78 O          -3.2400  -28.1838  -46.9312 O.2       13 UNK        -0.5000 
     79 N          -1.5086  -26.8318  -47.5000 N.am      14 UNK        -0.5000 
     80 CA         -1.0173  -27.6119  -48.6407 C.3       14 UNK         0.1400 
     81 CB          0.3114  -27.0195  -49.1333 C.3       14 UNK        -0.1800 
     82 C          -2.0355  -27.7045  -49.7952 C.2       14 UNK         0.5000 
     83 O          -2.1307  -28.7477  -50.4421 O.2       14 UNK        -0.5000 
     84 N          -2.8063  -26.6291  -49.9998 N.am      15 UNK        -0.5000 
     85 CA         -3.9036  -26.5334  -50.9626 C.3       15 UNK         0.1400 
     86 CB         -4.0814  -25.0582  -51.3578 C.3       15 UNK        -0.1800 
     87 C          -5.2304  -27.1408  -50.4534 C.2       15 UNK         0.5000 
     88 O          -6.2422  -27.0144  -51.1426 O.2       15 UNK        -0.5000 
     89 N          -5.2196  -27.7800  -49.2731 N.am      16 UNK        -0.5000 
     90 CA         -6.3432  -28.4591  -48.6186 C.3       16 UNK         0.1400 
     91 CB         -6.8082  -29.6777  -49.4440 C.3       16 UNK        -0.1800 
     92 C          -7.4920  -27.4999  -48.2426 C.2       16 UNK         0.5000 
     93 O          -8.6615  -27.7991  -48.4895 O.2       16 UNK        -0.5000 
     94 N          -7.1185  -26.3611  -47.6438 N.am      17 UNK        -0.5000 
     95 CA         -7.9655  -25.2716  -47.1453 C.3       17 UNK         0.1400 
     96 CB         -9.0193  -25.7741  -46.1357 C.3       17 UNK        -0.1800 
     97 C          -8.5668  -24.3819  -48.2521 C.2       17 UNK         0.5000 
     98 O          -9.4519  -23.5735  -47.9647 O.2       17 UNK        -0.5000 
     99 N          -8.0579  -24.5051  -49.4847 N.am      18 UNK        -0.5000 
    100 CA        -8.3314  -23.5833  -50.5861 C.3       18 UNK         0.1400 
    101 CB        -8.0614  -24.3029  -51.9166 C.3       18 UNK        -0.1800 
    102 C         -7.4802  -22.3026  -50.4622 C.2       18 UNK         0.5000 
    103 O         -6.5789  -22.2271  -49.6235 O.2       18 UNK        -0.5000 
    104 N         -7.7724  -21.3178  -51.3219 N.am      19 UNK        -0.5000 
    105 CA        -7.1214  -20.0030  -51.3503 C.3       19 UNK         0.1400 
    106 CB        -7.9340  -19.0690  -52.2614 C.3       19 UNK        -0.1800 
    107 C         -5.6426  -20.0194  -51.7900 C.2       19 UNK         0.5000 
    108 O         -4.9572  -19.0147  -51.6028 O.2       19 UNK        -0.5000 
    109 N         -5.1841  -21.1276  -52.3943 N.am      20 UNK        -0.5000 
    110 CA        -3.8028  -21.3924  -52.8268 C.3       20 UNK         0.1400 
    111 CB        -2.8788  -21.5210  -51.5985 C.3       20 UNK        -0.1800 
    112 C         -3.2635  -20.3778  -53.8615 C.2       20 UNK         0.5000 
    113 O         -2.0566  -20.1408  -53.9203 O.2       20 UNK        -0.5000 
    114 N         -4.1818  -19.7900  -54.6442 N.am      21 UNK        -0.5000 
    115 CA        -3.9801  -18.7139  -55.6229 C.3       21 UNK         0.1400 
    116 CB        -3.0193  -19.1499  -56.7494 C.3       21 UNK        -0.1800 
    117 C         -3.5889  -17.3512  -55.0038 C.2       21 UNK         0.5000 
    118 O         -3.2074  -16.4438  -55.7451 O.2       21 UNK        -0.5000 
    119 N         -3.7227  -17.2047  -53.6782 N.am      22 UNK        -0.5000 
    120 CA        -3.4864  -15.9500  -52.9429 C.3       22 UNK         0.1400 
    121 C         -4.7091  -14.9843  -52.9360 C.2       22 UNK         0.5000 
    122 N         -5.8720  -15.3680  -53.4496 N.am      22 UNK        -0.7600 
    123 O         -4.5969  -13.8553  -52.4665 O.2       22 UNK        -0.5000 
    124 C124       -2.9869  -16.2196  -51.5007 C.3       23 UNK        -0.0398 
    125 S125       -1.3604  -17.0483  -51.4630 S.3       23 UNK        -0.2404 
    126 C126       -0.5415  -16.0959  -50.1456 C.3       23 UNK        -0.0205 
    127 H127        8.9285   -9.6069  -47.5387 H         1 UNK         0.0600 
    128 H128        8.9433   -9.1335  -49.2395 H         1 UNK         0.0600 
    129 H129       10.0330  -10.4000  -48.6648 H         1 UNK         0.0600 
    130 H130        7.1846  -10.8413  -47.0435 H         1 UNK         0.3000 
    131 H131        5.6691  -12.3830  -46.9494 H         1 UNK         0.0600 
    132 H132        7.2979  -13.9804  -48.1160 H         1 UNK         0.0800 
    133 H133        6.4742  -13.6553  -49.6133 H         1 UNK         0.0800 
    134 H134        4.2022  -14.4666  -50.2438 H         1 UNK         0.0800 
    135 H135        5.2270  -15.8843  -50.2910 H         1 UNK         0.0800 
    136 H136        1.8574  -14.7902  -50.2944 H         1 UNK         0.1150 
    137 H137        0.1194  -18.5392  -49.2134 H         1 UNK         0.1150 
    138 H138        4.3559  -17.9568  -48.8477 H         1 UNK         0.1150 
    139 H139        3.4083  -19.9256  -47.9452 H         1 UNK         0.0800 
    140 H140        1.7149  -19.9418  -47.5614 H         1 UNK         0.0800 
    141 H141       -0.0075  -21.6423  -50.4132 H         1 UNK         0.0800 
    142 H142       -0.1333  -20.6436  -48.9922 H         1 UNK         0.0800 
    143 H143        0.6971  -23.5788  -48.9812 H         1 UNK         0.0600 
    144 H144        0.7402  -21.6581  -46.8255 H         1 UNK         0.3000 
    145 H145        0.8555  -24.0819  -44.2071 H         1 UNK         0.0600 
    146 H146        3.1798  -23.8783  -45.0290 H         1 UNK         0.0600 
    147 H147        2.9437  -22.1752  -45.3936 H         1 UNK         0.0600 
    148 H148        2.9047  -22.7359  -43.7223 H         1 UNK         0.0600 
    149 H149        0.8985  -21.2018  -44.2857 H         1 UNK         0.3000 
    150 H150       -2.6164  -20.7283  -44.0004 H         1 UNK         0.0600 
    151 H151       -2.1070  -19.7625  -41.7743 H         1 UNK         0.0600 
    152 H152       -0.5765  -20.6357  -41.7152 H         1 UNK         0.0600 
    153 H153       -2.0997  -21.5172  -41.6864 H         1 UNK         0.0600 
    154 H154       -0.4765  -18.9390  -43.5207 H         1 UNK         0.3000 
    155 H155        0.4720  -18.1630  -46.7893 H         1 UNK         0.0600 
    156 H156       -1.6914  -16.9416  -46.7528 H         1 UNK         0.0600 
    157 H157       -0.3573  -15.8826  -46.3206 H         1 UNK         0.0600 
    158 H158       -1.4299  -16.5046  -45.0680 H         1 UNK         0.0600 
    159 H159        1.0039  -16.7695  -44.4227 H         1 UNK         0.3000 
    160 H160        3.4151  -18.8688  -42.9436 H         1 UNK         0.0600 
    161 H161        4.7704  -18.1994  -44.9412 H         1 UNK         0.0600 
    162 H162        5.1300  -17.1760  -43.5602 H         1 UNK         0.0600 
    163 H163        4.1039  -16.5738  -44.8635 H         1 UNK         0.0600 
    164 H164        3.0357  -16.0751  -42.6871 H         1 UNK         0.3000 
    165 H165        0.0508  -15.9023  -40.9257 H         1 UNK         0.0600 
    166 H166        1.3473  -15.0224  -39.0011 H         1 UNK         0.0600 
    167 H167        1.4505  -16.7746  -39.0452 H         1 UNK         0.0600 
    168 H168        2.8128  -15.8058  -39.5945 H         1 UNK         0.0600 
    169 H169        2.1309  -14.0027  -41.1677 H         1 UNK         0.3000 
    170 H170        1.8321  -12.2372  -42.5774 H         1 UNK         0.0600 
    171 H171        3.2763  -12.2291  -44.6606 H         1 UNK         0.0600 
    172 H172        3.6950  -13.5178  -43.5428 H         1 UNK         0.0600 
    173 H173        2.7704  -13.8866  -44.9896 H         1 UNK         0.0600 
    174 H174        0.7573  -12.3793  -45.2817 H         1 UNK         0.3000 
    175 H175       -2.4184  -11.1707  -44.5682 H         1 UNK         0.0600 
    176 H176       -0.2125   -9.1400  -45.2160 H         1 UNK         0.0600 
    177 H177       -1.9269   -8.9557  -45.5896 H         1 UNK         0.0600 
    178 H178       -1.3913   -8.9930  -43.9181 H         1 UNK         0.0600 
    179 H179       -0.6474  -10.8905  -46.8579 H         1 UNK         0.3000 
    180 H180       -0.9502  -14.1070  -48.0779 H         1 UNK         0.0600 
    181 H181       -2.1078  -13.1614  -50.1015 H         1 UNK         0.0600 
    182 H182       -2.7091  -11.8227  -49.1280 H         1 UNK         0.0600 
    183 H183       -3.2387  -13.4666  -48.7923 H         1 UNK         0.0600 
    184 H184       -0.2053  -11.7149  -49.4183 H         1 UNK         0.3000 
    185 H185        2.2354  -11.6402  -49.8248 H         1 UNK         0.0600 
    186 H186        2.0562   -9.8687  -47.3010 H         1 UNK         0.0600 
    187 H187        2.7810   -9.3797  -48.8301 H         1 UNK         0.0600 
    188 H188        1.0580   -9.6811  -48.7386 H         1 UNK         0.0600 
    189 H189        3.4804  -12.6069  -47.4730 H         1 UNK         0.3000 
    190 H190       -1.8218  -21.7976  -47.1369 H         1 UNK         0.3000 
    191 H191       -4.0662  -22.7664  -48.5671 H         1 UNK         0.0600 
    192 H192       -3.8780  -21.9603  -45.6189 H         1 UNK         0.0600 
    193 H193       -5.3492  -22.0684  -46.5773 H         1 UNK         0.0600 
    194 H194       -4.1408  -20.8532  -46.9666 H         1 UNK         0.0600 
    195 H195       -2.3782  -24.1368  -45.6863 H         1 UNK         0.3000 
    196 H196       -4.0205  -26.4191  -45.3652 H         1 UNK         0.0600 
    197 H197       -2.0753  -27.3052  -44.0571 H         1 UNK         0.0600 
    198 H198       -2.4632  -25.6495  -43.6169 H         1 UNK         0.0600 
    199 H199       -1.0737  -25.9840  -44.6472 H         1 UNK         0.0600 
    200 H200       -0.9915  -25.9891  -47.2696 H         1 UNK         0.3000 
    201 H201       -0.8258  -28.6275  -48.2884 H         1 UNK         0.0600 
    202 H202        1.0584  -27.0116  -48.3394 H         1 UNK         0.0600 
    203 H203        0.1890  -25.9961  -49.4876 H         1 UNK         0.0600 
    204 H204        0.7186  -27.6059  -49.9579 H         1 UNK         0.0600 
    205 H205       -2.6086  -25.7872  -49.4671 H         1 UNK         0.3000 
    206 H206       -3.6239  -27.0868  -51.8611 H         1 UNK         0.0600 
    207 H207       -4.7714  -24.9577  -52.1945 H         1 UNK         0.0600 
    208 H208       -4.4682  -24.4625  -50.5297 H         1 UNK         0.0600 
    209 H209       -3.1356  -24.6193  -51.6752 H         1 UNK         0.0600 
    210 H210       -4.3492  -27.7985  -48.7552 H         1 UNK         0.3000 
    211 H211       -5.9524  -28.8405  -47.6742 H         1 UNK         0.0600 
    212 H212       -7.2632  -29.3808  -50.3893 H         1 UNK         0.0600 
    213 H213       -7.5489  -30.2602  -48.8950 H         1 UNK         0.0600 
    214 H214       -5.9742  -30.3432  -49.6673 H         1 UNK         0.0600 
    215 H215       -6.1215  -26.1612  -47.5846 H         1 UNK         0.3000 
    216 H216       -7.2875  -24.6183  -46.5944 H         1 UNK         0.0600 
    217 H217       -9.5010  -24.9383  -45.6272 H         1 UNK         0.0600 
    218 H218       -8.5644  -26.3995  -45.3675 H         1 UNK         0.0600 
    219 H219       -9.8059  -26.3524  -46.6206 H         1 UNK         0.0600 
    220 H220       -7.3205  -25.1796  -49.6315 H         1 UNK         0.3000 
    221 H221       -9.3849  -23.2972  -50.5579 H         1 UNK         0.0600 
    222 H222       -7.0058  -24.5382  -52.0386 H         1 UNK         0.0600 
    223 H223       -8.6192  -25.2376  -51.9795 H         1 UNK         0.0600 
    224 H224       -8.3614  -23.6913  -52.7679 H         1 UNK         0.0600 
    225 H225       -8.5211  -21.4568  -51.9854 H         1 UNK         0.3000 
    226 H226       -7.1462  -19.5958  -50.3374 H         1 UNK         0.0600 
    227 H227       -8.9625  -18.9739  -51.9126 H         1 UNK         0.0600 
    228 H228       -7.5064  -18.0654  -52.2769 H         1 UNK         0.0600 
    229 H229       -7.9594  -19.4312  -53.2898 H         1 UNK         0.0600 
    230 H230       -5.8379  -21.8853  -52.5261 H         1 UNK         0.3000 
    231 H231       -3.8209  -22.3604  -53.3294 H         1 UNK         0.0600 
    232 H232       -2.7052  -20.5574  -51.1179 H         1 UNK         0.0600 
    233 H233       -3.3053  -22.1916  -50.8538 H         1 UNK         0.0600 
    234 H234       -1.9085  -21.9279  -51.8834 H         1 UNK         0.0600 
    235 H235       -5.1428  -20.0671  -54.5033 H         1 UNK         0.3000 
    236 H236       -4.9568  -18.5530  -56.0813 H         1 UNK         0.0600 
    237 H237       -1.9913  -19.2371  -56.3971 H         1 UNK         0.0600 
    238 H238       -3.3139  -20.1111  -57.1704 H         1 UNK         0.0600 
    239 H239       -3.0205  -18.4267  -57.5657 H         1 UNK         0.0600 
    240 H240       -4.0431  -17.9867  -53.1171 H         1 UNK         0.3000 
    241 H241       -2.6937  -15.4012  -53.4549 H         1 UNK         0.0600 
    242 H242       -6.6512  -14.7286  -53.4442 H         1 UNK         0.3800 
    243 H243       -5.9795  -16.2881  -53.8430 H         1 UNK         0.3800 
    244 H244       -2.9097  -15.2827  -50.9482 H         1 UNK         0.0800 
    245 H245       -3.7037  -16.8289  -50.9497 H         1 UNK         0.0800 
    246 H246       -1.1554  -16.1407  -49.2454 H         1 UNK         0.0800 
    247 H247       -0.4892  -15.0484  -50.4452 H         1 UNK         0.0800 
@<TRIPOS>BOND
     1    1    2 1    
     2    1  127 1    
     3    1  128 1    
     4    1  129 1    
     5    2    3 2    
     6    2    4 am   BACKBONE|DICT|INTERRES
     7    4    5 1    
     8    4  130 1    
     9    5    6 1    
    10    5   65 1    
    11    5  131 1    
    12    6    7 1    
    13    6  132 1    
    14    6  133 1    
    15    7    8 1    
    16    8    9 1    
    17    8  134 1    
    18    8  135 1    
    19    9   10 ar   
    20    9   14 ar   
    21   10   11 ar   
    22   10  136 1    
    23   11   12 ar   
    24   11  126 1    
    25   12   13 ar   
    26   12  137 1    
    27   13   14 ar   
    28   13   15 1    
    29   14  138 1    
    30   15   16 1    
    31   15  139 1    
    32   15  140 1    
    33   16   17 1    
    34   17   18 1    
    35   17  141 1    
    36   17  142 1    
    37   18   19 1    
    38   18   67 1    
    39   18  143 1    
    40   19   20 am   BACKBONE|DICT|INTERRES
    41   19  144 1    
    42   20   21 2    
    43   20   22 1    
    44   22   23 1    
    45   22   24 1    
    46   22  145 1    
    47   23  146 1    
    48   23  147 1    
    49   23  148 1    
    50   24   25 am   BACKBONE|DICT|INTERRES
    51   24  149 1    
    52   25   26 2    
    53   25   27 1    
    54   27   28 1    
    55   27   29 1    
    56   27  150 1    
    57   28  151 1    
    58   28  152 1    
    59   28  153 1    
    60   29   30 am   BACKBONE|DICT|INTERRES
    61   29  154 1    
    62   30   31 2    
    63   30   32 1    
    64   32   33 1    
    65   32   34 1    
    66   32  155 1    
    67   33  156 1    
    68   33  157 1    
    69   33  158 1    
    70   34   35 am   BACKBONE|DICT|INTERRES
    71   34  159 1    
    72   35   36 2    
    73   35   37 1    
    74   37   38 1    
    75   37   39 1    
    76   37  160 1    
    77   38  161 1    
    78   38  162 1    
    79   38  163 1    
    80   39   40 am   BACKBONE|DICT|INTERRES
    81   39  164 1    
    82   40   41 2    
    83   40   42 1    
    84   42   43 1    
    85   42   44 1    
    86   42  165 1    
    87   43  166 1    
    88   43  167 1    
    89   43  168 1    
    90   44   45 am   BACKBONE|DICT|INTERRES
    91   44  169 1    
    92   45   46 2    
    93   45   47 1    
    94   47   48 1    
    95   47   49 1    
    96   47  170 1    
    97   48  171 1    
    98   48  172 1    
    99   48  173 1    
   100   49   50 am   BACKBONE|DICT|INTERRES
   101   49  174 1    
   102   50   51 2    
   103   50   52 1    
   104   52   53 1    
   105   52   54 1    
   106   52  175 1    
   107   53  176 1    
   108   53  177 1    
   109   53  178 1    
   110   54   55 am   BACKBONE|DICT|INTERRES
   111   54  179 1    
   112   55   56 2    
   113   55   57 1    
   114   57   58 1    
   115   57   59 1    
   116   57  180 1    
   117   58  181 1    
   118   58  182 1    
   119   58  183 1    
   120   59   60 am   BACKBONE|DICT|INTERRES
   121   59  184 1    
   122   60   61 2    
   123   60   62 1    
   124   62   63 1    
   125   62   64 1    
   126   62  185 1    
   127   63  186 1    
   128   63  187 1    
   129   63  188 1    
   130   64   65 am   BACKBONE|DICT|INTERRES
   131   64  189 1    
   132   65   66 2    
   133   67   68 2    
   134   67   69 am   BACKBONE|DICT|INTERRES
   135   69   70 1    
   136   69  190 1    
   137   70   71 1    
   138   70   72 1    
   139   70  191 1    
   140   71  192 1    
   141   71  193 1    
   142   71  194 1    
   143   72   73 2    
   144   72   74 am   BACKBONE|DICT|INTERRES
   145   74   75 1    
   146   74  195 1    
   147   75   76 1    
   148   75   77 1    
   149   75  196 1    
   150   76  197 1    
   151   76  198 1    
   152   76  199 1    
   153   77   78 2    
   154   77   79 am   BACKBONE|DICT|INTERRES
   155   79   80 1    
   156   79  200 1    
   157   80   81 1    
   158   80   82 1    
   159   80  201 1    
   160   81  202 1    
   161   81  203 1    
   162   81  204 1    
   163   82   83 2    
   164   82   84 am   BACKBONE|DICT|INTERRES
   165   84   85 1    
   166   84  205 1    
   167   85   86 1    
   168   85   87 1    
   169   85  206 1    
   170   86  207 1    
   171   86  208 1    
   172   86  209 1    
   173   87   88 2    
   174   87   89 am   BACKBONE|DICT|INTERRES
   175   89   90 1    
   176   89  210 1    
   177   90   91 1    
   178   90   92 1    
   179   90  211 1    
   180   91  212 1    
   181   91  213 1    
   182   91  214 1    
   183   92   93 2    
   184   92   94 am   BACKBONE|DICT|INTERRES
   185   94   95 1    
   186   94  215 1    
   187   95   96 1    
   188   95   97 1    
   189   95  216 1    
   190   96  217 1    
   191   96  218 1    
   192   96  219 1    
   193   97   98 2    
   194   97   99 am   BACKBONE|DICT|INTERRES
   195   99  100 1    
   196   99  220 1    
   197  100  101 1    
   198  100  102 1    
   199  100  221 1    
   200  101  222 1    
   201  101  223 1    
   202  101  224 1    
   203  102  103 2    
   204  102  104 am   BACKBONE|DICT|INTERRES
   205  104  105 1    
   206  104  225 1    
   207  105  106 1    
   208  105  107 1    
   209  105  226 1    
   210  106  227 1    
   211  106  228 1    
   212  106  229 1    
   213  107  108 2    
   214  107  109 am   BACKBONE|DICT|INTERRES
   215  109  110 1    
   216  109  230 1    
   217  110  111 1    
   218  110  112 1    
   219  110  231 1    
   220  111  232 1    
   221  111  233 1    
   222  111  234 1    
   223  112  113 2    
   224  112  114 am   BACKBONE|DICT|INTERRES
   225  114  115 1    
   226  114  235 1    
   227  115  116 1    
   228  115  117 1    
   229  115  236 1    
   230  116  237 1    
   231  116  238 1    
   232  116  239 1    
   233  117  118 2    
   234  117  119 am   BACKBONE|DICT|INTERRES
   235  119  120 1    
   236  119  240 1    
   237  120  121 1    
   238  120  124 1    
   239  120  241 1    
   240  121  122 am   BACKBONE|DICT|INTERRES
   241  121  123 2    
   242  122  242 1    
   243  122  243 1    
   244  124  125 1    
   245  124  244 1    
   246  124  245 1    
   247  125  126 1    
   248  126  246 1    
   249  126  247 1    
@<TRIPOS>SUBSTRUCTURE
     1 UNK         1 GROUP             0       ****    0 ROOT    
