@<TRIPOS>MOLECULE
3R540
247   249    1
SMALL
USER_CHARGES


@<TRIPOS>ATOM
      1 CA         -3.9026  -10.4594  -48.0879 C.3       0 UNK        -0.1800 
      2 C          -2.4663  -10.3754  -48.5856 C.2       0 UNK         0.5000 
      3 O          -2.1426   -9.4902  -49.3783 O.2       0 UNK        -0.5000 
      4 N          -1.6090  -11.2961  -48.1303 N.am      1 UNK        -0.5000 
      5 CA         -0.1796  -11.3415  -48.4521 C.3       1 UNK         0.1400 
      6 C6          0.4565  -12.7019  -48.0761 C.3       23 UNK        -0.0398 
      7 S7         -0.2481  -14.1033  -49.0072 S.3       23 UNK        -0.2404 
      8 C8         -1.3030  -14.8829  -47.7455 C.3       23 UNK        -0.0205 
      9 C9         -1.5269  -16.3564  -48.0446 C.ar      23 UNK        -0.0193 
     10 C10        -2.7797  -16.8102  -48.4663 C.ar      23 UNK        -0.1150 
     11 C11        -2.9867  -18.1636  -48.7494 C.ar      23 UNK        -0.0193 
     12 C12        -1.9283  -19.0647  -48.6009 C.ar      23 UNK        -0.1150 
     13 C13        -0.6743  -18.6268  -48.1660 C.ar      23 UNK        -0.0193 
     14 C14        -0.4796  -17.2710  -47.8898 C.ar      23 UNK        -0.1150 
     15 C15         0.4684  -19.6180  -48.0096 C.3       23 UNK        -0.0205 
     16 S16         0.6896  -20.1085  -46.2697 S.3       23 UNK        -0.2404 
     17 C17         1.4845  -21.7425  -46.4568 C.3       23 UNK        -0.0398 
     18 CA          0.5665  -22.9715  -46.2193 C.3       11 UNK         0.1400 
     19 N           0.1693  -23.1587  -44.8181 N.am      11 UNK        -0.5000 
     20 C          -0.2580  -24.3369  -44.3340 C.2       10 UNK         0.5000 
     21 O          -0.3579  -25.3555  -45.0181 O.2       10 UNK        -0.5000 
     22 CA         -0.6731  -24.3930  -42.8533 C.3       10 UNK         0.1400 
     23 CB          0.5634  -24.4984  -41.9482 C.3       10 UNK        -0.1800 
     24 N          -1.4840  -23.2530  -42.4328 N.am      10 UNK        -0.5000 
     25 C          -2.6897  -22.9319  -42.9247 C.2       9 UNK         0.5000 
     26 O          -3.2643  -23.5761  -43.8007 O.2       9 UNK        -0.5000 
     27 CA         -3.3457  -21.6522  -42.3658 C.3       9 UNK         0.1400 
     28 CB         -4.2887  -21.9939  -41.2028 C.3       9 UNK        -0.1800 
     29 N          -2.3613  -20.6611  -41.9183 N.am      9 UNK        -0.5000 
     30 C          -1.4933  -20.0584  -42.7402 C.2       8 UNK         0.5000 
     31 O          -1.5087  -20.2081  -43.9637 O.2       8 UNK        -0.5000 
     32 CA         -0.3923  -19.2170  -42.0808 C.3       8 UNK         0.1400 
     33 CB          0.5876  -20.1202  -41.3030 C.3       8 UNK        -0.1800 
     34 N           0.3261  -18.4852  -43.1183 N.am      8 UNK        -0.5000 
     35 C           1.1297  -17.4377  -42.9166 C.2       7 UNK         0.5000 
     36 O           1.3427  -16.9435  -41.8067 O.2       7 UNK        -0.5000 
     37 CA          1.7707  -16.8215  -44.1755 C.3       7 UNK         0.1400 
     38 CB          0.8442  -15.7557  -44.7741 C.3       7 UNK        -0.1800 
     39 N           3.0669  -16.2048  -43.9023 N.am      7 UNK        -0.5000 
     40 C           4.1686  -16.8578  -43.5094 C.2       6 UNK         0.5000 
     41 O           4.2416  -18.0828  -43.4023 O.2       6 UNK        -0.5000 
     42 CA          5.3981  -15.9939  -43.1819 C.3       6 UNK         0.1400 
     43 CB          6.2284  -15.7371  -44.4491 C.3       6 UNK        -0.1800 
     44 N           5.0127  -14.7133  -42.5856 N.am      6 UNK        -0.5000 
     45 C           4.8136  -14.5215  -41.2734 C.2       5 UNK         0.5000 
     46 O           4.9834  -15.3965  -40.4233 O.2       5 UNK        -0.5000 
     47 CA          4.3671  -13.1160  -40.8222 C.3       5 UNK         0.1400 
     48 CB          5.5820  -12.2841  -40.3828 C.3       5 UNK        -0.1800 
     49 N           3.6429  -12.3825  -41.8604 N.am      5 UNK        -0.5000 
     50 C           2.3701  -12.6145  -42.2097 C.2       4 UNK         0.5000 
     51 O           1.6424  -13.4269  -41.6408 O.2       4 UNK        -0.5000 
     52 CA          1.8194  -11.8167  -43.4088 C.3       4 UNK         0.1400 
     53 CB          1.0387  -10.5862  -42.9236 C.3       4 UNK        -0.1800 
     54 N           2.8422  -11.3827  -44.3653 N.am      4 UNK        -0.5000 
     55 C           3.6412  -12.1901  -45.0741 C.2       3 UNK         0.5000 
     56 O           3.6429  -13.4160  -44.9463 O.2       3 UNK        -0.5000 
     57 CA          4.5800  -11.5047  -46.0896 C.3       3 UNK         0.1400 
     58 CB          5.3852  -12.5142  -46.9265 C.3       3 UNK        -0.1800 
     59 N           3.8305  -10.6348  -46.9967 N.am      3 UNK        -0.5000 
     60 C           3.4470   -9.3763  -46.7395 C.2       2 UNK         0.5000 
     61 O           3.7276   -8.7775  -45.7008 O.2       2 UNK        -0.5000 
     62 CA          2.5457   -8.7065  -47.7948 C.3       2 UNK         0.1400 
     63 CB          3.3918   -8.0591  -48.9014 C.3       2 UNK        -0.1800 
     64 N           1.6042   -9.6585  -48.3922 N.am      2 UNK        -0.5000 
     65 C           0.5770  -10.2092  -47.7303 C.2       1 UNK         0.5000 
     66 O           0.2599   -9.8994  -46.5792 O.2       1 UNK        -0.5000 
     67 C          -0.6528  -23.0195  -47.1627 C.2       11 UNK         0.5000 
     68 O          -0.5535  -23.5933  -48.2463 O.2       11 UNK        -0.5000 
     69 N          -1.7921  -22.4723  -46.7120 N.am      12 UNK        -0.5000 
     70 CA         -3.0733  -22.5363  -47.4135 C.3       12 UNK         0.1400 
     71 CB         -4.0896  -21.6141  -46.7244 C.3       12 UNK        -0.1800 
     72 C          -3.6064  -23.9743  -47.5210 C.2       12 UNK         0.5000 
     73 O          -4.0580  -24.3677  -48.5960 O.2       12 UNK        -0.5000 
     74 N          -3.5008  -24.7424  -46.4275 N.am      13 UNK        -0.5000 
     75 CA         -3.8506  -26.1610  -46.3682 C.3       13 UNK         0.1400 
     76 CB         -3.8025  -26.6486  -44.9124 C.3       13 UNK        -0.1800 
     77 C          -2.9541  -27.0291  -47.2683 C.2       13 UNK         0.5000 
     78 O          -3.4745  -27.8718  -47.9990 O.2       13 UNK        -0.5000 
     79 N          -1.6357  -26.7819  -47.2388 N.am      14 UNK        -0.5000 
     80 CA         -0.6431  -27.4545  -48.0833 C.3       14 UNK         0.1400 
     81 CB          0.7700  -27.0494  -47.6387 C.3       14 UNK        -0.1800 
     82 C          -0.8407  -27.1728  -49.5852 C.2       14 UNK         0.5000 
     83 O          -0.6833  -28.0799  -50.4029 O.2       14 UNK        -0.5000 
     84 N          -1.2190  -25.9310  -49.9136 N.am      15 UNK        -0.5000 
     85 CA         -1.5773  -25.4866  -51.2608 C.3       15 UNK         0.1400 
     86 CB         -1.5048  -23.9519  -51.2938 C.3       15 UNK        -0.1800 
     87 C          -2.9748  -25.9527  -51.7187 C.2       15 UNK         0.5000 
     88 O          -3.3099  -25.7738  -52.8918 O.2       15 UNK        -0.5000 
     89 N          -3.7817  -26.4768  -50.7813 N.am      16 UNK        -0.5000 
     90 CA         -5.2007  -26.8285  -50.9119 C.3       16 UNK         0.1400 
     91 CB         -5.3650  -28.0725  -51.8083 C.3       16 UNK        -0.1800 
     92 C          -6.0591  -25.6329  -51.3798 C.2       16 UNK         0.5000 
     93 O          -6.9972  -25.8107  -52.1593 O.2       16 UNK        -0.5000 
     94 N          -5.6645  -24.4248  -50.9474 N.am      17 UNK        -0.5000 
     95 CA         -6.0805  -23.0855  -51.3811 C.3       17 UNK         0.1400 
     96 CB         -7.5641  -22.8297  -51.0614 C.3       17 UNK        -0.1800 
     97 C          -5.7661  -22.7625  -52.8582 C.2       17 UNK         0.5000 
     98 O          -5.2892  -21.6648  -53.1480 O.2       17 UNK        -0.5000 
     99 N          -6.0343  -23.7130  -53.7600 N.am      18 UNK        -0.5000 
    100 CA        -5.9357  -23.6084  -55.2131 C.3       18 UNK         0.1400 
    101 CB        -6.3830  -24.9365  -55.8419 C.3       18 UNK        -0.1800 
    102 C         -4.5459  -23.2060  -55.7314 C.2       18 UNK         0.5000 
    103 O         -4.4607  -22.3114  -56.5730 O.2       18 UNK        -0.5000 
    104 N         -3.4800  -23.8329  -55.2105 N.am      19 UNK        -0.5000 
    105 CA        -2.1023  -23.5612  -55.6419 C.3       19 UNK         0.1400 
    106 CB        -1.1817  -24.7125  -55.2109 C.3       19 UNK        -0.1800 
    107 C         -1.5634  -22.2021  -55.1502 C.2       19 UNK         0.5000 
    108 O         -0.6070  -21.6865  -55.7293 O.2       19 UNK        -0.5000 
    109 N         -2.1989  -21.6368  -54.1154 N.am      20 UNK        -0.5000 
    110 CA        -1.9332  -20.2951  -53.5957 C.3       20 UNK         0.1400 
    111 CB        -2.1326  -20.3142  -52.0706 C.3       20 UNK        -0.1800 
    112 C         -2.8285  -19.2269  -54.2599 C.2       20 UNK         0.5000 
    113 O         -2.6428  -18.0401  -53.9903 O.2       20 UNK        -0.5000 
    114 N         -3.7783  -19.6622  -55.1052 N.am      21 UNK        -0.5000 
    115 CA        -4.8280  -18.8771  -55.7637 C.3       21 UNK         0.1400 
    116 CB        -4.2263  -17.8455  -56.7409 C.3       21 UNK        -0.1800 
    117 C         -5.8347  -18.2602  -54.7676 C.2       21 UNK         0.5000 
    118 O         -6.4020  -17.2003  -55.0397 O.2       21 UNK        -0.5000 
    119 N         -6.0464  -18.9440  -53.6367 N.am      22 UNK        -0.5000 
    120 CA        -6.9504  -18.5363  -52.5494 C.3       22 UNK         0.1400 
    121 C         -8.3901  -19.1115  -52.6877 C.2       22 UNK         0.5000 
    122 N         -8.6836  -19.9503  -53.6744 N.am      22 UNK        -0.7600 
    123 O         -9.2635  -18.7820  -51.8901 O.2       22 UNK        -0.5000 
    124 C124       -6.3505  -18.8696  -51.1587 C.3       23 UNK        -0.0398 
    125 S125       -4.7461  -18.0520  -50.8777 S.3       23 UNK        -0.2404 
    126 C126       -4.3545  -18.6488  -49.2062 C.3       23 UNK        -0.0205 
    127 H127       -4.5848  -10.5820  -48.9292 H         1 UNK         0.0600 
    128 H128       -4.0478  -11.2991  -47.4077 H         1 UNK         0.0600 
    129 H129       -4.1708   -9.5441  -47.5602 H         1 UNK         0.0600 
    130 H130       -1.9276  -11.9773  -47.4582 H         1 UNK         0.3000 
    131 H131       -0.0709  -11.1967  -49.5294 H         1 UNK         0.0600 
    132 H132        0.3787  -12.8834  -47.0026 H         1 UNK         0.0800 
    133 H133        1.5260  -12.6922  -48.2943 H         1 UNK         0.0800 
    134 H134       -2.2530  -14.3487  -47.6978 H         1 UNK         0.0800 
    135 H135       -0.8516  -14.7881  -46.7603 H         1 UNK         0.0800 
    136 H136       -3.5953  -16.1109  -48.5857 H         1 UNK         0.1150 
    137 H137       -2.0772  -20.1094  -48.8261 H         1 UNK         0.1150 
    138 H138        0.4904  -16.9258  -47.5610 H         1 UNK         0.1150 
    139 H139        0.2752  -20.4986  -48.6241 H         1 UNK         0.0800 
    140 H140        1.3960  -19.1810  -48.3822 H         1 UNK         0.0800 
    141 H141        1.9359  -21.8079  -47.4482 H         1 UNK         0.0800 
    142 H142        2.3236  -21.7822  -45.7611 H         1 UNK         0.0800 
    143 H143        1.1763  -23.8391  -46.4818 H         1 UNK         0.0600 
    144 H144        0.1804  -22.3427  -44.2237 H         1 UNK         0.3000 
    145 H145       -1.2739  -25.2942  -42.7140 H         1 UNK         0.0600 
    146 H146        0.2781  -24.6357  -40.9051 H         1 UNK         0.0600 
    147 H147        1.1812  -25.3524  -42.2295 H         1 UNK         0.0600 
    148 H148        1.1881  -23.6064  -42.0109 H         1 UNK         0.0600 
    149 H149       -1.0959  -22.6659  -41.7105 H         1 UNK         0.3000 
    150 H150       -3.9376  -21.2072  -43.1686 H         1 UNK         0.0600 
    151 H151       -5.0462  -22.7145  -41.5143 H         1 UNK         0.0600 
    152 H152       -4.8130  -21.1070  -40.8464 H         1 UNK         0.0600 
    153 H153       -3.7493  -22.4281  -40.3601 H         1 UNK         0.0600 
    154 H154       -2.3050  -20.4923  -40.9241 H         1 UNK         0.3000 
    155 H155       -0.8657  -18.5062  -41.4006 H         1 UNK         0.0600 
    156 H156        1.3696  -19.5361  -40.8179 H         1 UNK         0.0600 
    157 H157        1.0737  -20.8421  -41.9606 H         1 UNK         0.0600 
    158 H158        0.0783  -20.6791  -40.5175 H         1 UNK         0.0600 
    159 H159        0.1430  -18.8238  -44.0573 H         1 UNK         0.3000 
    160 H160        1.9235  -17.6104  -44.9146 H         1 UNK         0.0600 
    161 H161        1.2673  -15.3325  -45.6856 H         1 UNK         0.0600 
    162 H162        0.6686  -14.9385  -44.0737 H         1 UNK         0.0600 
    163 H163       -0.1253  -16.1871  -45.0253 H         1 UNK         0.0600 
    164 H164        3.1177  -15.1982  -44.0015 H         1 UNK         0.3000 
    165 H165        6.0237  -16.5486  -42.4793 H         1 UNK         0.0600 
    166 H166        5.6403  -15.2454  -45.2241 H         1 UNK         0.0600 
    167 H167        7.0957  -15.1123  -44.2355 H         1 UNK         0.0600 
    168 H168        6.5970  -16.6747  -44.8669 H         1 UNK         0.0600 
    169 H169        4.7939  -13.9656  -43.2310 H         1 UNK         0.3000 
    170 H170        3.7096  -13.2391  -39.9588 H         1 UNK         0.0600 
    171 H171        6.1330  -12.7878  -39.5874 H         1 UNK         0.0600 
    172 H172        6.2759  -12.1171  -41.2076 H         1 UNK         0.0600 
    173 H173        5.2758  -11.3112  -39.9981 H         1 UNK         0.0600 
    174 H174        4.1596  -11.6813  -42.3702 H         1 UNK         0.3000 
    175 H175        1.1274  -12.4697  -43.9442 H         1 UNK         0.0600 
    176 H176        1.6871   -9.8765  -42.4084 H         1 UNK         0.0600 
    177 H177        0.5661  -10.0657  -43.7569 H         1 UNK         0.0600 
    178 H178        0.2469  -10.8728  -42.2302 H         1 UNK         0.0600 
    179 H179        2.9100  -10.3864  -44.5373 H         1 UNK         0.3000 
    180 H180        5.2912  -10.9027  -45.5203 H         1 UNK         0.0600 
    181 H181        4.7340  -13.1886  -47.4842 H         1 UNK         0.0600 
    182 H182        6.0264  -13.1242  -46.2899 H         1 UNK         0.0600 
    183 H183        6.0334  -12.0063  -47.6408 H         1 UNK         0.0600 
    184 H184        3.5325  -11.0522  -47.8652 H         1 UNK         0.3000 
    185 H185        1.9740   -7.9199  -47.2973 H         1 UNK         0.0600 
    186 H186        4.0893   -7.3321  -48.4833 H         1 UNK         0.0600 
    187 H187        3.9776   -8.7987  -49.4488 H         1 UNK         0.0600 
    188 H188        2.7641   -7.5299  -49.6186 H         1 UNK         0.0600 
    189 H189        1.7936   -9.9450  -49.3422 H         1 UNK         0.3000 
    190 H190       -1.7827  -22.0072  -45.8140 H         1 UNK         0.3000 
    191 H191       -2.9187  -22.1735  -48.4309 H         1 UNK         0.0600 
    192 H192       -5.0337  -21.5990  -47.2701 H         1 UNK         0.0600 
    193 H193       -3.7234  -20.5884  -46.6760 H         1 UNK         0.0600 
    194 H194       -4.3046  -21.9377  -45.7060 H         1 UNK         0.0600 
    195 H195       -3.1765  -24.3203  -45.5616 H         1 UNK         0.3000 
    196 H196       -4.8775  -26.2645  -46.7250 H         1 UNK         0.0600 
    197 H197       -4.0720  -27.7032  -44.8439 H         1 UNK         0.0600 
    198 H198       -4.5028  -26.0929  -44.2886 H         1 UNK         0.0600 
    199 H199       -2.8081  -26.5341  -44.4804 H         1 UNK         0.0600 
    200 H200       -1.2782  -26.1049  -46.5706 H         1 UNK         0.3000 
    201 H201       -0.7519  -28.5303  -47.9312 H         1 UNK         0.0600 
    202 H202        0.9464  -27.3136  -46.5959 H         1 UNK         0.0600 
    203 H203        0.9322  -25.9765  -47.7446 H         1 UNK         0.0600 
    204 H204        1.5285  -27.5572  -48.2356 H         1 UNK         0.0600 
    205 H205       -1.2523  -25.2234  -49.1860 H         1 UNK         0.3000 
    206 H206       -0.8480  -25.8863  -51.9678 H         1 UNK         0.0600 
    207 H207       -0.4970  -23.5985  -51.0755 H         1 UNK         0.0600 
    208 H208       -1.7789  -23.5639  -52.2722 H         1 UNK         0.0600 
    209 H209       -2.1826  -23.5018  -50.5679 H         1 UNK         0.0600 
    210 H210       -3.4082  -26.5635  -49.8449 H         1 UNK         0.3000 
    211 H211       -5.5495  -27.0857  -49.9110 H         1 UNK         0.0600 
    212 H212       -5.0834  -27.8666  -52.8415 H         1 UNK         0.0600 
    213 H213       -6.3993  -28.4182  -51.8130 H         1 UNK         0.0600 
    214 H214       -4.7493  -28.8979  -51.4508 H         1 UNK         0.0600 
    215 H215       -4.9170  -24.4254  -50.2560 H         1 UNK         0.3000 
    216 H216       -5.4905  -22.3907  -50.7813 H         1 UNK         0.0600 
    217 H217       -8.2235  -23.4898  -51.6252 H         1 UNK         0.0600 
    218 H218       -7.8469  -21.8061  -51.3067 H         1 UNK         0.0600 
    219 H219       -7.7683  -22.9777  -50.0010 H         1 UNK         0.0600 
    220 H220       -6.4192  -24.5813  -53.3964 H         1 UNK         0.3000 
    221 H221       -6.6370  -22.8325  -55.5262 H         1 UNK         0.0600 
    222 H222       -5.7541  -25.7664  -55.5163 H         1 UNK         0.0600 
    223 H223       -7.4126  -25.1726  -55.5723 H         1 UNK         0.0600 
    224 H224       -6.3341  -24.8921  -56.9308 H         1 UNK         0.0600 
    225 H225       -3.6092  -24.5418  -54.4937 H         1 UNK         0.3000 
    226 H226       -2.0939  -23.5305  -56.7336 H         1 UNK         0.0600 
    227 H227       -1.5561  -25.6728  -55.5656 H         1 UNK         0.0600 
    228 H228       -0.1797  -24.5823  -55.6215 H         1 UNK         0.0600 
    229 H229       -1.0822  -24.7707  -54.1294 H         1 UNK         0.0600 
    230 H230       -3.0000  -22.1140  -53.7249 H         1 UNK         0.3000 
    231 H231       -0.8961  -20.0185  -53.7953 H         1 UNK         0.0600 
    232 H232       -3.1481  -20.6027  -51.7981 H         1 UNK         0.0600 
    233 H233       -1.9455  -19.3298  -51.6396 H         1 UNK         0.0600 
    234 H234       -1.4448  -21.0095  -51.5902 H         1 UNK         0.0600 
    235 H235       -3.8319  -20.6586  -55.2741 H         1 UNK         0.3000 
    236 H236       -5.4005  -19.5900  -56.3585 H         1 UNK         0.0600 
    237 H237       -3.5196  -18.3160  -57.4244 H         1 UNK         0.0600 
    238 H238       -5.0051  -17.3838  -57.3488 H         1 UNK         0.0600 
    239 H239       -3.7053  -17.0440  -56.2170 H         1 UNK         0.0600 
    240 H240       -5.5682  -19.8308  -53.5004 H         1 UNK         0.3000 
    241 H241       -7.0707  -17.4522  -52.5899 H         1 UNK         0.0600 
    242 H242       -7.9793  -20.2180  -54.3420 H         1 UNK         0.3800 
    243 H243       -9.6219  -20.3081  -53.7598 H         1 UNK         0.3800 
    244 H244       -7.0282  -18.5579  -50.3619 H         1 UNK         0.0800 
    245 H245       -6.2157  -19.9459  -51.0498 H         1 UNK         0.0800 
    246 H246       -4.3970  -19.7389  -49.1975 H         1 UNK         0.0800 
    247 H247       -5.1151  -18.3001  -48.5062 H         1 UNK         0.0800 
@<TRIPOS>BOND
     1    1    2 1    
     2    1  127 1    
     3    1  128 1    
     4    1  129 1    
     5    2    3 2    
     6    2    4 am   BACKBONE|DICT|INTERRES
     7    4    5 1    
     8    4  130 1    
     9    5    6 1    
    10    5   65 1    
    11    5  131 1    
    12    6    7 1    
    13    6  132 1    
    14    6  133 1    
    15    7    8 1    
    16    8    9 1    
    17    8  134 1    
    18    8  135 1    
    19    9   10 ar   
    20    9   14 ar   
    21   10   11 ar   
    22   10  136 1    
    23   11   12 ar   
    24   11  126 1    
    25   12   13 ar   
    26   12  137 1    
    27   13   14 ar   
    28   13   15 1    
    29   14  138 1    
    30   15   16 1    
    31   15  139 1    
    32   15  140 1    
    33   16   17 1    
    34   17   18 1    
    35   17  141 1    
    36   17  142 1    
    37   18   19 1    
    38   18   67 1    
    39   18  143 1    
    40   19   20 am   BACKBONE|DICT|INTERRES
    41   19  144 1    
    42   20   21 2    
    43   20   22 1    
    44   22   23 1    
    45   22   24 1    
    46   22  145 1    
    47   23  146 1    
    48   23  147 1    
    49   23  148 1    
    50   24   25 am   BACKBONE|DICT|INTERRES
    51   24  149 1    
    52   25   26 2    
    53   25   27 1    
    54   27   28 1    
    55   27   29 1    
    56   27  150 1    
    57   28  151 1    
    58   28  152 1    
    59   28  153 1    
    60   29   30 am   BACKBONE|DICT|INTERRES
    61   29  154 1    
    62   30   31 2    
    63   30   32 1    
    64   32   33 1    
    65   32   34 1    
    66   32  155 1    
    67   33  156 1    
    68   33  157 1    
    69   33  158 1    
    70   34   35 am   BACKBONE|DICT|INTERRES
    71   34  159 1    
    72   35   36 2    
    73   35   37 1    
    74   37   38 1    
    75   37   39 1    
    76   37  160 1    
    77   38  161 1    
    78   38  162 1    
    79   38  163 1    
    80   39   40 am   BACKBONE|DICT|INTERRES
    81   39  164 1    
    82   40   41 2    
    83   40   42 1    
    84   42   43 1    
    85   42   44 1    
    86   42  165 1    
    87   43  166 1    
    88   43  167 1    
    89   43  168 1    
    90   44   45 am   BACKBONE|DICT|INTERRES
    91   44  169 1    
    92   45   46 2    
    93   45   47 1    
    94   47   48 1    
    95   47   49 1    
    96   47  170 1    
    97   48  171 1    
    98   48  172 1    
    99   48  173 1    
   100   49   50 am   BACKBONE|DICT|INTERRES
   101   49  174 1    
   102   50   51 2    
   103   50   52 1    
   104   52   53 1    
   105   52   54 1    
   106   52  175 1    
   107   53  176 1    
   108   53  177 1    
   109   53  178 1    
   110   54   55 am   BACKBONE|DICT|INTERRES
   111   54  179 1    
   112   55   56 2    
   113   55   57 1    
   114   57   58 1    
   115   57   59 1    
   116   57  180 1    
   117   58  181 1    
   118   58  182 1    
   119   58  183 1    
   120   59   60 am   BACKBONE|DICT|INTERRES
   121   59  184 1    
   122   60   61 2    
   123   60   62 1    
   124   62   63 1    
   125   62   64 1    
   126   62  185 1    
   127   63  186 1    
   128   63  187 1    
   129   63  188 1    
   130   64   65 am   BACKBONE|DICT|INTERRES
   131   64  189 1    
   132   65   66 2    
   133   67   68 2    
   134   67   69 am   BACKBONE|DICT|INTERRES
   135   69   70 1    
   136   69  190 1    
   137   70   71 1    
   138   70   72 1    
   139   70  191 1    
   140   71  192 1    
   141   71  193 1    
   142   71  194 1    
   143   72   73 2    
   144   72   74 am   BACKBONE|DICT|INTERRES
   145   74   75 1    
   146   74  195 1    
   147   75   76 1    
   148   75   77 1    
   149   75  196 1    
   150   76  197 1    
   151   76  198 1    
   152   76  199 1    
   153   77   78 2    
   154   77   79 am   BACKBONE|DICT|INTERRES
   155   79   80 1    
   156   79  200 1    
   157   80   81 1    
   158   80   82 1    
   159   80  201 1    
   160   81  202 1    
   161   81  203 1    
   162   81  204 1    
   163   82   83 2    
   164   82   84 am   BACKBONE|DICT|INTERRES
   165   84   85 1    
   166   84  205 1    
   167   85   86 1    
   168   85   87 1    
   169   85  206 1    
   170   86  207 1    
   171   86  208 1    
   172   86  209 1    
   173   87   88 2    
   174   87   89 am   BACKBONE|DICT|INTERRES
   175   89   90 1    
   176   89  210 1    
   177   90   91 1    
   178   90   92 1    
   179   90  211 1    
   180   91  212 1    
   181   91  213 1    
   182   91  214 1    
   183   92   93 2    
   184   92   94 am   BACKBONE|DICT|INTERRES
   185   94   95 1    
   186   94  215 1    
   187   95   96 1    
   188   95   97 1    
   189   95  216 1    
   190   96  217 1    
   191   96  218 1    
   192   96  219 1    
   193   97   98 2    
   194   97   99 am   BACKBONE|DICT|INTERRES
   195   99  100 1    
   196   99  220 1    
   197  100  101 1    
   198  100  102 1    
   199  100  221 1    
   200  101  222 1    
   201  101  223 1    
   202  101  224 1    
   203  102  103 2    
   204  102  104 am   BACKBONE|DICT|INTERRES
   205  104  105 1    
   206  104  225 1    
   207  105  106 1    
   208  105  107 1    
   209  105  226 1    
   210  106  227 1    
   211  106  228 1    
   212  106  229 1    
   213  107  108 2    
   214  107  109 am   BACKBONE|DICT|INTERRES
   215  109  110 1    
   216  109  230 1    
   217  110  111 1    
   218  110  112 1    
   219  110  231 1    
   220  111  232 1    
   221  111  233 1    
   222  111  234 1    
   223  112  113 2    
   224  112  114 am   BACKBONE|DICT|INTERRES
   225  114  115 1    
   226  114  235 1    
   227  115  116 1    
   228  115  117 1    
   229  115  236 1    
   230  116  237 1    
   231  116  238 1    
   232  116  239 1    
   233  117  118 2    
   234  117  119 am   BACKBONE|DICT|INTERRES
   235  119  120 1    
   236  119  240 1    
   237  120  121 1    
   238  120  124 1    
   239  120  241 1    
   240  121  122 am   BACKBONE|DICT|INTERRES
   241  121  123 2    
   242  122  242 1    
   243  122  243 1    
   244  124  125 1    
   245  124  244 1    
   246  124  245 1    
   247  125  126 1    
   248  126  246 1    
   249  126  247 1    
@<TRIPOS>SUBSTRUCTURE
     1 UNK         1 GROUP             0       ****    0 ROOT    
