@<TRIPOS>MOLECULE
3R540
247   249    1
SMALL
USER_CHARGES


@<TRIPOS>ATOM
      1 CA         -2.1544  -14.5986  -46.3991 C.3       0 UNK        -0.1800 
      2 C          -1.1367  -14.0465  -47.3853 C.2       0 UNK         0.5000 
      3 O          -0.3814  -13.1341  -47.0496 O.2       0 UNK        -0.5000 
      4 N          -1.1191  -14.6007  -48.6019 N.am      1 UNK        -0.5000 
      5 CA         -0.1151  -14.3378  -49.6377 C.3       1 UNK         0.1400 
      6 C6         -0.6366  -14.6891  -51.0569 C.3       23 UNK        -0.0398 
      7 S7         -1.4310  -16.3312  -51.1801 S.3       23 UNK        -0.2404 
      8 C8         -3.1959  -15.8819  -51.1978 C.3       23 UNK        -0.0205 
      9 C9         -4.0311  -16.8661  -50.3945 C.ar      23 UNK        -0.0193 
     10 C10        -4.2818  -18.1468  -50.8935 C.ar      23 UNK        -0.1150 
     11 C11        -5.0673  -19.0502  -50.1714 C.ar      23 UNK        -0.0193 
     12 C12        -5.6058  -18.6631  -48.9416 C.ar      23 UNK        -0.1150 
     13 C13        -5.3663  -17.3833  -48.4335 C.ar      23 UNK        -0.0193 
     14 C14        -4.5744  -16.4908  -49.1617 C.ar      23 UNK        -0.1150 
     15 C15        -5.9828  -16.9562  -47.1096 C.3       23 UNK        -0.0205 
     16 S16        -4.7861  -17.0166  -45.7400 S.3       23 UNK        -0.2404 
     17 C17        -4.4531  -18.8036  -45.6057 C.3       23 UNK        -0.0398 
     18 CA         -3.1119  -19.2091  -46.2636 C.3       11 UNK         0.1400 
     19 N          -1.9432  -18.6751  -45.5542 N.am      11 UNK        -0.5000 
     20 C          -0.6766  -18.7822  -45.9834 C.2       10 UNK         0.5000 
     21 O          -0.3611  -19.2938  -47.0563 O.2       10 UNK        -0.5000 
     22 CA          0.4307  -18.3204  -45.0186 C.3       10 UNK         0.1400 
     23 CB          0.5990  -16.7937  -45.0281 C.3       10 UNK        -0.1800 
     24 N           0.1959  -18.7859  -43.6518 N.am      10 UNK        -0.5000 
     25 C           0.1995  -20.0725  -43.2760 C.2       9 UNK         0.5000 
     26 O           0.4530  -21.0051  -44.0356 O.2       9 UNK        -0.5000 
     27 CA         -0.1930  -20.3753  -41.8197 C.3       9 UNK         0.1400 
     28 CB          1.0207  -20.2718  -40.8828 C.3       9 UNK        -0.1800 
     29 N          -1.2645  -19.4986  -41.3486 N.am      9 UNK        -0.5000 
     30 C          -2.5277  -19.5441  -41.7970 C.2       8 UNK         0.5000 
     31 O          -2.9332  -20.3645  -42.6204 O.2       8 UNK        -0.5000 
     32 CA         -3.4831  -18.4563  -41.2722 C.3       8 UNK         0.1400 
     33 CB         -4.0661  -18.8577  -39.9093 C.3       8 UNK        -0.1800 
     34 N          -2.8357  -17.1478  -41.1582 N.am      8 UNK        -0.5000 
     35 C          -2.3663  -16.4460  -42.1999 C.2       7 UNK         0.5000 
     36 O          -2.4597  -16.8177  -43.3675 O.2       7 UNK        -0.5000 
     37 CA         -1.6057  -15.1469  -41.8749 C.3       7 UNK         0.1400 
     38 CB         -2.5821  -13.9736  -41.7081 C.3       7 UNK        -0.1800 
     39 N          -0.7631  -15.2628  -40.6797 N.am      7 UNK        -0.5000 
     40 C           0.2688  -16.1090  -40.5685 C.2       6 UNK         0.5000 
     41 O           0.6206  -16.8771  -41.4677 O.2       6 UNK        -0.5000 
     42 CA          0.9931  -16.1437  -39.2171 C.3       6 UNK         0.1400 
     43 CB          0.1758  -16.9382  -38.1818 C.3       6 UNK        -0.1800 
     44 N           2.2931  -16.7757  -39.4078 N.am      6 UNK        -0.5000 
     45 C           3.3683  -16.6204  -38.6281 C.2       5 UNK         0.5000 
     46 O           3.3754  -15.9277  -37.6095 O.2       5 UNK        -0.5000 
     47 CA          4.6567  -17.3633  -39.0447 C.3       5 UNK         0.1400 
     48 CB          4.8481  -18.6199  -38.1807 C.3       5 UNK        -0.1800 
     49 N           4.7005  -17.7554  -40.4579 N.am      5 UNK        -0.5000 
     50 C           4.7870  -16.9038  -41.4879 C.2       4 UNK         0.5000 
     51 O           4.8479  -15.6774  -41.3547 O.2       4 UNK        -0.5000 
     52 CA          4.7904  -17.5229  -42.8975 C.3       4 UNK         0.1400 
     53 CB          3.5790  -18.4523  -43.1083 C.3       4 UNK        -0.1800 
     54 N           4.7808  -16.4285  -43.8631 N.am      4 UNK        -0.5000 
     55 C           4.9888  -16.5065  -45.1795 C.2       3 UNK         0.5000 
     56 O           5.1958  -17.5569  -45.7930 O.2       3 UNK        -0.5000 
     57 CA          4.9952  -15.1694  -45.9307 C.3       3 UNK         0.1400 
     58 CB          6.3761  -14.4940  -45.8453 C.3       3 UNK        -0.1800 
     59 N           4.6380  -15.3959  -47.3271 N.am      3 UNK        -0.5000 
     60 C           4.0650  -14.4894  -48.1252 C.2       2 UNK         0.5000 
     61 O           3.8211  -13.3341  -47.7692 O.2       2 UNK        -0.5000 
     62 CA          3.7054  -14.9090  -49.5671 C.3       2 UNK         0.1400 
     63 CB          4.0029  -16.3879  -49.9102 C.3       2 UNK        -0.1800 
     64 N           2.3175  -14.5441  -49.8746 N.am      2 UNK        -0.5000 
     65 C           1.2145  -15.0521  -49.3049 C.2       1 UNK         0.5000 
     66 O           1.2198  -16.0262  -48.5492 O.2       1 UNK        -0.5000 
     67 C          -3.0406  -20.7416  -46.4258 C.2       11 UNK         0.5000 
     68 O          -3.3130  -21.2437  -47.5156 O.2       11 UNK        -0.5000 
     69 N          -2.6534  -21.4579  -45.3594 N.am      12 UNK        -0.5000 
     70 CA         -2.4677  -22.9107  -45.3706 C.3       12 UNK         0.1400 
     71 CB         -2.2314  -23.4187  -43.9408 C.3       12 UNK        -0.1800 
     72 C          -1.3330  -23.3588  -46.3100 C.2       12 UNK         0.5000 
     73 O          -1.5137  -24.3144  -47.0649 O.2       12 UNK        -0.5000 
     74 N          -0.2028  -22.6391  -46.2811 N.am      13 UNK        -0.5000 
     75 CA          0.9346  -22.8434  -47.1773 C.3       13 UNK         0.1400 
     76 CB          2.1125  -21.9617  -46.7358 C.3       13 UNK        -0.1800 
     77 C           0.5736  -22.5832  -48.6496 C.2       13 UNK         0.5000 
     78 O           0.9340  -23.3850  -49.5094 O.2       13 UNK        -0.5000 
     79 N          -0.1696  -21.4998  -48.9102 N.am      14 UNK        -0.5000 
     80 CA         -0.6887  -21.1489  -50.2312 C.3       14 UNK         0.1400 
     81 CB         -1.3082  -19.7489  -50.1770 C.3       14 UNK        -0.1800 
     82 C          -1.7011  -22.1747  -50.7713 C.2       14 UNK         0.5000 
     83 O          -1.6794  -22.4752  -51.9650 O.2       14 UNK        -0.5000 
     84 N          -2.5508  -22.7181  -49.8888 N.am      15 UNK        -0.5000 
     85 CA         -3.4909  -23.7925  -50.2057 C.3       15 UNK         0.1400 
     86 CB         -4.4795  -23.9841  -49.0460 C.3       15 UNK        -0.1800 
     87 C          -2.7705  -25.1092  -50.5451 C.2       15 UNK         0.5000 
     88 O          -3.1293  -25.7553  -51.5294 O.2       15 UNK        -0.5000 
     89 N          -1.7397  -25.4569  -49.7606 N.am      16 UNK        -0.5000 
     90 CA         -0.8756  -26.6192  -49.9836 C.3       16 UNK         0.1400 
     91 CB          0.0390  -26.8198  -48.7659 C.3       16 UNK        -0.1800 
     92 C          -0.0483  -26.5129  -51.2799 C.2       16 UNK         0.5000 
     93 O           0.1082  -27.5099  -51.9856 O.2       16 UNK        -0.5000 
     94 N           0.4332  -25.3009  -51.5877 N.am      17 UNK        -0.5000 
     95 CA          1.1378  -24.9599  -52.8261 C.3       17 UNK         0.1400 
     96 CB          1.8779  -23.6282  -52.6244 C.3       17 UNK        -0.1800 
     97 C           0.2162  -24.8742  -54.0609 C.2       17 UNK         0.5000 
     98 O           0.7254  -24.8384  -55.1817 O.2       17 UNK        -0.5000 
     99 N          -1.1054  -24.8352  -53.8351 N.am      18 UNK        -0.5000 
    100 CA        -2.1825  -24.6921  -54.8154 C.3       18 UNK         0.1400 
    101 CB        -2.2501  -25.9191  -55.7487 C.3       18 UNK        -0.1800 
    102 C         -2.1048  -23.3490  -55.5680 C.2       18 UNK         0.5000 
    103 O         -2.0764  -23.3246  -56.8000 O.2       18 UNK        -0.5000 
    104 N         -2.0688  -22.2504  -54.7982 N.am      19 UNK        -0.5000 
    105 CA        -2.0199  -20.8665  -55.2844 C.3       19 UNK         0.1400 
    106 CB        -1.9068  -19.9175  -54.0809 C.3       19 UNK        -0.1800 
    107 C         -3.2174  -20.4633  -56.1699 C.2       19 UNK         0.5000 
    108 O         -3.0522  -19.6348  -57.0657 O.2       19 UNK        -0.5000 
    109 N         -4.3875  -21.0669  -55.9075 N.am      20 UNK        -0.5000 
    110 CA        -5.6364  -20.9716  -56.6770 C.3       20 UNK         0.1400 
    111 CB        -5.4480  -21.5537  -58.0938 C.3       20 UNK        -0.1800 
    112 C         -6.2880  -19.5703  -56.6932 C.2       20 UNK         0.5000 
    113 O         -7.1334  -19.3004  -57.5485 O.2       20 UNK        -0.5000 
    114 N         -5.9120  -18.7190  -55.7320 N.am      21 UNK        -0.5000 
    115 CA        -6.5598  -17.4466  -55.4303 C.3       21 UNK         0.1400 
    116 CB        -5.4792  -16.4221  -55.0272 C.3       21 UNK        -0.1800 
    117 C         -7.5981  -17.7263  -54.3309 C.2       21 UNK         0.5000 
    118 O         -8.6944  -18.1977  -54.6361 O.2       21 UNK        -0.5000 
    119 N         -7.1982  -17.5097  -53.0728 N.am      22 UNK        -0.5000 
    120 CA        -7.8527  -18.0181  -51.8546 C.3       22 UNK         0.1400 
    121 C         -9.2396  -17.3912  -51.5187 C.2       22 UNK         0.5000 
    122 N         -9.6164  -16.2667  -52.1144 N.am      22 UNK        -0.7600 
    123 O         -9.9752  -17.9107  -50.6837 O.2       22 UNK        -0.5000 
    124 C124       -7.8615  -19.5774  -51.7712 C.3       23 UNK        -0.0398 
    125 S125       -6.2943  -20.3823  -52.2824 S.3       23 UNK        -0.2404 
    126 C126       -5.3511  -20.4367  -50.7269 C.3       23 UNK        -0.0205 
    127 H127       -2.2496  -15.6790  -46.5096 H         1 UNK         0.0600 
    128 H128       -3.1317  -14.1450  -46.5640 H         1 UNK         0.0600 
    129 H129       -1.8504  -14.3943  -45.3722 H         1 UNK         0.0600 
    130 H130       -1.7280  -15.3817  -48.8010 H         1 UNK         0.3000 
    131 H131        0.0944  -13.2657  -49.6290 H         1 UNK         0.0600 
    132 H132       -1.3436  -13.9239  -51.3787 H         1 UNK         0.0800 
    133 H133        0.1709  -14.6459  -51.7898 H         1 UNK         0.0800 
    134 H134       -3.5466  -15.8557  -52.2301 H         1 UNK         0.0800 
    135 H135       -3.3370  -14.8748  -50.8031 H         1 UNK         0.0800 
    136 H136       -3.8686  -18.4395  -51.8480 H         1 UNK         0.1150 
    137 H137       -6.2206  -19.3556  -48.3844 H         1 UNK         0.1150 
    138 H138       -4.3918  -15.5004  -48.7690 H         1 UNK         0.1150 
    139 H139       -6.3588  -15.9361  -47.2003 H         1 UNK         0.0800 
    140 H140       -6.8474  -17.5757  -46.8666 H         1 UNK         0.0800 
    141 H141       -5.2891  -19.3463  -46.0501 H         1 UNK         0.0800 
    142 H142       -4.4534  -19.0711  -44.5482 H         1 UNK         0.0800 
    143 H143       -3.0885  -18.7890  -47.2714 H         1 UNK         0.0600 
    144 H144       -2.1261  -18.1821  -44.6839 H         1 UNK         0.3000 
    145 H145        1.3693  -18.7598  -45.3620 H         1 UNK         0.0600 
    146 H146        1.4115  -16.4777  -44.3744 H         1 UNK         0.0600 
    147 H147        0.8334  -16.4363  -46.0295 H         1 UNK         0.0600 
    148 H148       -0.3059  -16.2828  -44.7058 H         1 UNK         0.0600 
    149 H149        0.0306  -18.0743  -42.9479 H         1 UNK         0.3000 
    150 H150       -0.5581  -21.4036  -41.7809 H         1 UNK         0.0600 
    151 H151        1.8073  -20.9614  -41.1915 H         1 UNK         0.0600 
    152 H152        0.7509  -20.5253  -39.8576 H         1 UNK         0.0600 
    153 H153        1.4500  -19.2713  -40.8778 H         1 UNK         0.0600 
    154 H154       -1.0024  -18.7609  -40.7130 H         1 UNK         0.3000 
    155 H155       -4.3062  -18.3652  -41.9841 H         1 UNK         0.0600 
    156 H156       -3.2915  -18.9367  -39.1454 H         1 UNK         0.0600 
    157 H157       -4.5679  -19.8244  -39.9696 H         1 UNK         0.0600 
    158 H158       -4.8032  -18.1312  -39.5667 H         1 UNK         0.0600 
    159 H159       -2.7161  -16.7734  -40.2289 H         1 UNK         0.3000 
    160 H160       -0.9533  -14.9266  -42.7224 H         1 UNK         0.0600 
    161 H161       -2.0485  -13.0339  -41.5644 H         1 UNK         0.0600 
    162 H162       -3.2460  -14.1179  -40.8549 H         1 UNK         0.0600 
    163 H163       -3.2068  -13.8586  -42.5951 H         1 UNK         0.0600 
    164 H164       -0.9988  -14.6656  -39.9001 H         1 UNK         0.3000 
    165 H165        1.1336  -15.1165  -38.8743 H         1 UNK         0.0600 
    166 H166        0.6741  -16.9535  -37.2124 H         1 UNK         0.0600 
    167 H167       -0.8087  -16.4946  -38.0294 H         1 UNK         0.0600 
    168 H168        0.0275  -17.9723  -38.4955 H         1 UNK         0.0600 
    169 H169        2.3709  -17.3078  -40.2643 H         1 UNK         0.3000 
    170 H170        5.4945  -16.6887  -38.8560 H         1 UNK         0.0600 
    171 H171        4.8555  -18.3682  -37.1193 H         1 UNK         0.0600 
    172 H172        4.0471  -19.3430  -38.3406 H         1 UNK         0.0600 
    173 H173        5.7955  -19.1116  -38.4021 H         1 UNK         0.0600 
    174 H174        4.6624  -18.7467  -40.6454 H         1 UNK         0.3000 
    175 H175        5.7154  -18.0895  -43.0197 H         1 UNK         0.0600 
    176 H176        3.6217  -19.3217  -42.4524 H         1 UNK         0.0600 
    177 H177        3.5280  -18.8334  -44.1276 H         1 UNK         0.0600 
    178 H178        2.6488  -17.9276  -42.8990 H         1 UNK         0.0600 
    179 H179        4.6715  -15.5225  -43.4214 H         1 UNK         0.3000 
    180 H180        4.2462  -14.5220  -45.4688 H         1 UNK         0.0600 
    181 H181        7.1500  -15.1057  -46.3106 H         1 UNK         0.0600 
    182 H182        6.6681  -14.3266  -44.8078 H         1 UNK         0.0600 
    183 H183        6.3742  -13.5229  -46.3405 H         1 UNK         0.0600 
    184 H184        4.7717  -16.3466  -47.6480 H         1 UNK         0.3000 
    185 H185        4.3293  -14.2965  -50.2195 H         1 UNK         0.0600 
    186 H186        5.0696  -16.6003  -49.8298 H         1 UNK         0.0600 
    187 H187        3.4787  -17.0839  -49.2548 H         1 UNK         0.0600 
    188 H188        3.7091  -16.6159  -50.9347 H         1 UNK         0.0600 
    189 H189        2.2177  -13.7287  -50.4628 H         1 UNK         0.3000 
    190 H190       -2.4930  -20.9840  -44.4762 H         1 UNK         0.3000 
    191 H191       -3.3939  -23.3587  -45.7364 H         1 UNK         0.0600 
    192 H192       -1.3215  -23.0027  -43.5092 H         1 UNK         0.0600 
    193 H193       -2.1345  -24.5050  -43.9249 H         1 UNK         0.0600 
    194 H194       -3.0628  -23.1563  -43.2864 H         1 UNK         0.0600 
    195 H195       -0.1081  -21.8993  -45.5894 H         1 UNK         0.3000 
    196 H196        1.2424  -23.8873  -47.0907 H         1 UNK         0.0600 
    197 H197        2.9765  -22.1104  -47.3845 H         1 UNK         0.0600 
    198 H198        2.4237  -22.2010  -45.7188 H         1 UNK         0.0600 
    199 H199        1.8574  -20.9021  -46.7653 H         1 UNK         0.0600 
    200 H200       -0.3844  -20.8552  -48.1531 H         1 UNK         0.3000 
    201 H201        0.1541  -21.1185  -50.9242 H         1 UNK         0.0600 
    202 H202       -0.5755  -19.0062  -49.8610 H         1 UNK         0.0600 
    203 H203       -2.1470  -19.7037  -49.4824 H         1 UNK         0.0600 
    204 H204       -1.6741  -19.4462  -51.1573 H         1 UNK         0.0600 
    205 H205       -2.5651  -22.3613  -48.9376 H         1 UNK         0.3000 
    206 H206       -4.0613  -23.4894  -51.0863 H         1 UNK         0.0600 
    207 H207       -5.0295  -23.0662  -48.8400 H         1 UNK         0.0600 
    208 H208       -5.2121  -24.7566  -49.2825 H         1 UNK         0.0600 
    209 H209       -3.9744  -24.2813  -48.1274 H         1 UNK         0.0600 
    210 H210       -1.5385  -24.8910  -48.9407 H         1 UNK         0.3000 
    211 H211       -1.5175  -27.4980  -50.0728 H         1 UNK         0.0600 
    212 H212        0.6930  -25.9622  -48.6069 H         1 UNK         0.0600 
    213 H213        0.6732  -27.6979  -48.8937 H         1 UNK         0.0600 
    214 H214       -0.5434  -26.9678  -47.8563 H         1 UNK         0.0600 
    215 H215        0.3353  -24.5530  -50.9059 H         1 UNK         0.3000 
    216 H216        1.8794  -25.7363  -53.0244 H         1 UNK         0.0600 
    217 H217        2.4532  -23.3594  -53.5112 H         1 UNK         0.0600 
    218 H218        2.5771  -23.6870  -51.7901 H         1 UNK         0.0600 
    219 H219        1.1833  -22.8120  -52.4239 H         1 UNK         0.0600 
    220 H220       -1.4058  -24.8438  -52.8693 H         1 UNK         0.3000 
    221 H221       -3.1112  -24.6683  -54.2433 H         1 UNK         0.0600 
    222 H222       -3.1215  -25.8622  -56.4020 H         1 UNK         0.0600 
    223 H223       -2.3332  -26.8431  -55.1764 H         1 UNK         0.0600 
    224 H224       -1.3697  -25.9978  -56.3868 H         1 UNK         0.0600 
    225 H225       -2.0257  -22.3711  -53.7877 H         1 UNK         0.3000 
    226 H226       -1.1171  -20.7629  -55.8896 H         1 UNK         0.0600 
    227 H227       -0.9964  -20.1110  -53.5133 H         1 UNK         0.0600 
    228 H228       -1.8738  -18.8748  -54.3999 H         1 UNK         0.0600 
    229 H229       -2.7543  -20.0288  -53.4034 H         1 UNK         0.0600 
    230 H230       -4.4078  -21.7090  -55.1279 H         1 UNK         0.3000 
    231 H231       -6.3486  -21.6142  -56.1575 H         1 UNK         0.0600 
    232 H232       -5.0029  -22.5481  -58.0552 H         1 UNK         0.0600 
    233 H233       -4.8051  -20.9227  -58.7081 H         1 UNK         0.0600 
    234 H234       -6.4034  -21.6476  -58.6111 H         1 UNK         0.0600 
    235 H235       -5.2372  -19.0493  -55.0583 H         1 UNK         0.3000 
    236 H236       -7.0892  -17.0609  -56.3040 H         1 UNK         0.0600 
    237 H237       -4.8312  -16.1953  -55.8741 H         1 UNK         0.0600 
    238 H238       -5.9281  -15.4814  -54.7057 H         1 UNK         0.0600 
    239 H239       -4.8414  -16.7855  -54.2206 H         1 UNK         0.0600 
    240 H240       -6.2877  -17.1004  -52.9282 H         1 UNK         0.3000 
    241 H241       -7.2221  -17.6592  -51.0438 H         1 UNK         0.0600 
    242 H242      -10.5098  -15.8581  -51.8890 H         1 UNK         0.3800 
    243 H243       -9.0231  -15.8311  -52.8025 H         1 UNK         0.3800 
    244 H244       -8.6503  -19.9753  -52.4112 H         1 UNK         0.0800 
    245 H245       -8.1070  -19.9011  -50.7585 H         1 UNK         0.0800 
    246 H246       -4.4022  -20.9353  -50.9165 H         1 UNK         0.0800 
    247 H247       -5.8851  -21.0508  -50.0007 H         1 UNK         0.0800 
@<TRIPOS>BOND
     1    1    2 1    
     2    1  127 1    
     3    1  128 1    
     4    1  129 1    
     5    2    3 2    
     6    2    4 am   BACKBONE|DICT|INTERRES
     7    4    5 1    
     8    4  130 1    
     9    5    6 1    
    10    5   65 1    
    11    5  131 1    
    12    6    7 1    
    13    6  132 1    
    14    6  133 1    
    15    7    8 1    
    16    8    9 1    
    17    8  134 1    
    18    8  135 1    
    19    9   10 ar   
    20    9   14 ar   
    21   10   11 ar   
    22   10  136 1    
    23   11   12 ar   
    24   11  126 1    
    25   12   13 ar   
    26   12  137 1    
    27   13   14 ar   
    28   13   15 1    
    29   14  138 1    
    30   15   16 1    
    31   15  139 1    
    32   15  140 1    
    33   16   17 1    
    34   17   18 1    
    35   17  141 1    
    36   17  142 1    
    37   18   19 1    
    38   18   67 1    
    39   18  143 1    
    40   19   20 am   BACKBONE|DICT|INTERRES
    41   19  144 1    
    42   20   21 2    
    43   20   22 1    
    44   22   23 1    
    45   22   24 1    
    46   22  145 1    
    47   23  146 1    
    48   23  147 1    
    49   23  148 1    
    50   24   25 am   BACKBONE|DICT|INTERRES
    51   24  149 1    
    52   25   26 2    
    53   25   27 1    
    54   27   28 1    
    55   27   29 1    
    56   27  150 1    
    57   28  151 1    
    58   28  152 1    
    59   28  153 1    
    60   29   30 am   BACKBONE|DICT|INTERRES
    61   29  154 1    
    62   30   31 2    
    63   30   32 1    
    64   32   33 1    
    65   32   34 1    
    66   32  155 1    
    67   33  156 1    
    68   33  157 1    
    69   33  158 1    
    70   34   35 am   BACKBONE|DICT|INTERRES
    71   34  159 1    
    72   35   36 2    
    73   35   37 1    
    74   37   38 1    
    75   37   39 1    
    76   37  160 1    
    77   38  161 1    
    78   38  162 1    
    79   38  163 1    
    80   39   40 am   BACKBONE|DICT|INTERRES
    81   39  164 1    
    82   40   41 2    
    83   40   42 1    
    84   42   43 1    
    85   42   44 1    
    86   42  165 1    
    87   43  166 1    
    88   43  167 1    
    89   43  168 1    
    90   44   45 am   BACKBONE|DICT|INTERRES
    91   44  169 1    
    92   45   46 2    
    93   45   47 1    
    94   47   48 1    
    95   47   49 1    
    96   47  170 1    
    97   48  171 1    
    98   48  172 1    
    99   48  173 1    
   100   49   50 am   BACKBONE|DICT|INTERRES
   101   49  174 1    
   102   50   51 2    
   103   50   52 1    
   104   52   53 1    
   105   52   54 1    
   106   52  175 1    
   107   53  176 1    
   108   53  177 1    
   109   53  178 1    
   110   54   55 am   BACKBONE|DICT|INTERRES
   111   54  179 1    
   112   55   56 2    
   113   55   57 1    
   114   57   58 1    
   115   57   59 1    
   116   57  180 1    
   117   58  181 1    
   118   58  182 1    
   119   58  183 1    
   120   59   60 am   BACKBONE|DICT|INTERRES
   121   59  184 1    
   122   60   61 2    
   123   60   62 1    
   124   62   63 1    
   125   62   64 1    
   126   62  185 1    
   127   63  186 1    
   128   63  187 1    
   129   63  188 1    
   130   64   65 am   BACKBONE|DICT|INTERRES
   131   64  189 1    
   132   65   66 2    
   133   67   68 2    
   134   67   69 am   BACKBONE|DICT|INTERRES
   135   69   70 1    
   136   69  190 1    
   137   70   71 1    
   138   70   72 1    
   139   70  191 1    
   140   71  192 1    
   141   71  193 1    
   142   71  194 1    
   143   72   73 2    
   144   72   74 am   BACKBONE|DICT|INTERRES
   145   74   75 1    
   146   74  195 1    
   147   75   76 1    
   148   75   77 1    
   149   75  196 1    
   150   76  197 1    
   151   76  198 1    
   152   76  199 1    
   153   77   78 2    
   154   77   79 am   BACKBONE|DICT|INTERRES
   155   79   80 1    
   156   79  200 1    
   157   80   81 1    
   158   80   82 1    
   159   80  201 1    
   160   81  202 1    
   161   81  203 1    
   162   81  204 1    
   163   82   83 2    
   164   82   84 am   BACKBONE|DICT|INTERRES
   165   84   85 1    
   166   84  205 1    
   167   85   86 1    
   168   85   87 1    
   169   85  206 1    
   170   86  207 1    
   171   86  208 1    
   172   86  209 1    
   173   87   88 2    
   174   87   89 am   BACKBONE|DICT|INTERRES
   175   89   90 1    
   176   89  210 1    
   177   90   91 1    
   178   90   92 1    
   179   90  211 1    
   180   91  212 1    
   181   91  213 1    
   182   91  214 1    
   183   92   93 2    
   184   92   94 am   BACKBONE|DICT|INTERRES
   185   94   95 1    
   186   94  215 1    
   187   95   96 1    
   188   95   97 1    
   189   95  216 1    
   190   96  217 1    
   191   96  218 1    
   192   96  219 1    
   193   97   98 2    
   194   97   99 am   BACKBONE|DICT|INTERRES
   195   99  100 1    
   196   99  220 1    
   197  100  101 1    
   198  100  102 1    
   199  100  221 1    
   200  101  222 1    
   201  101  223 1    
   202  101  224 1    
   203  102  103 2    
   204  102  104 am   BACKBONE|DICT|INTERRES
   205  104  105 1    
   206  104  225 1    
   207  105  106 1    
   208  105  107 1    
   209  105  226 1    
   210  106  227 1    
   211  106  228 1    
   212  106  229 1    
   213  107  108 2    
   214  107  109 am   BACKBONE|DICT|INTERRES
   215  109  110 1    
   216  109  230 1    
   217  110  111 1    
   218  110  112 1    
   219  110  231 1    
   220  111  232 1    
   221  111  233 1    
   222  111  234 1    
   223  112  113 2    
   224  112  114 am   BACKBONE|DICT|INTERRES
   225  114  115 1    
   226  114  235 1    
   227  115  116 1    
   228  115  117 1    
   229  115  236 1    
   230  116  237 1    
   231  116  238 1    
   232  116  239 1    
   233  117  118 2    
   234  117  119 am   BACKBONE|DICT|INTERRES
   235  119  120 1    
   236  119  240 1    
   237  120  121 1    
   238  120  124 1    
   239  120  241 1    
   240  121  122 am   BACKBONE|DICT|INTERRES
   241  121  123 2    
   242  122  242 1    
   243  122  243 1    
   244  124  125 1    
   245  124  244 1    
   246  124  245 1    
   247  125  126 1    
   248  126  246 1    
   249  126  247 1    
@<TRIPOS>SUBSTRUCTURE
     1 UNK         1 GROUP             0       ****    0 ROOT    
