@<TRIPOS>MOLECULE
3R540
247   249    1
SMALL
USER_CHARGES


@<TRIPOS>ATOM
      1 CA         -3.2539  -12.6586  -47.0321 C.3       0 UNK        -0.1800 
      2 C          -1.9764  -12.4345  -47.8300 C.2       0 UNK         0.5000 
      3 O          -1.9398  -11.5680  -48.7044 O.2       0 UNK        -0.5000 
      4 N          -0.9291  -13.2093  -47.5257 N.am      1 UNK        -0.5000 
      5 CA          0.4091  -13.0856  -48.1047 C.3       1 UNK         0.1400 
      6 C6          1.2166  -14.3882  -47.8689 C.3       23 UNK        -0.0398 
      7 S7          2.8581  -14.4347  -48.6616 S.3       23 UNK        -0.2404 
      8 C8          3.2072  -16.2259  -48.6000 C.3       23 UNK        -0.0205 
      9 C9          2.5062  -17.0942  -49.6480 C.ar      23 UNK        -0.0193 
     10 C10         1.6945  -16.5711  -50.6655 C.ar      23 UNK        -0.1150 
     11 C11         1.1123  -17.4099  -51.6202 C.ar      23 UNK        -0.0193 
     12 C12         1.3578  -18.7842  -51.5648 C.ar      23 UNK        -0.1150 
     13 C13         2.1473  -19.3255  -50.5486 C.ar      23 UNK        -0.0193 
     14 C14         2.7143  -18.4762  -49.5948 C.ar      23 UNK        -0.1150 
     15 C15         2.3965  -20.8257  -50.4952 C.3       23 UNK        -0.0205 
     16 S16         0.8770  -21.7521  -50.1144 S.3       23 UNK        -0.2404 
     17 C17         0.5508  -21.2451  -48.3901 C.3       23 UNK        -0.0398 
     18 CA          0.3017  -22.4480  -47.4487 C.3       11 UNK         0.1400 
     19 N           0.3531  -22.0636  -46.0362 N.am      11 UNK        -0.5000 
     20 C           0.2842  -22.9211  -45.0065 C.2       10 UNK         0.5000 
     21 O           0.2427  -24.1453  -45.1331 O.2       10 UNK        -0.5000 
     22 CA          0.1897  -22.3059  -43.5993 C.3       10 UNK         0.1400 
     23 CB          1.5765  -21.8780  -43.0971 C.3       10 UNK        -0.1800 
     24 N          -0.7310  -21.1689  -43.5449 N.am      10 UNK        -0.5000 
     25 C          -2.0476  -21.2440  -43.7891 C.2       9 UNK         0.5000 
     26 O          -2.6372  -22.2954  -44.0344 O.2       9 UNK        -0.5000 
     27 CA         -2.8306  -19.9187  -43.8183 C.3       9 UNK         0.1400 
     28 CB         -3.1576  -19.4412  -42.3963 C.3       9 UNK        -0.1800 
     29 N          -2.1271  -18.8637  -44.5495 N.am      9 UNK        -0.5000 
     30 C          -1.8192  -18.9237  -45.8532 C.2       8 UNK         0.5000 
     31 O          -2.1270  -19.8610  -46.5879 O.2       8 UNK        -0.5000 
     32 CA         -0.9883  -17.7634  -46.4251 C.3       8 UNK         0.1400 
     33 CB         -1.8887  -16.5603  -46.7357 C.3       8 UNK        -0.1800 
     34 N           0.1044  -17.3712  -45.5321 N.am      8 UNK        -0.5000 
     35 C           1.1415  -18.1674  -45.2297 C.2       7 UNK         0.5000 
     36 O           1.3327  -19.2677  -45.7479 O.2       7 UNK        -0.5000 
     37 CA          2.0834  -17.6842  -44.1135 C.3       7 UNK         0.1400 
     38 CB          3.1568  -16.7307  -44.6602 C.3       7 UNK        -0.1800 
     39 N           1.3456  -17.0388  -43.0261 N.am      7 UNK        -0.5000 
     40 C           0.5780  -17.7037  -42.1487 C.2       6 UNK         0.5000 
     41 O           0.4401  -18.9255  -42.1602 O.2       6 UNK        -0.5000 
     42 CA         -0.1908  -16.8739  -41.1025 C.3       6 UNK         0.1400 
     43 CB          0.6580  -16.6939  -39.8354 C.3       6 UNK        -0.1800 
     44 N          -0.6002  -15.5598  -41.5944 N.am      6 UNK        -0.5000 
     45 C          -1.4550  -15.3424  -42.6044 C.2       5 UNK         0.5000 
     46 O          -2.0497  -16.2396  -43.2010 O.2       5 UNK        -0.5000 
     47 CA         -1.6033  -13.8781  -43.0688 C.3       5 UNK         0.1400 
     48 CB         -2.7486  -13.1824  -42.3202 C.3       5 UNK        -0.1800 
     49 N          -0.3636  -13.1100  -42.8954 N.am      5 UNK        -0.5000 
     50 C           0.7762  -13.3931  -43.5388 C.2       4 UNK         0.5000 
     51 O           0.8615  -14.2689  -44.4035 O.2       4 UNK        -0.5000 
     52 CA          2.0430  -12.6681  -43.0662 C.3       4 UNK         0.1400 
     53 CB          2.6071  -13.4048  -41.8314 C.3       4 UNK        -0.1800 
     54 N           3.0008  -12.6648  -44.1688 N.am      4 UNK        -0.5000 
     55 C           4.2416  -12.1621  -44.1750 C.2       3 UNK         0.5000 
     56 O           4.7782  -11.6192  -43.2088 O.2       3 UNK        -0.5000 
     57 CA          5.0004  -12.2516  -45.5127 C.3       3 UNK         0.1400 
     58 CB          5.4183  -13.6999  -45.8156 C.3       3 UNK        -0.1800 
     59 N           4.2054  -11.7325  -46.6253 N.am      3 UNK        -0.5000 
     60 C           3.8502  -10.4473  -46.7767 C.2       2 UNK         0.5000 
     61 O           4.2514   -9.5361  -46.0518 O.2       2 UNK        -0.5000 
     62 CA          2.8707  -10.1208  -47.9231 C.3       2 UNK         0.1400 
     63 CB          3.6353   -9.6195  -49.1576 C.3       2 UNK        -0.1800 
     64 N           2.0260  -11.2525  -48.3140 N.am      2 UNK        -0.5000 
     65 C           1.1160  -11.8400  -47.5254 C.2       1 UNK         0.5000 
     66 O           0.8593  -11.4588  -46.3805 O.2       1 UNK        -0.5000 
     67 C          -1.0179  -23.1719  -47.7831 C.2       11 UNK         0.5000 
     68 O          -0.9807  -24.2691  -48.3370 O.2       11 UNK        -0.5000 
     69 N          -2.1536  -22.5742  -47.3970 N.am      12 UNK        -0.5000 
     70 CA         -3.4894  -23.1275  -47.6059 C.3       12 UNK         0.1400 
     71 CB         -4.5497  -22.0917  -47.2080 C.3       12 UNK        -0.1800 
     72 C          -3.7216  -24.4649  -46.8840 C.2       12 UNK         0.5000 
     73 O          -4.3469  -25.3529  -47.4628 O.2       12 UNK        -0.5000 
     74 N          -3.1925  -24.6045  -45.6622 N.am      13 UNK        -0.5000 
     75 CA         -3.2229  -25.8459  -44.8899 C.3       13 UNK         0.1400 
     76 CB         -2.7358  -25.5751  -43.4583 C.3       13 UNK        -0.1800 
     77 C          -2.3999  -26.9710  -45.5444 C.2       13 UNK         0.5000 
     78 O          -2.8628  -28.1112  -45.5883 O.2       13 UNK        -0.5000 
     79 N          -1.2085  -26.6298  -46.0542 N.am      14 UNK        -0.5000 
     80 CA         -0.3070  -27.5566  -46.7378 C.3       14 UNK         0.1400 
     81 CB          1.0890  -26.9231  -46.8447 C.3       14 UNK        -0.1800 
     82 C          -0.8218  -27.9769  -48.1267 C.2       14 UNK         0.5000 
     83 O          -0.7761  -29.1616  -48.4603 O.2       14 UNK        -0.5000 
     84 N          -1.2933  -27.0005  -48.9121 N.am      15 UNK        -0.5000 
     85 CA         -1.7488  -27.1871  -50.2905 C.3       15 UNK         0.1400 
     86 CB         -1.6798  -25.8350  -51.0185 C.3       15 UNK        -0.1800 
     87 C          -3.1665  -27.7772  -50.4072 C.2       15 UNK         0.5000 
     88 O          -3.5105  -28.2717  -51.4812 O.2       15 UNK        -0.5000 
     89 N          -3.9569  -27.6968  -49.3247 N.am      16 UNK        -0.5000 
     90 CA         -5.3992  -27.9617  -49.2563 C.3       16 UNK         0.1400 
     91 CB         -5.7345  -29.4289  -49.5996 C.3       16 UNK        -0.1800 
     92 C          -6.1638  -26.9284  -50.1088 C.2       16 UNK         0.5000 
     93 O          -6.7813  -27.2787  -51.1161 O.2       16 UNK        -0.5000 
     94 N          -6.0465  -25.6668  -49.6710 N.am      17 UNK        -0.5000 
     95 CA         -6.3660  -24.4011  -50.3377 C.3       17 UNK         0.1400 
     96 CB         -7.7364  -24.3988  -51.0423 C.3       17 UNK        -0.1800 
     97 C          -5.2197  -23.9951  -51.2801 C.2       17 UNK         0.5000 
     98 O          -4.8179  -24.7773  -52.1433 O.2       17 UNK        -0.5000 
     99 N          -4.6895  -22.7832  -51.0714 N.am      18 UNK        -0.5000 
    100 CA        -3.5609  -22.2323  -51.8212 C.3       18 UNK         0.1400 
    101 CB        -3.0189  -20.9995  -51.0793 C.3       18 UNK        -0.1800 
    102 C         -3.9622  -21.8705  -53.2615 C.2       18 UNK         0.5000 
    103 O         -5.0697  -21.3706  -53.4804 O.2       18 UNK        -0.5000 
    104 N         -3.0467  -22.1067  -54.2099 N.am      19 UNK        -0.5000 
    105 CA        -3.2130  -21.7957  -55.6301 C.3       19 UNK         0.1400 
    106 CB        -1.9896  -22.3048  -56.4079 C.3       19 UNK        -0.1800 
    107 C         -3.4193  -20.2874  -55.8563 C.2       19 UNK         0.5000 
    108 O         -2.6226  -19.4889  -55.3645 O.2       19 UNK        -0.5000 
    109 N         -4.4988  -19.9392  -56.5682 N.am      20 UNK        -0.5000 
    110 CA        -4.9886  -18.5779  -56.8233 C.3       20 UNK         0.1400 
    111 CB        -3.9489  -17.7352  -57.5937 C.3       20 UNK        -0.1800 
    112 C         -5.5359  -17.8546  -55.5698 C.2       20 UNK         0.5000 
    113 O         -5.7168  -16.6369  -55.6143 O.2       20 UNK        -0.5000 
    114 N         -5.8394  -18.6150  -54.5037 N.am      21 UNK        -0.5000 
    115 CA        -6.4824  -18.1914  -53.2556 C.3       21 UNK         0.1400 
    116 CB        -7.9533  -17.8021  -53.5141 C.3       21 UNK        -0.1800 
    117 C         -5.6923  -17.0987  -52.5063 C.2       21 UNK         0.5000 
    118 O         -6.1872  -15.9843  -52.3250 O.2       21 UNK        -0.5000 
    119 N         -4.4688  -17.4465  -52.0877 N.am      22 UNK        -0.5000 
    120 CA        -3.5484  -16.5694  -51.3373 C.3       22 UNK         0.1400 
    121 C         -4.0502  -16.1172  -49.9339 C.2       22 UNK         0.5000 
    122 N         -5.0113  -16.7944  -49.3169 N.am      22 UNK        -0.7600 
    123 O         -3.5547  -15.1318  -49.3977 O.2       22 UNK        -0.5000 
    124 C124       -2.1339  -17.1895  -51.2055 C.3       23 UNK        -0.0398 
    125 S125       -1.3997  -17.6205  -52.8184 S.3       23 UNK        -0.2404 
    126 C126        0.2373  -16.8255  -52.7227 C.3       23 UNK        -0.0205 
    127 H127       -4.0930  -12.8239  -47.7080 H         1 UNK         0.0600 
    128 H128       -3.4731  -11.7844  -46.4192 H         1 UNK         0.0600 
    129 H129       -3.1752  -13.5260  -46.3763 H         1 UNK         0.0600 
    130 H130       -1.0081  -13.8555  -46.7556 H         1 UNK         0.3000 
    131 H131        0.2970  -12.9461  -49.1822 H         1 UNK         0.0600 
    132 H132        1.3514  -14.5775  -46.8065 H         1 UNK         0.0800 
    133 H133        0.6470  -15.2346  -48.2526 H         1 UNK         0.0800 
    134 H134        4.2839  -16.3577  -48.7148 H         1 UNK         0.0800 
    135 H135        2.9568  -16.5985  -47.6067 H         1 UNK         0.0800 
    136 H136        1.5158  -15.5088  -50.7340 H         1 UNK         0.1150 
    137 H137        0.9189  -19.4379  -52.3058 H         1 UNK         0.1150 
    138 H138        3.3339  -18.8914  -48.8120 H         1 UNK         0.1150 
    139 H139        2.7774  -21.1567  -51.4623 H         1 UNK         0.0800 
    140 H140        3.1665  -21.0723  -49.7624 H         1 UNK         0.0800 
    141 H141       -0.2900  -20.5506  -48.3839 H         1 UNK         0.0800 
    142 H142        1.4076  -20.6772  -48.0271 H         1 UNK         0.0800 
    143 H143        1.1122  -23.1640  -47.6016 H         1 UNK         0.0600 
    144 H144        0.4271  -21.0705  -45.8404 H         1 UNK         0.3000 
    145 H145       -0.1925  -23.0756  -42.9258 H         1 UNK         0.0600 
    146 H146        1.5299  -21.5236  -42.0674 H         1 UNK         0.0600 
    147 H147        2.2763  -22.7143  -43.1217 H         1 UNK         0.0600 
    148 H148        1.9974  -21.0784  -43.7071 H         1 UNK         0.0600 
    149 H149       -0.3292  -20.2726  -43.2847 H         1 UNK         0.3000 
    150 H150       -3.7739  -20.1025  -44.3366 H         1 UNK         0.0600 
    151 H151       -3.7309  -18.5140  -42.4118 H         1 UNK         0.0600 
    152 H152       -2.2552  -19.2683  -41.8113 H         1 UNK         0.0600 
    153 H153       -3.7533  -20.1844  -41.8650 H         1 UNK         0.0600 
    154 H154       -1.8915  -18.0240  -44.0294 H         1 UNK         0.3000 
    155 H155       -0.5521  -18.1075  -47.3657 H         1 UNK         0.0600 
    156 H156       -2.1894  -16.0254  -45.8358 H         1 UNK         0.0600 
    157 H157       -1.3892  -15.8609  -47.4001 H         1 UNK         0.0600 
    158 H158       -2.7998  -16.8766  -47.2444 H         1 UNK         0.0600 
    159 H159        0.0151  -16.4895  -45.0458 H         1 UNK         0.3000 
    160 H160        2.5936  -18.5592  -43.7050 H         1 UNK         0.0600 
    161 H161        3.7970  -17.2430  -45.3791 H         1 UNK         0.0600 
    162 H162        3.8002  -16.3581  -43.8631 H         1 UNK         0.0600 
    163 H163        2.7210  -15.8714  -45.1672 H         1 UNK         0.0600 
    164 H164        1.3639  -16.0295  -43.0022 H         1 UNK         0.3000 
    165 H165       -1.0928  -17.4266  -40.8340 H         1 UNK         0.0600 
    166 H166        0.0998  -16.1741  -39.0566 H         1 UNK         0.0600 
    167 H167        0.9593  -17.6598  -39.4275 H         1 UNK         0.0600 
    168 H168        1.5666  -16.1245  -40.0357 H         1 UNK         0.0600 
    169 H169       -0.1679  -14.7603  -41.1573 H         1 UNK         0.3000 
    170 H170       -1.8483  -13.8922  -44.1328 H         1 UNK         0.0600 
    171 H171       -3.6858  -13.7254  -42.4505 H         1 UNK         0.0600 
    172 H172       -2.5517  -13.1187  -41.2493 H         1 UNK         0.0600 
    173 H173       -2.9062  -12.1706  -42.6943 H         1 UNK         0.0600 
    174 H174       -0.3726  -12.3821  -42.1952 H         1 UNK         0.3000 
    175 H175        1.7930  -11.6366  -42.8121 H         1 UNK         0.0600 
    176 H176        2.9500  -14.4088  -42.0847 H         1 UNK         0.0600 
    177 H177        3.4448  -12.8695  -41.3864 H         1 UNK         0.0600 
    178 H178        1.8537  -13.5024  -41.0491 H         1 UNK         0.0600 
    179 H179        2.6301  -13.0734  -45.0165 H         1 UNK         0.3000 
    180 H180        5.9059  -11.6470  -45.4282 H         1 UNK         0.0600 
    181 H181        4.5556  -14.3503  -45.9608 H         1 UNK         0.0600 
    182 H182        6.0085  -14.1153  -44.9978 H         1 UNK         0.0600 
    183 H183        6.0294  -13.7525  -46.7168 H         1 UNK         0.0600 
    184 H184        3.8431  -12.4088  -47.2819 H         1 UNK         0.3000 
    185 H185        2.2161   -9.3189  -47.5754 H         1 UNK         0.0600 
    186 H186        4.2560   -8.7573  -48.9096 H         1 UNK         0.0600 
    187 H187        4.2914  -10.3900  -49.5647 H         1 UNK         0.0600 
    188 H188        2.9508   -9.3083  -49.9470 H         1 UNK         0.0600 
    189 H189        2.1911  -11.6336  -49.2349 H         1 UNK         0.3000 
    190 H190       -2.1056  -21.6554  -46.9605 H         1 UNK         0.3000 
    191 H191       -3.5877  -23.3241  -48.6731 H         1 UNK         0.0600 
    192 H192       -4.4683  -21.8208  -46.1550 H         1 UNK         0.0600 
    193 H193       -5.5570  -22.4762  -47.3717 H         1 UNK         0.0600 
    194 H194       -4.4479  -21.1788  -47.7953 H         1 UNK         0.0600 
    195 H195       -2.7531  -23.8007  -45.2215 H         1 UNK         0.3000 
    196 H196       -4.2606  -26.1816  -44.8360 H         1 UNK         0.0600 
    197 H197       -2.7603  -26.4851  -42.8578 H         1 UNK         0.0600 
    198 H198       -3.3680  -24.8395  -42.9605 H         1 UNK         0.0600 
    199 H199       -1.7126  -25.1988  -43.4449 H         1 UNK         0.0600 
    200 H200       -0.8844  -25.6736  -45.9494 H         1 UNK         0.3000 
    201 H201       -0.2201  -28.4587  -46.1284 H         1 UNK         0.0600 
    202 H202        1.4967  -26.7023  -45.8581 H         1 UNK         0.0600 
    203 H203        1.0672  -25.9913  -47.4112 H         1 UNK         0.0600 
    204 H204        1.7877  -27.5960  -47.3431 H         1 UNK         0.0600 
    205 H205       -1.2534  -26.0380  -48.5788 H         1 UNK         0.3000 
    206 H206       -1.0652  -27.8754  -50.7920 H         1 UNK         0.0600 
    207 H207       -0.6689  -25.4272  -51.0038 H         1 UNK         0.0600 
    208 H208       -1.9777  -25.9335  -52.0632 H         1 UNK         0.0600 
    209 H209       -2.3431  -25.1024  -50.5577 H         1 UNK         0.0600 
    210 H210       -3.5706  -27.2380  -48.5096 H         1 UNK         0.3000 
    211 H211       -5.6931  -27.7988  -48.2181 H         1 UNK         0.0600 
    212 H212       -5.5298  -29.6696  -50.6428 H         1 UNK         0.0600 
    213 H213       -6.7914  -29.6319  -49.4242 H         1 UNK         0.0600 
    214 H214       -5.1629  -30.1182  -48.9781 H         1 UNK         0.0600 
    215 H215       -5.4828  -25.5517  -48.8295 H         1 UNK         0.3000 
    216 H216       -6.4209  -23.6660  -49.5333 H         1 UNK         0.0600 
    217 H217       -7.7374  -25.0186  -51.9392 H         1 UNK         0.0600 
    218 H218       -8.0053  -23.3887  -51.3530 H         1 UNK         0.0600 
    219 H219       -8.5243  -24.7580  -50.3803 H         1 UNK         0.0600 
    220 H220       -5.1131  -22.1695  -50.3922 H         1 UNK         0.3000 
    221 H221       -2.7710  -22.9857  -51.8544 H         1 UNK         0.0600 
    222 H222       -2.6647  -21.2614  -50.0820 H         1 UNK         0.0600 
    223 H223       -3.7791  -20.2253  -50.9729 H         1 UNK         0.0600 
    224 H224       -2.1743  -20.5620  -51.6139 H         1 UNK         0.0600 
    225 H225       -2.1500  -22.4839  -53.9412 H         1 UNK         0.3000 
    226 H226       -4.0933  -22.3348  -55.9863 H         1 UNK         0.0600 
    227 H227       -1.8680  -23.3821  -56.2933 H         1 UNK         0.0600 
    228 H228       -2.0939  -22.1015  -57.4745 H         1 UNK         0.0600 
    229 H229       -1.0699  -21.8245  -56.0709 H         1 UNK         0.0600 
    230 H230       -5.0933  -20.6771  -56.9204 H         1 UNK         0.3000 
    231 H231       -5.8491  -18.6999  -57.4827 H         1 UNK         0.0600 
    232 H232       -3.0974  -17.4667  -56.9682 H         1 UNK         0.0600 
    233 H233       -4.3902  -16.8052  -57.9538 H         1 UNK         0.0600 
    234 H234       -3.5720  -18.2713  -58.4646 H         1 UNK         0.0600 
    235 H235       -5.6109  -19.6020  -54.5446 H         1 UNK         0.3000 
    236 H236       -6.4912  -19.0661  -52.6034 H         1 UNK         0.0600 
    237 H237       -8.4636  -17.5657  -52.5797 H         1 UNK         0.0600 
    238 H238       -8.0369  -16.9287  -54.1617 H         1 UNK         0.0600 
    239 H239       -8.4998  -18.6200  -53.9835 H         1 UNK         0.0600 
    240 H240       -4.1102  -18.3571  -52.3336 H         1 UNK         0.3000 
    241 H241       -3.4487  -15.6543  -51.9242 H         1 UNK         0.0600 
    242 H242       -5.4350  -17.5989  -49.7478 H         1 UNK         0.3800 
    243 H243       -5.3329  -16.4804  -48.4157 H         1 UNK         0.3800 
    244 H244       -1.4669  -16.4978  -50.6871 H         1 UNK         0.0800 
    245 H245       -2.1647  -18.0922  -50.5932 H         1 UNK         0.0800 
    246 H246        0.1013  -15.7512  -52.5896 H         1 UNK         0.0800 
    247 H247        0.7462  -16.9559  -53.6785 H         1 UNK         0.0800 
@<TRIPOS>BOND
     1    1    2 1    
     2    1  127 1    
     3    1  128 1    
     4    1  129 1    
     5    2    3 2    
     6    2    4 am   BACKBONE|DICT|INTERRES
     7    4    5 1    
     8    4  130 1    
     9    5    6 1    
    10    5   65 1    
    11    5  131 1    
    12    6    7 1    
    13    6  132 1    
    14    6  133 1    
    15    7    8 1    
    16    8    9 1    
    17    8  134 1    
    18    8  135 1    
    19    9   10 ar   
    20    9   14 ar   
    21   10   11 ar   
    22   10  136 1    
    23   11   12 ar   
    24   11  126 1    
    25   12   13 ar   
    26   12  137 1    
    27   13   14 ar   
    28   13   15 1    
    29   14  138 1    
    30   15   16 1    
    31   15  139 1    
    32   15  140 1    
    33   16   17 1    
    34   17   18 1    
    35   17  141 1    
    36   17  142 1    
    37   18   19 1    
    38   18   67 1    
    39   18  143 1    
    40   19   20 am   BACKBONE|DICT|INTERRES
    41   19  144 1    
    42   20   21 2    
    43   20   22 1    
    44   22   23 1    
    45   22   24 1    
    46   22  145 1    
    47   23  146 1    
    48   23  147 1    
    49   23  148 1    
    50   24   25 am   BACKBONE|DICT|INTERRES
    51   24  149 1    
    52   25   26 2    
    53   25   27 1    
    54   27   28 1    
    55   27   29 1    
    56   27  150 1    
    57   28  151 1    
    58   28  152 1    
    59   28  153 1    
    60   29   30 am   BACKBONE|DICT|INTERRES
    61   29  154 1    
    62   30   31 2    
    63   30   32 1    
    64   32   33 1    
    65   32   34 1    
    66   32  155 1    
    67   33  156 1    
    68   33  157 1    
    69   33  158 1    
    70   34   35 am   BACKBONE|DICT|INTERRES
    71   34  159 1    
    72   35   36 2    
    73   35   37 1    
    74   37   38 1    
    75   37   39 1    
    76   37  160 1    
    77   38  161 1    
    78   38  162 1    
    79   38  163 1    
    80   39   40 am   BACKBONE|DICT|INTERRES
    81   39  164 1    
    82   40   41 2    
    83   40   42 1    
    84   42   43 1    
    85   42   44 1    
    86   42  165 1    
    87   43  166 1    
    88   43  167 1    
    89   43  168 1    
    90   44   45 am   BACKBONE|DICT|INTERRES
    91   44  169 1    
    92   45   46 2    
    93   45   47 1    
    94   47   48 1    
    95   47   49 1    
    96   47  170 1    
    97   48  171 1    
    98   48  172 1    
    99   48  173 1    
   100   49   50 am   BACKBONE|DICT|INTERRES
   101   49  174 1    
   102   50   51 2    
   103   50   52 1    
   104   52   53 1    
   105   52   54 1    
   106   52  175 1    
   107   53  176 1    
   108   53  177 1    
   109   53  178 1    
   110   54   55 am   BACKBONE|DICT|INTERRES
   111   54  179 1    
   112   55   56 2    
   113   55   57 1    
   114   57   58 1    
   115   57   59 1    
   116   57  180 1    
   117   58  181 1    
   118   58  182 1    
   119   58  183 1    
   120   59   60 am   BACKBONE|DICT|INTERRES
   121   59  184 1    
   122   60   61 2    
   123   60   62 1    
   124   62   63 1    
   125   62   64 1    
   126   62  185 1    
   127   63  186 1    
   128   63  187 1    
   129   63  188 1    
   130   64   65 am   BACKBONE|DICT|INTERRES
   131   64  189 1    
   132   65   66 2    
   133   67   68 2    
   134   67   69 am   BACKBONE|DICT|INTERRES
   135   69   70 1    
   136   69  190 1    
   137   70   71 1    
   138   70   72 1    
   139   70  191 1    
   140   71  192 1    
   141   71  193 1    
   142   71  194 1    
   143   72   73 2    
   144   72   74 am   BACKBONE|DICT|INTERRES
   145   74   75 1    
   146   74  195 1    
   147   75   76 1    
   148   75   77 1    
   149   75  196 1    
   150   76  197 1    
   151   76  198 1    
   152   76  199 1    
   153   77   78 2    
   154   77   79 am   BACKBONE|DICT|INTERRES
   155   79   80 1    
   156   79  200 1    
   157   80   81 1    
   158   80   82 1    
   159   80  201 1    
   160   81  202 1    
   161   81  203 1    
   162   81  204 1    
   163   82   83 2    
   164   82   84 am   BACKBONE|DICT|INTERRES
   165   84   85 1    
   166   84  205 1    
   167   85   86 1    
   168   85   87 1    
   169   85  206 1    
   170   86  207 1    
   171   86  208 1    
   172   86  209 1    
   173   87   88 2    
   174   87   89 am   BACKBONE|DICT|INTERRES
   175   89   90 1    
   176   89  210 1    
   177   90   91 1    
   178   90   92 1    
   179   90  211 1    
   180   91  212 1    
   181   91  213 1    
   182   91  214 1    
   183   92   93 2    
   184   92   94 am   BACKBONE|DICT|INTERRES
   185   94   95 1    
   186   94  215 1    
   187   95   96 1    
   188   95   97 1    
   189   95  216 1    
   190   96  217 1    
   191   96  218 1    
   192   96  219 1    
   193   97   98 2    
   194   97   99 am   BACKBONE|DICT|INTERRES
   195   99  100 1    
   196   99  220 1    
   197  100  101 1    
   198  100  102 1    
   199  100  221 1    
   200  101  222 1    
   201  101  223 1    
   202  101  224 1    
   203  102  103 2    
   204  102  104 am   BACKBONE|DICT|INTERRES
   205  104  105 1    
   206  104  225 1    
   207  105  106 1    
   208  105  107 1    
   209  105  226 1    
   210  106  227 1    
   211  106  228 1    
   212  106  229 1    
   213  107  108 2    
   214  107  109 am   BACKBONE|DICT|INTERRES
   215  109  110 1    
   216  109  230 1    
   217  110  111 1    
   218  110  112 1    
   219  110  231 1    
   220  111  232 1    
   221  111  233 1    
   222  111  234 1    
   223  112  113 2    
   224  112  114 am   BACKBONE|DICT|INTERRES
   225  114  115 1    
   226  114  235 1    
   227  115  116 1    
   228  115  117 1    
   229  115  236 1    
   230  116  237 1    
   231  116  238 1    
   232  116  239 1    
   233  117  118 2    
   234  117  119 am   BACKBONE|DICT|INTERRES
   235  119  120 1    
   236  119  240 1    
   237  120  121 1    
   238  120  124 1    
   239  120  241 1    
   240  121  122 am   BACKBONE|DICT|INTERRES
   241  121  123 2    
   242  122  242 1    
   243  122  243 1    
   244  124  125 1    
   245  124  244 1    
   246  124  245 1    
   247  125  126 1    
   248  126  246 1    
   249  126  247 1    
@<TRIPOS>SUBSTRUCTURE
     1 UNK         1 GROUP             0       ****    0 ROOT    
