@<TRIPOS>MOLECULE
3R540
247   249    1
SMALL
USER_CHARGES


@<TRIPOS>ATOM
      1 CA          3.3135  -11.4191  -51.0316 C.3       0 UNK        -0.1800 
      2 C           2.4265  -12.4560  -50.3564 C.2       0 UNK         0.5000 
      3 O           1.2282  -12.4995  -50.6305 O.2       0 UNK        -0.5000 
      4 N           3.0209  -13.2853  -49.4876 N.am      1 UNK        -0.5000 
      5 CA          2.3829  -14.3326  -48.6816 C.3       1 UNK         0.1400 
      6 C6          1.7212  -15.4472  -49.5368 C.3       23 UNK        -0.0398 
      7 S7          1.5636  -17.0044  -48.5985 S.3       23 UNK        -0.2404 
      8 C8          0.7127  -18.0680  -49.8044 C.3       23 UNK        -0.0205 
      9 C9         -0.7315  -17.6446  -50.0285 C.ar      23 UNK        -0.0193 
     10 C10        -1.1194  -17.0467  -51.2324 C.ar      23 UNK        -0.1150 
     11 C11        -2.4521  -16.6805  -51.4426 C.ar      23 UNK        -0.0193 
     12 C12        -3.4002  -16.9357  -50.4473 C.ar      23 UNK        -0.1150 
     13 C13        -3.0268  -17.5334  -49.2397 C.ar      23 UNK        -0.0193 
     14 C14        -1.6853  -17.8691  -49.0316 C.ar      23 UNK        -0.1150 
     15 C15        -4.0768  -17.8058  -48.1698 C.3       23 UNK        -0.0205 
     16 S16        -4.3436  -19.5904  -47.8833 S.3       23 UNK        -0.2404 
     17 C17        -3.1347  -19.9379  -46.5629 C.3       23 UNK        -0.0398 
     18 CA         -2.0115  -20.9206  -46.9895 C.3       11 UNK         0.1400 
     19 N          -0.7416  -20.6298  -46.3164 N.am      11 UNK        -0.5000 
     20 C           0.4166  -21.2757  -46.5210 C.2       10 UNK         0.5000 
     21 O           0.5720  -22.1582  -47.3635 O.2       10 UNK        -0.5000 
     22 CA          1.5842  -20.9207  -45.5825 C.3       10 UNK         0.1400 
     23 CB          2.2922  -19.6379  -46.0417 C.3       10 UNK        -0.1800 
     24 N           1.1594  -20.7774  -44.1897 N.am      10 UNK        -0.5000 
     25 C           0.6227  -21.7580  -43.4491 C.2       9 UNK         0.5000 
     26 O           0.4798  -22.9152  -43.8411 O.2       9 UNK        -0.5000 
     27 CA          0.0985  -21.3649  -42.0578 C.3       9 UNK         0.1400 
     28 CB          1.2405  -21.2894  -41.0330 C.3       9 UNK        -0.1800 
     29 N          -0.6282  -20.0962  -42.0884 N.am      9 UNK        -0.5000 
     30 C          -1.7933  -19.9074  -42.7239 C.2       8 UNK         0.5000 
     31 O          -2.4034  -20.7966  -43.3190 O.2       8 UNK        -0.5000 
     32 CA         -2.3418  -18.4704  -42.7347 C.3       8 UNK         0.1400 
     33 CB         -3.1000  -18.1663  -41.4346 C.3       8 UNK        -0.1800 
     34 N          -1.2871  -17.4747  -42.9294 N.am      8 UNK        -0.5000 
     35 C          -0.6010  -17.3188  -44.0718 C.2       7 UNK         0.5000 
     36 O          -0.7865  -17.9997  -45.0778 O.2       7 UNK        -0.5000 
     37 CA          0.5072  -16.2514  -44.0787 C.3       7 UNK         0.1400 
     38 CB         -0.1164  -14.8671  -44.3045 C.3       7 UNK        -0.1800 
     39 N           1.2890  -16.2257  -42.8418 N.am      7 UNK        -0.5000 
     40 C           1.9271  -17.2757  -42.3006 C.2       6 UNK         0.5000 
     41 O           2.0124  -18.3729  -42.8508 O.2       6 UNK        -0.5000 
     42 CA          2.5328  -17.0999  -40.8918 C.3       6 UNK         0.1400 
     43 CB          4.0592  -16.9569  -40.9850 C.3       6 UNK        -0.1800 
     44 N           1.9988  -15.9597  -40.1432 N.am      6 UNK        -0.5000 
     45 C           0.7131  -15.7439  -39.8266 C.2       5 UNK         0.5000 
     46 O          -0.1891  -16.5537  -40.0468 O.2       5 UNK        -0.5000 
     47 CA          0.3692  -14.3625  -39.2277 C.3       5 UNK         0.1400 
     48 CB          0.1613  -14.4746  -37.7100 C.3       5 UNK        -0.1800 
     49 N           1.3656  -13.3147  -39.4978 N.am      5 UNK        -0.5000 
     50 C           1.7495  -12.8932  -40.7119 C.2       4 UNK         0.5000 
     51 O           1.3092  -13.3617  -41.7650 O.2       4 UNK        -0.5000 
     52 CA          2.8666  -11.8326  -40.7380 C.3       4 UNK         0.1400 
     53 CB          4.2134  -12.4678  -40.3536 C.3       4 UNK        -0.1800 
     54 N           3.0108  -11.2314  -42.0610 N.am      4 UNK        -0.5000 
     55 C           2.2073  -10.3072  -42.5955 C.2       3 UNK         0.5000 
     56 O           1.2867   -9.7666  -41.9808 O.2       3 UNK        -0.5000 
     57 CA          2.4628   -9.9296  -44.0707 C.3       3 UNK         0.1400 
     58 CB          3.6644   -8.9743  -44.2062 C.3       3 UNK        -0.1800 
     59 N           2.5774  -11.0815  -44.9807 N.am      3 UNK        -0.5000 
     60 C           3.5206  -12.0380  -45.0257 C.2       2 UNK         0.5000 
     61 O           4.5184  -12.0434  -44.3035 O.2       2 UNK        -0.5000 
     62 CA          3.2966  -13.2082  -46.0057 C.3       2 UNK         0.1400 
     63 CB          3.6500  -14.5579  -45.3454 C.3       2 UNK        -0.1800 
     64 N           1.9091  -13.2374  -46.4788 N.am      2 UNK        -0.5000 
     65 C           1.4209  -13.7223  -47.6285 C.2       1 UNK         0.5000 
     66 O           0.2143  -13.6659  -47.8614 O.2       1 UNK        -0.5000 
     67 C          -2.4441  -22.3826  -46.7670 C.2       11 UNK         0.5000 
     68 O          -2.6885  -23.0998  -47.7379 O.2       11 UNK        -0.5000 
     69 N          -2.4916  -22.8004  -45.4932 N.am      12 UNK        -0.5000 
     70 CA         -2.8653  -24.1469  -45.0615 C.3       12 UNK         0.1400 
     71 CB         -2.9486  -24.1892  -43.5284 C.3       12 UNK        -0.1800 
     72 C          -1.9169  -25.2359  -45.5919 C.2       12 UNK         0.5000 
     73 O          -2.3903  -26.2397  -46.1261 O.2       12 UNK        -0.5000 
     74 N          -0.6015  -24.9992  -45.4837 N.am      13 UNK        -0.5000 
     75 CA          0.4546  -25.8849  -45.9841 C.3       13 UNK         0.1400 
     76 CB          1.8235  -25.3440  -45.5453 C.3       13 UNK        -0.1800 
     77 C           0.4174  -26.0755  -47.5121 C.2       13 UNK         0.5000 
     78 O           0.7427  -27.1582  -47.9997 O.2       13 UNK        -0.5000 
     79 N          -0.0154  -25.0338  -48.2318 N.am      14 UNK        -0.5000 
     80 CA         -0.2210  -25.0291  -49.6776 C.3       14 UNK         0.1400 
     81 CB          0.0272  -23.6041  -50.1983 C.3       14 UNK        -0.1800 
     82 C          -1.6104  -25.5525  -50.1021 C.2       14 UNK         0.5000 
     83 O          -1.9584  -25.4056  -51.2723 O.2       14 UNK        -0.5000 
     84 N          -2.3869  -26.1373  -49.1755 N.am      15 UNK        -0.5000 
     85 CA         -3.7329  -26.6914  -49.3733 C.3       15 UNK         0.1400 
     86 CB         -3.7042  -27.8943  -50.3400 C.3       15 UNK        -0.1800 
     87 C          -4.7445  -25.6044  -49.7866 C.2       15 UNK         0.5000 
     88 O          -5.3491  -25.6761  -50.8600 O.2       15 UNK        -0.5000 
     89 N          -4.8584  -24.5843  -48.9249 N.am      16 UNK        -0.5000 
     90 CA         -5.6371  -23.3546  -49.1008 C.3       16 UNK         0.1400 
     91 CB         -7.1504  -23.6547  -49.1365 C.3       16 UNK        -0.1800 
     92 C          -5.1469  -22.5488  -50.3183 C.2       16 UNK         0.5000 
     93 O          -5.9602  -22.0765  -51.1122 O.2       16 UNK        -0.5000 
     94 N          -3.8156  -22.4565  -50.4598 N.am      17 UNK        -0.5000 
     95 CA         -3.0922  -21.8368  -51.5755 C.3       17 UNK         0.1400 
     96 CB         -3.2637  -20.3094  -51.5312 C.3       17 UNK        -0.1800 
     97 C          -3.4739  -22.4516  -52.9370 C.2       17 UNK         0.5000 
     98 O          -3.8004  -21.7258  -53.8774 O.2       17 UNK        -0.5000 
     99 N          -3.4640  -23.7908  -52.9942 N.am      18 UNK        -0.5000 
    100 CA        -3.8901  -24.6395  -54.1088 C.3       18 UNK         0.1400 
    101 CB        -2.8715  -24.5563  -55.2637 C.3       18 UNK        -0.1800 
    102 C         -5.3425  -24.3480  -54.5398 C.2       18 UNK         0.5000 
    103 O         -5.6111  -24.1592  -55.7267 O.2       18 UNK        -0.5000 
    104 N         -6.2399  -24.2786  -53.5445 N.am      19 UNK        -0.5000 
    105 CA        -7.6473  -23.8766  -53.6506 C.3       19 UNK         0.1400 
    106 CB        -8.4627  -24.9334  -54.4245 C.3       19 UNK        -0.1800 
    107 C         -7.8093  -22.4455  -54.2122 C.2       19 UNK         0.5000 
    108 O         -8.5621  -22.2265  -55.1633 O.2       19 UNK        -0.5000 
    109 N         -7.0797  -21.5033  -53.5995 N.am      20 UNK        -0.5000 
    110 CA        -7.0238  -20.0666  -53.8866 C.3       20 UNK         0.1400 
    111 CB        -8.3765  -19.3965  -53.5685 C.3       20 UNK        -0.1800 
    112 C         -6.4941  -19.7136  -55.2939 C.2       20 UNK         0.5000 
    113 O         -6.8325  -18.6543  -55.8261 O.2       20 UNK        -0.5000 
    114 N         -5.6587  -20.5879  -55.8685 N.am      21 UNK        -0.5000 
    115 CA        -4.9390  -20.3386  -57.1178 C.3       21 UNK         0.1400 
    116 CB        -4.6224  -21.6764  -57.8004 C.3       21 UNK        -0.1800 
    117 C         -3.6501  -19.5306  -56.8779 C.2       21 UNK         0.5000 
    118 O         -3.2623  -18.7426  -57.7412 O.2       21 UNK        -0.5000 
    119 N         -3.0238  -19.7340  -55.7099 N.am      22 UNK        -0.5000 
    120 CA        -1.8263  -19.0324  -55.2125 C.3       22 UNK         0.1400 
    121 C         -0.5150  -19.3271  -56.0041 C.2       22 UNK         0.5000 
    122 N         -0.4520  -20.3794  -56.8108 N.am      22 UNK        -0.7600 
    123 O          0.4749  -18.6137  -55.8641 O.2       22 UNK        -0.5000 
    124 C124       -2.0587  -17.5114  -54.9834 C.3       23 UNK        -0.0398 
    125 S125       -3.5321  -17.1440  -53.9622 S.3       23 UNK        -0.2404 
    126 C126       -2.8757  -15.9803  -52.7252 C.3       23 UNK        -0.0205 
    127 H127        4.3507  -11.4948  -50.7040 H         1 UNK         0.0600 
    128 H128        2.9576  -10.4147  -50.8021 H         1 UNK         0.0600 
    129 H129        3.2887  -11.5516  -52.1133 H         1 UNK         0.0600 
    130 H130        4.0134  -13.1778  -49.3322 H         1 UNK         0.3000 
    131 H131        3.2089  -14.8084  -48.1557 H         1 UNK         0.0600 
    132 H132        2.3365  -15.6570  -50.4126 H         1 UNK         0.0800 
    133 H133        0.7471  -15.1392  -49.9202 H         1 UNK         0.0800 
    134 H134        1.2691  -18.0725  -50.7429 H         1 UNK         0.0800 
    135 H135        0.7274  -19.0950  -49.4356 H         1 UNK         0.0800 
    136 H136       -0.3843  -16.8594  -52.0022 H         1 UNK         0.1150 
    137 H137       -4.4325  -16.6631  -50.6159 H         1 UNK         0.1150 
    138 H138       -1.3775  -18.3153  -48.0976 H         1 UNK         0.1150 
    139 H139       -3.8010  -17.2981  -47.2448 H         1 UNK         0.0800 
    140 H140       -5.0328  -17.3726  -48.4676 H         1 UNK         0.0800 
    141 H141       -2.7040  -18.9893  -46.2555 H         1 UNK         0.0800 
    142 H142       -3.6757  -20.2891  -45.6826 H         1 UNK         0.0800 
    143 H143       -1.8224  -20.7946  -48.0578 H         1 UNK         0.0600 
    144 H144       -0.7531  -19.8705  -45.6421 H         1 UNK         0.3000 
    145 H145        2.3049  -21.7397  -45.6260 H         1 UNK         0.0600 
    146 H146        3.1623  -19.4235  -45.4211 H         1 UNK         0.0600 
    147 H147        2.6395  -19.7303  -47.0715 H         1 UNK         0.0600 
    148 H148        1.6305  -18.7732  -45.9960 H         1 UNK         0.0600 
    149 H149        1.2869  -19.8616  -43.7665 H         1 UNK         0.3000 
    150 H150       -0.5963  -22.1420  -41.7322 H         1 UNK         0.0600 
    151 H151        0.8630  -21.0514  -40.0385 H         1 UNK         0.0600 
    152 H152        1.7609  -22.2453  -40.9627 H         1 UNK         0.0600 
    153 H153        1.9803  -20.5350  -41.3005 H         1 UNK         0.0600 
    154 H154       -0.1779  -19.3004  -41.6614 H         1 UNK         0.3000 
    155 H155       -3.0453  -18.3886  -43.5661 H         1 UNK         0.0600 
    156 H156       -2.4443  -18.2134  -40.5641 H         1 UNK         0.0600 
    157 H157       -3.9076  -18.8824  -41.2773 H         1 UNK         0.0600 
    158 H158       -3.5474  -17.1727  -41.4628 H         1 UNK         0.0600 
    159 H159       -1.0366  -16.9117  -42.1259 H         1 UNK         0.3000 
    160 H160        1.1890  -16.4704  -44.9028 H         1 UNK         0.0600 
    161 H161       -0.8568  -14.6284  -43.5398 H         1 UNK         0.0600 
    162 H162       -0.6137  -14.8160  -45.2740 H         1 UNK         0.0600 
    163 H163        0.6386  -14.0841  -44.2770 H         1 UNK         0.0600 
    164 H164        1.2870  -15.3469  -42.3347 H         1 UNK         0.3000 
    165 H165        2.3027  -18.0044  -40.3254 H         1 UNK         0.0600 
    166 H166        4.5141  -16.9164  -39.9951 H         1 UNK         0.0600 
    167 H167        4.5005  -17.8061  -41.5088 H         1 UNK         0.0600 
    168 H168        4.3454  -16.0534  -41.5251 H         1 UNK         0.0600 
    169 H169        2.6578  -15.2296  -39.9194 H         1 UNK         0.3000 
    170 H170       -0.5721  -14.0441  -39.6801 H         1 UNK         0.0600 
    171 H171       -0.5948  -15.2244  -37.4727 H         1 UNK         0.0600 
    172 H172        1.0807  -14.7622  -37.1985 H         1 UNK         0.0600 
    173 H173       -0.1783  -13.5291  -37.2866 H         1 UNK         0.0600 
    174 H174        1.7882  -12.8901  -38.6845 H         1 UNK         0.3000 
    175 H175        2.6216  -11.0502  -40.0169 H         1 UNK         0.0600 
    176 H176        4.4915  -13.2673  -41.0420 H         1 UNK         0.0600 
    177 H177        5.0136  -11.7274  -40.3634 H         1 UNK         0.0600 
    178 H178        4.1822  -12.8929  -39.3497 H         1 UNK         0.0600 
    179 H179        3.7115  -11.6384  -42.6745 H         1 UNK         0.3000 
    180 H180        1.5800   -9.3825  -44.4057 H         1 UNK         0.0600 
    181 H181        4.5942   -9.4314  -43.8673 H         1 UNK         0.0600 
    182 H182        3.5114   -8.0736  -43.6105 H         1 UNK         0.0600 
    183 H183        3.8028   -8.6599  -45.2406 H         1 UNK         0.0600 
    184 H184        1.8212  -11.1559  -45.6455 H         1 UNK         0.3000 
    185 H185        3.9688  -13.0303  -46.8457 H         1 UNK         0.0600 
    186 H186        4.7174  -14.6181  -45.1302 H         1 UNK         0.0600 
    187 H187        3.1237  -14.6850  -44.3992 H         1 UNK         0.0600 
    188 H188        3.4011  -15.4110  -45.9752 H         1 UNK         0.0600 
    189 H189        1.2396  -12.8747  -45.8170 H         1 UNK         0.3000 
    190 H190       -2.2812  -22.1354  -44.7541 H         1 UNK         0.3000 
    191 H191       -3.8607  -24.3541  -45.4593 H         1 UNK         0.0600 
    192 H192       -3.6839  -23.4763  -43.1547 H         1 UNK         0.0600 
    193 H193       -3.2473  -25.1785  -43.1797 H         1 UNK         0.0600 
    194 H194       -1.9904  -23.9521  -43.0652 H         1 UNK         0.0600 
    195 H195       -0.2920  -24.1566  -45.0035 H         1 UNK         0.3000 
    196 H196        0.3105  -26.8653  -45.5258 H         1 UNK         0.0600 
    197 H197        2.6308  -25.9898  -45.8930 H         1 UNK         0.0600 
    198 H198        1.8959  -25.2893  -44.4590 H         1 UNK         0.0600 
    199 H199        2.0051  -24.3449  -45.9436 H         1 UNK         0.0600 
    200 H200       -0.2276  -24.1670  -47.7505 H         1 UNK         0.3000 
    201 H201        0.5163  -25.6847  -50.1450 H         1 UNK         0.0600 
    202 H202        1.0387  -23.2730  -49.9626 H         1 UNK         0.0600 
    203 H203       -0.6650  -22.8913  -49.7499 H         1 UNK         0.0600 
    204 H204       -0.0834  -23.5481  -51.2818 H         1 UNK         0.0600 
    205 H205       -2.0427  -26.1762  -48.2231 H         1 UNK         0.3000 
    206 H206       -4.0579  -27.0639  -48.4007 H         1 UNK         0.0600 
    207 H207       -2.9971  -28.6524  -50.0035 H         1 UNK         0.0600 
    208 H208       -4.6851  -28.3672  -50.3979 H         1 UNK         0.0600 
    209 H209       -3.4258  -27.6023  -51.3529 H         1 UNK         0.0600 
    210 H210       -4.2224  -24.5680  -48.1372 H         1 UNK         0.3000 
    211 H211       -5.4442  -22.7340  -48.2246 H         1 UNK         0.0600 
    212 H212       -7.4334  -24.2253  -50.0213 H         1 UNK         0.0600 
    213 H213       -7.7291  -22.7304  -49.1469 H         1 UNK         0.0600 
    214 H214       -7.4601  -24.2213  -48.2585 H         1 UNK         0.0600 
    215 H215       -3.2474  -22.8697  -49.7286 H         1 UNK         0.3000 
    216 H216       -2.0347  -22.0497  -51.4313 H         1 UNK         0.0600 
    217 H217       -4.2960  -20.0024  -51.6983 H         1 UNK         0.0600 
    218 H218       -2.6486  -19.8155  -52.2800 H         1 UNK         0.0600 
    219 H219       -2.9525  -19.9262  -50.5627 H         1 UNK         0.0600 
    220 H220       -3.1256  -24.3050  -52.1836 H         1 UNK         0.3000 
    221 H221       -3.8834  -25.6646  -53.7353 H         1 UNK         0.0600 
    222 H222       -2.7810  -23.5434  -55.6537 H         1 UNK         0.0600 
    223 H223       -1.8823  -24.8724  -54.9326 H         1 UNK         0.0600 
    224 H224       -3.1589  -25.2059  -56.0912 H         1 UNK         0.0600 
    225 H225       -5.9089  -24.4633  -52.6035 H         1 UNK         0.3000 
    226 H226       -8.0325  -23.8488  -52.6302 H         1 UNK         0.0600 
    227 H227       -8.3464  -25.9222  -53.9808 H         1 UNK         0.0600 
    228 H228       -9.5262  -24.6931  -54.4072 H         1 UNK         0.0600 
    229 H229       -8.1598  -24.9970  -55.4700 H         1 UNK         0.0600 
    230 H230       -6.5207  -21.7927  -52.7971 H         1 UNK         0.3000 
    231 H231       -6.2892  -19.6598  -53.1904 H         1 UNK         0.0600 
    232 H232       -9.1551  -19.7064  -54.2659 H         1 UNK         0.0600 
    233 H233       -8.2995  -18.3101  -53.6255 H         1 UNK         0.0600 
    234 H234       -8.7100  -19.6426  -52.5603 H         1 UNK         0.0600 
    235 H235       -5.3924  -21.4117  -55.3423 H         1 UNK         0.3000 
    236 H236       -5.5761  -19.7624  -57.7920 H         1 UNK         0.0600 
    237 H237       -5.5335  -22.2391  -58.0048 H         1 UNK         0.0600 
    238 H238       -4.1142  -21.5193  -58.7525 H         1 UNK         0.0600 
    239 H239       -3.9782  -22.3003  -57.1823 H         1 UNK         0.0600 
    240 H240       -3.4119  -20.4247  -55.0700 H         1 UNK         0.3000 
    241 H241       -1.6326  -19.4695  -54.2348 H         1 UNK         0.0600 
    242 H242        0.4009  -20.5711  -57.3126 H         1 UNK         0.3800 
    243 H243       -1.2526  -20.9783  -56.9313 H         1 UNK         0.3800 
    244 H244       -1.1814  -17.0719  -54.5072 H         1 UNK         0.0800 
    245 H245       -2.1709  -16.9964  -55.9384 H         1 UNK         0.0800 
    246 H246       -3.6550  -15.2526  -52.4939 H         1 UNK         0.0800 
    247 H247       -2.0496  -15.4021  -53.1414 H         1 UNK         0.0800 
@<TRIPOS>BOND
     1    1    2 1    
     2    1  127 1    
     3    1  128 1    
     4    1  129 1    
     5    2    3 2    
     6    2    4 am   BACKBONE|DICT|INTERRES
     7    4    5 1    
     8    4  130 1    
     9    5    6 1    
    10    5   65 1    
    11    5  131 1    
    12    6    7 1    
    13    6  132 1    
    14    6  133 1    
    15    7    8 1    
    16    8    9 1    
    17    8  134 1    
    18    8  135 1    
    19    9   10 ar   
    20    9   14 ar   
    21   10   11 ar   
    22   10  136 1    
    23   11   12 ar   
    24   11  126 1    
    25   12   13 ar   
    26   12  137 1    
    27   13   14 ar   
    28   13   15 1    
    29   14  138 1    
    30   15   16 1    
    31   15  139 1    
    32   15  140 1    
    33   16   17 1    
    34   17   18 1    
    35   17  141 1    
    36   17  142 1    
    37   18   19 1    
    38   18   67 1    
    39   18  143 1    
    40   19   20 am   BACKBONE|DICT|INTERRES
    41   19  144 1    
    42   20   21 2    
    43   20   22 1    
    44   22   23 1    
    45   22   24 1    
    46   22  145 1    
    47   23  146 1    
    48   23  147 1    
    49   23  148 1    
    50   24   25 am   BACKBONE|DICT|INTERRES
    51   24  149 1    
    52   25   26 2    
    53   25   27 1    
    54   27   28 1    
    55   27   29 1    
    56   27  150 1    
    57   28  151 1    
    58   28  152 1    
    59   28  153 1    
    60   29   30 am   BACKBONE|DICT|INTERRES
    61   29  154 1    
    62   30   31 2    
    63   30   32 1    
    64   32   33 1    
    65   32   34 1    
    66   32  155 1    
    67   33  156 1    
    68   33  157 1    
    69   33  158 1    
    70   34   35 am   BACKBONE|DICT|INTERRES
    71   34  159 1    
    72   35   36 2    
    73   35   37 1    
    74   37   38 1    
    75   37   39 1    
    76   37  160 1    
    77   38  161 1    
    78   38  162 1    
    79   38  163 1    
    80   39   40 am   BACKBONE|DICT|INTERRES
    81   39  164 1    
    82   40   41 2    
    83   40   42 1    
    84   42   43 1    
    85   42   44 1    
    86   42  165 1    
    87   43  166 1    
    88   43  167 1    
    89   43  168 1    
    90   44   45 am   BACKBONE|DICT|INTERRES
    91   44  169 1    
    92   45   46 2    
    93   45   47 1    
    94   47   48 1    
    95   47   49 1    
    96   47  170 1    
    97   48  171 1    
    98   48  172 1    
    99   48  173 1    
   100   49   50 am   BACKBONE|DICT|INTERRES
   101   49  174 1    
   102   50   51 2    
   103   50   52 1    
   104   52   53 1    
   105   52   54 1    
   106   52  175 1    
   107   53  176 1    
   108   53  177 1    
   109   53  178 1    
   110   54   55 am   BACKBONE|DICT|INTERRES
   111   54  179 1    
   112   55   56 2    
   113   55   57 1    
   114   57   58 1    
   115   57   59 1    
   116   57  180 1    
   117   58  181 1    
   118   58  182 1    
   119   58  183 1    
   120   59   60 am   BACKBONE|DICT|INTERRES
   121   59  184 1    
   122   60   61 2    
   123   60   62 1    
   124   62   63 1    
   125   62   64 1    
   126   62  185 1    
   127   63  186 1    
   128   63  187 1    
   129   63  188 1    
   130   64   65 am   BACKBONE|DICT|INTERRES
   131   64  189 1    
   132   65   66 2    
   133   67   68 2    
   134   67   69 am   BACKBONE|DICT|INTERRES
   135   69   70 1    
   136   69  190 1    
   137   70   71 1    
   138   70   72 1    
   139   70  191 1    
   140   71  192 1    
   141   71  193 1    
   142   71  194 1    
   143   72   73 2    
   144   72   74 am   BACKBONE|DICT|INTERRES
   145   74   75 1    
   146   74  195 1    
   147   75   76 1    
   148   75   77 1    
   149   75  196 1    
   150   76  197 1    
   151   76  198 1    
   152   76  199 1    
   153   77   78 2    
   154   77   79 am   BACKBONE|DICT|INTERRES
   155   79   80 1    
   156   79  200 1    
   157   80   81 1    
   158   80   82 1    
   159   80  201 1    
   160   81  202 1    
   161   81  203 1    
   162   81  204 1    
   163   82   83 2    
   164   82   84 am   BACKBONE|DICT|INTERRES
   165   84   85 1    
   166   84  205 1    
   167   85   86 1    
   168   85   87 1    
   169   85  206 1    
   170   86  207 1    
   171   86  208 1    
   172   86  209 1    
   173   87   88 2    
   174   87   89 am   BACKBONE|DICT|INTERRES
   175   89   90 1    
   176   89  210 1    
   177   90   91 1    
   178   90   92 1    
   179   90  211 1    
   180   91  212 1    
   181   91  213 1    
   182   91  214 1    
   183   92   93 2    
   184   92   94 am   BACKBONE|DICT|INTERRES
   185   94   95 1    
   186   94  215 1    
   187   95   96 1    
   188   95   97 1    
   189   95  216 1    
   190   96  217 1    
   191   96  218 1    
   192   96  219 1    
   193   97   98 2    
   194   97   99 am   BACKBONE|DICT|INTERRES
   195   99  100 1    
   196   99  220 1    
   197  100  101 1    
   198  100  102 1    
   199  100  221 1    
   200  101  222 1    
   201  101  223 1    
   202  101  224 1    
   203  102  103 2    
   204  102  104 am   BACKBONE|DICT|INTERRES
   205  104  105 1    
   206  104  225 1    
   207  105  106 1    
   208  105  107 1    
   209  105  226 1    
   210  106  227 1    
   211  106  228 1    
   212  106  229 1    
   213  107  108 2    
   214  107  109 am   BACKBONE|DICT|INTERRES
   215  109  110 1    
   216  109  230 1    
   217  110  111 1    
   218  110  112 1    
   219  110  231 1    
   220  111  232 1    
   221  111  233 1    
   222  111  234 1    
   223  112  113 2    
   224  112  114 am   BACKBONE|DICT|INTERRES
   225  114  115 1    
   226  114  235 1    
   227  115  116 1    
   228  115  117 1    
   229  115  236 1    
   230  116  237 1    
   231  116  238 1    
   232  116  239 1    
   233  117  118 2    
   234  117  119 am   BACKBONE|DICT|INTERRES
   235  119  120 1    
   236  119  240 1    
   237  120  121 1    
   238  120  124 1    
   239  120  241 1    
   240  121  122 am   BACKBONE|DICT|INTERRES
   241  121  123 2    
   242  122  242 1    
   243  122  243 1    
   244  124  125 1    
   245  124  244 1    
   246  124  245 1    
   247  125  126 1    
   248  126  246 1    
   249  126  247 1    
@<TRIPOS>SUBSTRUCTURE
     1 UNK         1 GROUP             0       ****    0 ROOT    
