@<TRIPOS>MOLECULE
3R540
247   249    1
SMALL
USER_CHARGES


@<TRIPOS>ATOM
      1 CA          2.4766  -14.2742  -42.7932 C.3       0 UNK        -0.1800 
      2 C           1.5860  -13.1660  -43.3369 C.2       0 UNK         0.5000 
      3 O           1.8229  -11.9930  -43.0470 O.2       0 UNK        -0.5000 
      4 N           0.5642  -13.5315  -44.1181 N.am      1 UNK        -0.5000 
      5 CA         -0.3733  -12.6041  -44.7581 C.3       1 UNK         0.1400 
      6 C6         -1.7005  -13.2841  -45.1723 C.3       23 UNK        -0.0398 
      7 S7         -2.5501  -14.1871  -43.8344 S.3       23 UNK        -0.2404 
      8 C8         -4.1793  -14.4908  -44.5996 C.3       23 UNK        -0.0205 
      9 C9         -4.0679  -15.2466  -45.9177 C.ar      23 UNK        -0.0193 
     10 C10        -4.1349  -14.5562  -47.1326 C.ar      23 UNK        -0.1150 
     11 C11        -3.9804  -15.2314  -48.3469 C.ar      23 UNK        -0.0193 
     12 C12        -3.7831  -16.6155  -48.3386 C.ar      23 UNK        -0.1150 
     13 C13        -3.7297  -17.3194  -47.1321 C.ar      23 UNK        -0.0193 
     14 C14        -3.8724  -16.6305  -45.9241 C.ar      23 UNK        -0.1150 
     15 C15        -3.4699  -18.8150  -47.1342 C.3       23 UNK        -0.0205 
     16 S16        -5.0137  -19.7587  -46.9826 S.3       23 UNK        -0.2404 
     17 C17        -4.4454  -21.4868  -47.1872 C.3       23 UNK        -0.0398 
     18 CA         -3.2671  -21.9205  -46.2793 C.3       11 UNK         0.1400 
     19 N          -3.4327  -21.4529  -44.8972 N.am      11 UNK        -0.5000 
     20 C          -2.5171  -21.5359  -43.9239 C.2       10 UNK         0.5000 
     21 O          -1.4585  -22.1581  -44.0368 O.2       10 UNK        -0.5000 
     22 CA         -2.8573  -20.7703  -42.6340 C.3       10 UNK         0.1400 
     23 CB         -4.1583  -21.2740  -41.9727 C.3       10 UNK        -0.1800 
     24 N          -1.7348  -20.7272  -41.6948 N.am      10 UNK        -0.5000 
     25 C          -1.2825  -21.6799  -40.8643 C.2       9 UNK         0.5000 
     26 O          -1.8112  -22.7840  -40.7283 O.2       9 UNK        -0.5000 
     27 CA         -0.0195  -21.3517  -40.0316 C.3       9 UNK         0.1400 
     28 CB          1.1142  -22.3427  -40.3430 C.3       9 UNK        -0.1800 
     29 N           0.4926  -19.9956  -40.2412 N.am      9 UNK        -0.5000 
     30 C          -0.0551  -18.8595  -39.7866 C.2       8 UNK         0.5000 
     31 O          -1.0063  -18.8249  -39.0062 O.2       8 UNK        -0.5000 
     32 CA          0.5325  -17.5406  -40.3371 C.3       8 UNK         0.1400 
     33 CB          1.4170  -16.8587  -39.2824 C.3       8 UNK        -0.1800 
     34 N           1.3109  -17.7117  -41.5711 N.am      8 UNK        -0.5000 
     35 C           0.8129  -18.1130  -42.7493 C.2       7 UNK         0.5000 
     36 O          -0.3787  -18.3692  -42.9370 O.2       7 UNK        -0.5000 
     37 CA          1.8494  -18.3597  -43.8609 C.3       7 UNK         0.1400 
     38 CB          2.4756  -19.7540  -43.6912 C.3       7 UNK        -0.1800 
     39 N           1.2915  -18.2738  -45.2071 N.am      7 UNK        -0.5000 
     40 C           0.7588  -17.1879  -45.7766 C.2       6 UNK         0.5000 
     41 O           0.6715  -16.0917  -45.2226 O.2       6 UNK        -0.5000 
     42 CA          0.3005  -17.3644  -47.2354 C.3       6 UNK         0.1400 
     43 CB         -0.4125  -16.1258  -47.7964 C.3       6 UNK        -0.1800 
     44 N           1.4292  -17.6731  -48.1084 N.am      6 UNK        -0.5000 
     45 C           1.9907  -18.8771  -48.2721 C.2       5 UNK         0.5000 
     46 O           1.6461  -19.8680  -47.6262 O.2       5 UNK        -0.5000 
     47 CA          3.1327  -18.9914  -49.3073 C.3       5 UNK         0.1400 
     48 CB          3.0972  -20.3279  -50.0774 C.3       5 UNK        -0.1800 
     49 N           3.2221  -17.8581  -50.2388 N.am      5 UNK        -0.5000 
     50 C           2.3154  -17.4411  -51.1347 C.2       4 UNK         0.5000 
     51 O           1.2309  -17.9961  -51.3136 O.2       4 UNK        -0.5000 
     52 CA          2.6767  -16.1697  -51.9396 C.3       4 UNK         0.1400 
     53 CB          1.4801  -15.6250  -52.7424 C.3       4 UNK        -0.1800 
     54 N           3.2103  -15.0829  -51.1082 N.am      4 UNK        -0.5000 
     55 C           4.4386  -15.0180  -50.5739 C.2       3 UNK         0.5000 
     56 O           5.2764  -15.9117  -50.7013 O.2       3 UNK        -0.5000 
     57 CA          4.7980  -13.7652  -49.7492 C.3       3 UNK         0.1400 
     58 CB          5.7321  -12.8475  -50.5533 C.3       3 UNK        -0.1800 
     59 N           3.6418  -12.9837  -49.3008 N.am      3 UNK        -0.5000 
     60 C           2.7772  -13.3660  -48.3532 C.2       2 UNK         0.5000 
     61 O           2.8274  -14.4544  -47.7740 O.2       2 UNK        -0.5000 
     62 CA          1.6561  -12.3691  -48.0266 C.3       2 UNK         0.1400 
     63 CB          0.5943  -12.3561  -49.1453 C.3       2 UNK        -0.1800 
     64 N           1.0414  -12.7372  -46.7562 N.am      2 UNK        -0.5000 
     65 C           0.2590  -11.9525  -46.0042 C.2       1 UNK         0.5000 
     66 O           0.0108  -10.7752  -46.2685 O.2       1 UNK        -0.5000 
     67 C          -3.0344  -23.4418  -46.4024 C.2       11 UNK         0.5000 
     68 O          -2.4565  -23.8892  -47.3947 O.2       11 UNK        -0.5000 
     69 N          -3.4553  -24.2056  -45.3844 N.am      12 UNK        -0.5000 
     70 CA         -3.2258  -25.6440  -45.2471 C.3       12 UNK         0.1400 
     71 CB         -3.9672  -26.1528  -44.0024 C.3       12 UNK        -0.1800 
     72 C          -1.7335  -26.0232  -45.1785 C.2       12 UNK         0.5000 
     73 O          -1.3696  -27.1039  -45.6421 O.2       12 UNK        -0.5000 
     74 N          -0.8858  -25.1155  -44.6681 N.am      13 UNK        -0.5000 
     75 CA          0.5724  -25.2699  -44.6366 C.3       13 UNK         0.1400 
     76 CB          1.1755  -24.1836  -43.7339 C.3       13 UNK        -0.1800 
     77 C           1.2164  -25.2307  -46.0383 C.2       13 UNK         0.5000 
     78 O           2.3088  -25.7691  -46.2185 O.2       13 UNK        -0.5000 
     79 N           0.5155  -24.6229  -47.0040 N.am      14 UNK        -0.5000 
     80 CA          0.8744  -24.5684  -48.4197 C.3       14 UNK         0.1400 
     81 CB          0.6829  -23.1233  -48.9067 C.3       14 UNK        -0.1800 
     82 C           0.0269  -25.5470  -49.2577 C.2       14 UNK         0.5000 
     83 O           0.0109  -25.4277  -50.4826 O.2       14 UNK        -0.5000 
     84 N          -0.7016  -26.4651  -48.6007 N.am      15 UNK        -0.5000 
     85 CA         -1.6150  -27.4540  -49.1885 C.3       15 UNK         0.1400 
     86 CB         -0.8193  -28.5318  -49.9534 C.3       15 UNK        -0.1800 
     87 C          -2.7375  -26.8186  -50.0406 C.2       15 UNK         0.5000 
     88 O          -3.1473  -27.3928  -51.0503 O.2       15 UNK        -0.5000 
     89 N          -3.1904  -25.6267  -49.6222 N.am      16 UNK        -0.5000 
     90 CA         -4.1901  -24.7646  -50.2600 C.3       16 UNK         0.1400 
     91 CB         -5.5501  -25.4759  -50.4085 C.3       16 UNK        -0.1800 
     92 C          -3.7278  -24.0982  -51.5737 C.2       16 UNK         0.5000 
     93 O          -4.5288  -23.4005  -52.1978 O.2       16 UNK        -0.5000 
     94 N          -2.4458  -24.2324  -51.9509 N.am      17 UNK        -0.5000 
     95 CA         -1.8648  -23.5322  -53.1037 C.3       17 UNK         0.1400 
     96 CB         -0.4632  -24.0827  -53.4018 C.3       17 UNK        -0.1800 
     97 C          -1.8126  -22.0082  -52.8876 C.2       17 UNK         0.5000 
     98 O          -2.0121  -21.2446  -53.8316 O.2       17 UNK        -0.5000 
     99 N          -1.6064  -21.5965  -51.6296 N.am      18 UNK        -0.5000 
    100 CA        -1.6580  -20.2019  -51.2001 C.3       18 UNK         0.1400 
    101 CB        -1.0665  -20.0887  -49.7925 C.3       18 UNK        -0.1800 
    102 C         -3.0827  -19.6200  -51.2456 C.2       18 UNK         0.5000 
    103 O         -3.2363  -18.4429  -51.5613 O.2       18 UNK        -0.5000 
    104 N         -4.1038  -20.4493  -50.9758 N.am      19 UNK        -0.5000 
    105 CA        -5.5150  -20.0710  -51.1078 C.3       19 UNK         0.1400 
    106 CB        -6.4231  -21.1036  -50.4214 C.3       19 UNK        -0.1800 
    107 C         -5.9195  -19.8953  -52.5806 C.2       19 UNK         0.5000 
    108 O         -6.6343  -18.9465  -52.9047 O.2       19 UNK        -0.5000 
    109 N         -5.4138  -20.7817  -53.4508 N.am      20 UNK        -0.5000 
    110 CA        -5.5721  -20.6979  -54.9037 C.3       20 UNK         0.1400 
    111 CB        -5.0411  -21.9837  -55.5551 C.3       20 UNK        -0.1800 
    112 C         -4.8974  -19.4486  -55.5055 C.2       20 UNK         0.5000 
    113 O         -5.4451  -18.8580  -56.4368 O.2       20 UNK        -0.5000 
    114 N         -3.7468  -19.0489  -54.9434 N.am      21 UNK        -0.5000 
    115 CA        -3.0595  -17.7970  -55.2652 C.3       21 UNK         0.1400 
    116 CB        -1.6331  -17.8260  -54.6932 C.3       21 UNK        -0.1800 
    117 C         -3.8291  -16.5566  -54.7675 C.2       21 UNK         0.5000 
    118 O         -3.8827  -15.5551  -55.4826 O.2       21 UNK        -0.5000 
    119 N         -4.4142  -16.6472  -53.5646 N.am      22 UNK        -0.5000 
    120 CA        -5.2786  -15.6177  -52.9643 C.3       22 UNK         0.1400 
    121 C         -6.5988  -15.3843  -53.7510 C.2       22 UNK         0.5000 
    122 N         -7.3087  -16.4393  -54.1311 N.am      22 UNK        -0.7600 
    123 O         -6.9755  -14.2476  -54.0231 O.2       22 UNK        -0.5000 
    124 C124       -5.5662  -15.9121  -51.4656 C.3       23 UNK        -0.0398 
    125 S125       -5.6121  -14.4007  -50.4454 S.3       23 UNK        -0.2404 
    126 C126       -3.9712  -14.4515  -49.6553 C.3       23 UNK        -0.0205 
    127 H127        2.1158  -15.2591  -43.0855 H         1 UNK         0.0600 
    128 H128        2.5056  -14.2341  -41.7044 H         1 UNK         0.0600 
    129 H129        3.4930  -14.1584  -43.1693 H         1 UNK         0.0600 
    130 H130        0.4529  -14.5138  -44.3677 H         1 UNK         0.3000 
    131 H131       -0.6114  -11.8094  -44.0478 H         1 UNK         0.0600 
    132 H132       -1.5204  -13.9916  -45.9807 H         1 UNK         0.0800 
    133 H133       -2.3910  -12.5368  -45.5677 H         1 UNK         0.0800 
    134 H134       -4.6901  -13.5381  -44.7477 H         1 UNK         0.0800 
    135 H135       -4.7963  -15.0611  -43.9037 H         1 UNK         0.0800 
    136 H136       -4.2791  -13.4849  -47.1326 H         1 UNK         0.1150 
    137 H137       -3.6409  -17.1460  -49.2678 H         1 UNK         0.1150 
    138 H138       -3.8122  -17.1679  -44.9880 H         1 UNK         0.1150 
    139 H139       -2.9748  -19.1002  -48.0590 H         1 UNK         0.0800 
    140 H140       -2.7902  -19.0662  -46.3192 H         1 UNK         0.0800 
    141 H141       -4.1724  -21.6303  -48.2335 H         1 UNK         0.0800 
    142 H142       -5.3149  -22.1235  -47.0121 H         1 UNK         0.0800 
    143 H143       -2.3588  -21.4491  -46.6598 H         1 UNK         0.0600 
    144 H144       -4.2771  -20.9254  -44.7250 H         1 UNK         0.3000 
    145 H145       -3.0181  -19.7317  -42.9275 H         1 UNK         0.0600 
    146 H146       -4.3330  -20.7788  -41.0174 H         1 UNK         0.0600 
    147 H147       -5.0247  -21.0686  -42.6020 H         1 UNK         0.0600 
    148 H148       -4.1383  -22.3496  -41.7955 H         1 UNK         0.0600 
    149 H149       -1.1733  -19.8879  -41.7813 H         1 UNK         0.3000 
    150 H150       -0.2910  -21.4599  -38.9796 H         1 UNK         0.0600 
    151 H151        0.7943  -23.3732  -40.1832 H         1 UNK         0.0600 
    152 H152        1.9767  -22.1701  -39.6990 H         1 UNK         0.0600 
    153 H153        1.4462  -22.2574  -41.3783 H         1 UNK         0.0600 
    154 H154        1.2792  -19.9136  -40.8669 H         1 UNK         0.3000 
    155 H155       -0.3075  -16.8793  -40.5602 H         1 UNK         0.0600 
    156 H156        2.2871  -17.4671  -39.0325 H         1 UNK         0.0600 
    157 H157        0.8619  -16.6851  -38.3595 H         1 UNK         0.0600 
    158 H158        1.7726  -15.8894  -39.6323 H         1 UNK         0.0600 
    159 H159        2.3038  -17.5442  -41.4923 H         1 UNK         0.3000 
    160 H160        2.6352  -17.6064  -43.7791 H         1 UNK         0.0600 
    161 H161        1.7246  -20.5426  -43.7658 H         1 UNK         0.0600 
    162 H162        2.9640  -19.8553  -42.7213 H         1 UNK         0.0600 
    163 H163        3.2326  -19.9421  -44.4530 H         1 UNK         0.0600 
    164 H164        1.3445  -19.1130  -45.7746 H         1 UNK         0.3000 
    165 H165       -0.4081  -18.1945  -47.2554 H         1 UNK         0.0600 
    166 H166       -0.7764  -16.3024  -48.8089 H         1 UNK         0.0600 
    167 H167       -1.2721  -15.8694  -47.1815 H         1 UNK         0.0600 
    168 H168        0.2442  -15.2587  -47.8217 H         1 UNK         0.0600 
    169 H169        1.8148  -16.8972  -48.6264 H         1 UNK         0.3000 
    170 H170        4.0563  -18.9737  -48.7274 H         1 UNK         0.0600 
    171 H171        3.1627  -21.1766  -49.3960 H         1 UNK         0.0600 
    172 H172        2.1801  -20.4420  -50.6551 H         1 UNK         0.0600 
    173 H173        3.9372  -20.4055  -50.7674 H         1 UNK         0.0600 
    174 H174        4.0831  -17.3198  -50.1927 H         1 UNK         0.3000 
    175 H175        3.4481  -16.4620  -52.6550 H         1 UNK         0.0600 
    176 H176        0.6601  -15.3263  -52.0880 H         1 UNK         0.0600 
    177 H177        1.7660  -14.7594  -53.3402 H         1 UNK         0.0600 
    178 H178        1.0933  -16.3771  -53.4314 H         1 UNK         0.0600 
    179 H179        2.5844  -14.3119  -50.9314 H         1 UNK         0.3000 
    180 H180        5.3382  -14.1076  -48.8640 H         1 UNK         0.0600 
    181 H181        6.0647  -11.9996  -49.9542 H         1 UNK         0.0600 
    182 H182        5.2422  -12.4575  -51.4464 H         1 UNK         0.0600 
    183 H183        6.6255  -13.3835  -50.8768 H         1 UNK         0.0600 
    184 H184        3.5231  -12.0787  -49.7336 H         1 UNK         0.3000 
    185 H185        2.1003  -11.3764  -47.9290 H         1 UNK         0.0600 
    186 H186       -0.1934  -11.6314  -48.9394 H         1 UNK         0.0600 
    187 H187        1.0337  -12.0824  -50.1050 H         1 UNK         0.0600 
    188 H188        0.1231  -13.3318  -49.2671 H         1 UNK         0.0600 
    189 H189        1.2552  -13.6785  -46.4466 H         1 UNK         0.3000 
    190 H190       -3.9130  -23.7481  -44.6098 H         1 UNK         0.3000 
    191 H191       -3.6497  -26.1343  -46.1260 H         1 UNK         0.0600 
    192 H192       -3.8355  -27.2290  -43.8816 H         1 UNK         0.0600 
    193 H193       -5.0384  -25.9644  -44.0762 H         1 UNK         0.0600 
    194 H194       -3.6028  -25.6728  -43.0931 H         1 UNK         0.0600 
    195 H195       -1.2486  -24.2266  -44.3387 H         1 UNK         0.3000 
    196 H196        0.7992  -26.2432  -44.1964 H         1 UNK         0.0600 
    197 H197        1.0195  -23.1853  -44.1444 H         1 UNK         0.0600 
    198 H198        0.7318  -24.2110  -42.7388 H         1 UNK         0.0600 
    199 H199        2.2506  -24.3248  -43.6165 H         1 UNK         0.0600 
    200 H200       -0.3887  -24.2324  -46.7704 H         1 UNK         0.3000 
    201 H201        1.9216  -24.8422  -48.5605 H         1 UNK         0.0600 
    202 H202       -0.3611  -22.8174  -48.8428 H         1 UNK         0.0600 
    203 H203        1.0025  -23.0048  -49.9428 H         1 UNK         0.0600 
    204 H204        1.2702  -22.4294  -48.3065 H         1 UNK         0.0600 
    205 H205       -0.6393  -26.4877  -47.5902 H         1 UNK         0.3000 
    206 H206       -2.1136  -27.9440  -48.3511 H         1 UNK         0.0600 
    207 H207       -0.0463  -28.9716  -49.3233 H         1 UNK         0.0600 
    208 H208       -1.4708  -29.3437  -50.2786 H         1 UNK         0.0600 
    209 H209       -0.3361  -28.1240  -50.8419 H         1 UNK         0.0600 
    210 H210       -2.7622  -25.2238  -48.7931 H         1 UNK         0.3000 
    211 H211       -4.3408  -23.9415  -49.5607 H         1 UNK         0.0600 
    212 H212       -6.3272  -24.7729  -50.7107 H         1 UNK         0.0600 
    213 H213       -5.8674  -25.9216  -49.4659 H         1 UNK         0.0600 
    214 H214       -5.5190  -26.2638  -51.1611 H         1 UNK         0.0600 
    215 H215       -1.8177  -24.8105  -51.4035 H         1 UNK         0.3000 
    216 H216       -2.4983  -23.7268  -53.9717 H         1 UNK         0.0600 
    217 H217        0.2404  -23.8526  -52.6012 H         1 UNK         0.0600 
    218 H218       -0.0642  -23.6495  -54.3198 H         1 UNK         0.0600 
    219 H219       -0.4818  -25.1649  -53.5325 H         1 UNK         0.0600 
    220 H220       -1.4363  -22.2929  -50.9205 H         1 UNK         0.3000 
    221 H221       -1.0355  -19.6123  -51.8767 H         1 UNK         0.0600 
    222 H222       -0.0347  -20.4341  -49.7810 H         1 UNK         0.0600 
    223 H223       -1.6235  -20.6787  -49.0650 H         1 UNK         0.0600 
    224 H224       -1.0585  -19.0502  -49.4606 H         1 UNK         0.0600 
    225 H225       -3.9073  -21.4204  -50.7934 H         1 UNK         0.3000 
    226 H226       -5.6598  -19.1121  -50.6049 H         1 UNK         0.0600 
    227 H227       -6.3090  -22.1003  -50.8450 H         1 UNK         0.0600 
    228 H228       -6.2236  -21.1659  -49.3544 H         1 UNK         0.0600 
    229 H229       -7.4722  -20.8256  -50.5299 H         1 UNK         0.0600 
    230 H230       -4.8835  -21.5683  -53.0924 H         1 UNK         0.3000 
    231 H231       -6.6411  -20.6293  -55.1155 H         1 UNK         0.0600 
    232 H232       -3.9704  -22.1068  -55.3959 H         1 UNK         0.0600 
    233 H233       -5.2120  -21.9726  -56.6321 H         1 UNK         0.0600 
    234 H234       -5.5422  -22.8652  -55.1543 H         1 UNK         0.0600 
    235 H235       -3.3185  -19.6406  -54.2412 H         1 UNK         0.3000 
    236 H236       -2.9823  -17.7266  -56.3522 H         1 UNK         0.0600 
    237 H237       -1.0759  -18.6868  -55.0635 H         1 UNK         0.0600 
    238 H238       -1.0808  -16.9312  -54.9825 H         1 UNK         0.0600 
    239 H239       -1.6310  -17.8706  -53.6045 H         1 UNK         0.0600 
    240 H240       -4.2578  -17.4829  -53.0127 H         1 UNK         0.3000 
    241 H241       -4.7069  -14.6893  -53.0239 H         1 UNK         0.0600 
    242 H242       -8.1627  -16.3080  -54.6488 H         1 UNK         0.3800 
    243 H243       -7.0285  -17.3748  -53.8451 H         1 UNK         0.3800 
    244 H244       -4.8020  -16.5649  -51.0558 H         1 UNK         0.0800 
    245 H245       -6.5002  -16.4608  -51.3301 H         1 UNK         0.0800 
    246 H246       -3.6473  -13.4265  -49.4682 H         1 UNK         0.0800 
    247 H247       -3.2349  -14.8732  -50.3416 H         1 UNK         0.0800 
@<TRIPOS>BOND
     1    1    2 1    
     2    1  127 1    
     3    1  128 1    
     4    1  129 1    
     5    2    3 2    
     6    2    4 am   BACKBONE|DICT|INTERRES
     7    4    5 1    
     8    4  130 1    
     9    5    6 1    
    10    5   65 1    
    11    5  131 1    
    12    6    7 1    
    13    6  132 1    
    14    6  133 1    
    15    7    8 1    
    16    8    9 1    
    17    8  134 1    
    18    8  135 1    
    19    9   10 ar   
    20    9   14 ar   
    21   10   11 ar   
    22   10  136 1    
    23   11   12 ar   
    24   11  126 1    
    25   12   13 ar   
    26   12  137 1    
    27   13   14 ar   
    28   13   15 1    
    29   14  138 1    
    30   15   16 1    
    31   15  139 1    
    32   15  140 1    
    33   16   17 1    
    34   17   18 1    
    35   17  141 1    
    36   17  142 1    
    37   18   19 1    
    38   18   67 1    
    39   18  143 1    
    40   19   20 am   BACKBONE|DICT|INTERRES
    41   19  144 1    
    42   20   21 2    
    43   20   22 1    
    44   22   23 1    
    45   22   24 1    
    46   22  145 1    
    47   23  146 1    
    48   23  147 1    
    49   23  148 1    
    50   24   25 am   BACKBONE|DICT|INTERRES
    51   24  149 1    
    52   25   26 2    
    53   25   27 1    
    54   27   28 1    
    55   27   29 1    
    56   27  150 1    
    57   28  151 1    
    58   28  152 1    
    59   28  153 1    
    60   29   30 am   BACKBONE|DICT|INTERRES
    61   29  154 1    
    62   30   31 2    
    63   30   32 1    
    64   32   33 1    
    65   32   34 1    
    66   32  155 1    
    67   33  156 1    
    68   33  157 1    
    69   33  158 1    
    70   34   35 am   BACKBONE|DICT|INTERRES
    71   34  159 1    
    72   35   36 2    
    73   35   37 1    
    74   37   38 1    
    75   37   39 1    
    76   37  160 1    
    77   38  161 1    
    78   38  162 1    
    79   38  163 1    
    80   39   40 am   BACKBONE|DICT|INTERRES
    81   39  164 1    
    82   40   41 2    
    83   40   42 1    
    84   42   43 1    
    85   42   44 1    
    86   42  165 1    
    87   43  166 1    
    88   43  167 1    
    89   43  168 1    
    90   44   45 am   BACKBONE|DICT|INTERRES
    91   44  169 1    
    92   45   46 2    
    93   45   47 1    
    94   47   48 1    
    95   47   49 1    
    96   47  170 1    
    97   48  171 1    
    98   48  172 1    
    99   48  173 1    
   100   49   50 am   BACKBONE|DICT|INTERRES
   101   49  174 1    
   102   50   51 2    
   103   50   52 1    
   104   52   53 1    
   105   52   54 1    
   106   52  175 1    
   107   53  176 1    
   108   53  177 1    
   109   53  178 1    
   110   54   55 am   BACKBONE|DICT|INTERRES
   111   54  179 1    
   112   55   56 2    
   113   55   57 1    
   114   57   58 1    
   115   57   59 1    
   116   57  180 1    
   117   58  181 1    
   118   58  182 1    
   119   58  183 1    
   120   59   60 am   BACKBONE|DICT|INTERRES
   121   59  184 1    
   122   60   61 2    
   123   60   62 1    
   124   62   63 1    
   125   62   64 1    
   126   62  185 1    
   127   63  186 1    
   128   63  187 1    
   129   63  188 1    
   130   64   65 am   BACKBONE|DICT|INTERRES
   131   64  189 1    
   132   65   66 2    
   133   67   68 2    
   134   67   69 am   BACKBONE|DICT|INTERRES
   135   69   70 1    
   136   69  190 1    
   137   70   71 1    
   138   70   72 1    
   139   70  191 1    
   140   71  192 1    
   141   71  193 1    
   142   71  194 1    
   143   72   73 2    
   144   72   74 am   BACKBONE|DICT|INTERRES
   145   74   75 1    
   146   74  195 1    
   147   75   76 1    
   148   75   77 1    
   149   75  196 1    
   150   76  197 1    
   151   76  198 1    
   152   76  199 1    
   153   77   78 2    
   154   77   79 am   BACKBONE|DICT|INTERRES
   155   79   80 1    
   156   79  200 1    
   157   80   81 1    
   158   80   82 1    
   159   80  201 1    
   160   81  202 1    
   161   81  203 1    
   162   81  204 1    
   163   82   83 2    
   164   82   84 am   BACKBONE|DICT|INTERRES
   165   84   85 1    
   166   84  205 1    
   167   85   86 1    
   168   85   87 1    
   169   85  206 1    
   170   86  207 1    
   171   86  208 1    
   172   86  209 1    
   173   87   88 2    
   174   87   89 am   BACKBONE|DICT|INTERRES
   175   89   90 1    
   176   89  210 1    
   177   90   91 1    
   178   90   92 1    
   179   90  211 1    
   180   91  212 1    
   181   91  213 1    
   182   91  214 1    
   183   92   93 2    
   184   92   94 am   BACKBONE|DICT|INTERRES
   185   94   95 1    
   186   94  215 1    
   187   95   96 1    
   188   95   97 1    
   189   95  216 1    
   190   96  217 1    
   191   96  218 1    
   192   96  219 1    
   193   97   98 2    
   194   97   99 am   BACKBONE|DICT|INTERRES
   195   99  100 1    
   196   99  220 1    
   197  100  101 1    
   198  100  102 1    
   199  100  221 1    
   200  101  222 1    
   201  101  223 1    
   202  101  224 1    
   203  102  103 2    
   204  102  104 am   BACKBONE|DICT|INTERRES
   205  104  105 1    
   206  104  225 1    
   207  105  106 1    
   208  105  107 1    
   209  105  226 1    
   210  106  227 1    
   211  106  228 1    
   212  106  229 1    
   213  107  108 2    
   214  107  109 am   BACKBONE|DICT|INTERRES
   215  109  110 1    
   216  109  230 1    
   217  110  111 1    
   218  110  112 1    
   219  110  231 1    
   220  111  232 1    
   221  111  233 1    
   222  111  234 1    
   223  112  113 2    
   224  112  114 am   BACKBONE|DICT|INTERRES
   225  114  115 1    
   226  114  235 1    
   227  115  116 1    
   228  115  117 1    
   229  115  236 1    
   230  116  237 1    
   231  116  238 1    
   232  116  239 1    
   233  117  118 2    
   234  117  119 am   BACKBONE|DICT|INTERRES
   235  119  120 1    
   236  119  240 1    
   237  120  121 1    
   238  120  124 1    
   239  120  241 1    
   240  121  122 am   BACKBONE|DICT|INTERRES
   241  121  123 2    
   242  122  242 1    
   243  122  243 1    
   244  124  125 1    
   245  124  244 1    
   246  124  245 1    
   247  125  126 1    
   248  126  246 1    
   249  126  247 1    
@<TRIPOS>SUBSTRUCTURE
     1 UNK         1 GROUP             0       ****    0 ROOT    
