@<TRIPOS>MOLECULE
3R540
247   249    1
SMALL
USER_CHARGES


@<TRIPOS>ATOM
      1 CA         -4.8199   -9.6478  -45.4931 C.3       0 UNK        -0.1800 
      2 C          -3.7859  -10.6225  -46.0377 C.2       0 UNK         0.5000 
      3 O          -2.5937  -10.4504  -45.7888 O.2       0 UNK        -0.5000 
      4 N          -4.2385  -11.6489  -46.7701 N.am      1 UNK        -0.5000 
      5 CA         -3.4055  -12.6957  -47.3747 C.3       1 UNK         0.1400 
      6 C6         -4.2456  -13.5932  -48.3163 C.3       23 UNK        -0.0398 
      7 S7         -3.2623  -14.6954  -49.3904 S.3       23 UNK        -0.2404 
      8 C8         -3.3170  -16.2485  -48.4426 C.3       23 UNK        -0.0205 
      9 C9         -3.2146  -17.4582  -49.3554 C.ar      23 UNK        -0.0193 
     10 C10        -4.3756  -18.0896  -49.8105 C.ar      23 UNK        -0.1150 
     11 C11        -4.2954  -19.2095  -50.6420 C.ar      23 UNK        -0.0193 
     12 C12        -3.0411  -19.6907  -51.0251 C.ar      23 UNK        -0.1150 
     13 C13        -1.8729  -19.0787  -50.5633 C.ar      23 UNK        -0.0193 
     14 C14        -1.9652  -17.9599  -49.7296 C.ar      23 UNK        -0.1150 
     15 C15        -0.5143  -19.6332  -50.9640 C.3       23 UNK        -0.0205 
     16 S16        -0.2210  -21.2941  -50.2805 S.3       23 UNK        -0.2404 
     17 C17        -0.0281  -20.9151  -48.5102 C.3       23 UNK        -0.0398 
     18 CA         -0.8359  -21.8502  -47.5821 C.3       11 UNK         0.1400 
     19 N          -0.3824  -21.7191  -46.1959 N.am      11 UNK        -0.5000 
     20 C          -0.7419  -22.5193  -45.1844 C.2       10 UNK         0.5000 
     21 O          -1.4710  -23.5003  -45.3162 O.2       10 UNK        -0.5000 
     22 CA         -0.2457  -22.1251  -43.7812 C.3       10 UNK         0.1400 
     23 CB          1.2004  -22.5914  -43.5581 C.3       10 UNK        -0.1800 
     24 N          -0.3441  -20.6846  -43.5389 N.am      10 UNK        -0.5000 
     25 C          -1.4971  -20.0013  -43.5035 C.2       9 UNK         0.5000 
     26 O          -2.6036  -20.5284  -43.6111 O.2       9 UNK        -0.5000 
     27 CA         -1.3975  -18.4702  -43.3764 C.3       9 UNK         0.1400 
     28 CB         -1.1491  -18.0633  -41.9168 C.3       9 UNK        -0.1800 
     29 N          -0.3612  -17.9018  -44.2420 N.am      9 UNK        -0.5000 
     30 C          -0.3800  -17.9657  -45.5819 C.2       8 UNK         0.5000 
     31 O          -1.3129  -18.4381  -46.2276 O.2       8 UNK        -0.5000 
     32 CA          0.8771  -17.4857  -46.3265 C.3       8 UNK         0.1400 
     33 CB          0.8409  -15.9708  -46.5706 C.3       8 UNK        -0.1800 
     34 N           2.1008  -17.8535  -45.6147 N.am      8 UNK        -0.5000 
     35 C           2.5635  -19.1088  -45.5218 C.2       7 UNK         0.5000 
     36 O           2.0235  -20.0736  -46.0605 O.2       7 UNK        -0.5000 
     37 CA          3.8100  -19.3314  -44.6457 C.3       7 UNK         0.1400 
     38 CB          5.0902  -19.0547  -45.4475 C.3       7 UNK        -0.1800 
     39 N           3.8028  -18.4998  -43.4424 N.am      7 UNK        -0.5000 
     40 C           2.9169  -18.6161  -42.4426 C.2       6 UNK         0.5000 
     41 O           2.0580  -19.4955  -42.3931 O.2       6 UNK        -0.5000 
     42 CA          2.9628  -17.5301  -41.3489 C.3       6 UNK         0.1400 
     43 CB          3.8972  -17.9534  -40.2063 C.3       6 UNK        -0.1800 
     44 N           3.3827  -16.2219  -41.8639 N.am      6 UNK        -0.5000 
     45 C           2.7003  -15.5175  -42.7760 C.2       5 UNK         0.5000 
     46 O           1.6186  -15.8767  -43.2467 O.2       5 UNK        -0.5000 
     47 CA          3.3857  -14.2593  -43.3198 C.3       5 UNK         0.1400 
     48 CB          4.4052  -14.6558  -44.4084 C.3       5 UNK        -0.1800 
     49 N           2.3727  -13.3642  -43.8705 N.am      5 UNK        -0.5000 
     50 C           2.5781  -12.1000  -44.2597 C.2       4 UNK         0.5000 
     51 O           3.6653  -11.5260  -44.1797 O.2       4 UNK        -0.5000 
     52 CA          1.3675  -11.3380  -44.8294 C.3       4 UNK         0.1400 
     53 CB          1.2202  -11.6143  -46.3333 C.3       4 UNK        -0.1800 
     54 N           0.1083  -11.6503  -44.1521 N.am      4 UNK        -0.5000 
     55 C          -0.1773  -11.3163  -42.8839 C.2       3 UNK         0.5000 
     56 O           0.6144  -10.7347  -42.1407 O.2       3 UNK        -0.5000 
     57 CA         -1.5803  -11.6664  -42.3473 C.3       3 UNK         0.1400 
     58 CB         -2.4380  -10.3995  -42.1993 C.3       3 UNK        -0.1800 
     59 N          -2.2930  -12.6287  -43.1878 N.am      3 UNK        -0.5000 
     60 C          -2.0610  -13.9479  -43.1865 C.2       2 UNK         0.5000 
     61 O          -1.2526  -14.4872  -42.4344 O.2       2 UNK        -0.5000 
     62 CA         -2.8511  -14.8063  -44.1952 C.3       2 UNK         0.1400 
     63 CB         -3.9949  -15.5556  -43.4956 C.3       2 UNK        -0.1800 
     64 N          -3.4001  -14.0339  -45.3138 N.am      2 UNK        -0.5000 
     65 C          -2.6570  -13.5130  -46.3006 C.2       1 UNK         0.5000 
     66 O          -1.4328  -13.6142  -46.3500 O.2       1 UNK        -0.5000 
     67 C          -2.3643  -21.6596  -47.7219 C.2       11 UNK         0.5000 
     68 O          -2.9963  -22.4071  -48.4678 O.2       11 UNK        -0.5000 
     69 N          -2.9309  -20.7048  -46.9693 N.am      12 UNK        -0.5000 
     70 CA         -4.3695  -20.4504  -46.8892 C.3       12 UNK         0.1400 
     71 CB         -4.6114  -19.1070  -46.1832 C.3       12 UNK        -0.1800 
     72 C          -5.1430  -21.5730  -46.1725 C.2       12 UNK         0.5000 
     73 O          -6.2768  -21.8632  -46.5561 O.2       12 UNK        -0.5000 
     74 N          -4.5320  -22.1685  -45.1379 N.am      13 UNK        -0.5000 
     75 CA         -5.0769  -23.3052  -44.3932 C.3       13 UNK         0.1400 
     76 CB         -4.3056  -23.4716  -43.0749 C.3       13 UNK        -0.1800 
     77 C          -5.0522  -24.6087  -45.2137 C.2       13 UNK         0.5000 
     78 O          -5.9977  -25.3953  -45.1381 O.2       13 UNK        -0.5000 
     79 N          -3.9796  -24.8038  -45.9906 N.am      14 UNK        -0.5000 
     80 CA         -3.8312  -25.8673  -46.9816 C.3       14 UNK         0.1400 
     81 CB         -2.3518  -25.9382  -47.4007 C.3       14 UNK        -0.1800 
     82 C          -4.7305  -25.6406  -48.2138 C.2       14 UNK         0.5000 
     83 O          -5.2977  -24.5620  -48.3963 O.2       14 UNK        -0.5000 
     84 N          -4.8047  -26.6505  -49.0876 N.am      15 UNK        -0.5000 
     85 CA         -5.5258  -26.6045  -50.3634 C.3       15 UNK         0.1400 
     86 CB         -5.9152  -28.0414  -50.7573 C.3       15 UNK        -0.1800 
     87 C          -4.7197  -25.8828  -51.4695 C.2       15 UNK         0.5000 
     88 O          -4.6187  -26.3952  -52.5847 O.2       15 UNK        -0.5000 
     89 N          -4.1171  -24.7317  -51.1322 N.am      16 UNK        -0.5000 
     90 CA         -3.2891  -23.8266  -51.9475 C.3       16 UNK         0.1400 
     91 CB         -4.1052  -23.2578  -53.1234 C.3       16 UNK        -0.1800 
     92 C          -1.9510  -24.4074  -52.4565 C.2       16 UNK         0.5000 
     93 O          -1.0309  -23.6403  -52.7329 O.2       16 UNK        -0.5000 
     94 N          -1.8416  -25.7369  -52.5650 N.am      17 UNK        -0.5000 
     95 CA         -0.7393  -26.5005  -53.1618 C.3       17 UNK         0.1400 
     96 CB         -1.0853  -27.9950  -53.0668 C.3       17 UNK        -0.1800 
     97 C           0.6702  -26.2390  -52.5886 C.2       17 UNK         0.5000 
     98 O           1.6538  -26.6167  -53.2265 O.2       17 UNK        -0.5000 
     99 N           0.7533  -25.5994  -51.4148 N.am      18 UNK        -0.5000 
    100 CA         1.9967  -25.1679  -50.7797 C.3       18 UNK         0.1400 
    101 CB         1.6901  -24.6750  -49.3572 C.3       18 UNK        -0.1800 
    102 C          2.7605  -24.0913  -51.5798 C.2       18 UNK         0.5000 
    103 O          3.9921  -24.0945  -51.5428 O.2       18 UNK        -0.5000 
    104 N          2.0427  -23.2045  -52.2880 N.am      19 UNK        -0.5000 
    105 CA         2.6444  -22.1245  -53.0821 C.3       19 UNK         0.1400 
    106 CB         3.0535  -20.9523  -52.1664 C.3       19 UNK        -0.1800 
    107 C          1.7791  -21.6435  -54.2649 C.2       19 UNK         0.5000 
    108 O          2.1797  -20.6898  -54.9340 O.2       19 UNK        -0.5000 
    109 N          0.6318  -22.2907  -54.5202 N.am      20 UNK        -0.5000 
    110 CA        -0.3892  -21.9315  -55.5092 C.3       20 UNK         0.1400 
    111 CB         0.1561  -22.0049  -56.9541 C.3       20 UNK        -0.1800 
    112 C         -1.0531  -20.5941  -55.1296 C.2       20 UNK         0.5000 
    113 O         -1.7079  -20.5430  -54.0896 O.2       20 UNK        -0.5000 
    114 N         -0.8697  -19.5492  -55.9508 N.am      21 UNK        -0.5000 
    115 CA        -1.3308  -18.1722  -55.7404 C.3       21 UNK         0.1400 
    116 CB        -0.4687  -17.4897  -54.6534 C.3       21 UNK        -0.1800 
    117 C         -2.8530  -18.0927  -55.4836 C.2       21 UNK         0.5000 
    118 O         -3.6257  -18.4893  -56.3582 O.2       21 UNK        -0.5000 
    119 N         -3.2510  -17.5947  -54.3045 N.am      22 UNK        -0.5000 
    120 CA        -4.6426  -17.4738  -53.8376 C.3       22 UNK         0.1400 
    121 C         -5.4906  -16.3981  -54.5891 C.2       22 UNK         0.5000 
    122 N         -4.8777  -15.4460  -55.2831 N.am      22 UNK        -0.7600 
    123 O         -6.7171  -16.4021  -54.5320 O.2       22 UNK        -0.5000 
    124 C124       -5.3453  -18.8598  -53.7222 C.3       23 UNK        -0.0398 
    125 S125       -6.5070  -18.9468  -52.3154 S.3       23 UNK        -0.2404 
    126 C126       -5.5620  -19.9176  -51.0984 C.3       23 UNK        -0.0205 
    127 H127       -4.5877   -8.6342  -45.8198 H         1 UNK         0.0600 
    128 H128       -4.8152   -9.6651  -44.4033 H         1 UNK         0.0600 
    129 H129       -5.8266   -9.8918  -45.8331 H         1 UNK         0.0600 
    130 H130       -5.2319  -11.7259  -46.9368 H         1 UNK         0.3000 
    131 H131       -2.6504  -12.1896  -47.9805 H         1 UNK         0.0600 
    132 H132       -4.8241  -12.9576  -48.9883 H         1 UNK         0.0800 
    133 H133       -4.9869  -14.1667  -47.7581 H         1 UNK         0.0800 
    134 H134       -2.5067  -16.2601  -47.7119 H         1 UNK         0.0800 
    135 H135       -4.2438  -16.3066  -47.8715 H         1 UNK         0.0800 
    136 H136       -5.3447  -17.7133  -49.5147 H         1 UNK         0.1150 
    137 H137       -2.9661  -20.5556  -51.6692 H         1 UNK         0.1150 
    138 H138       -1.0678  -17.4794  -49.3667 H         1 UNK         0.1150 
    139 H139       -0.4531  -19.6898  -52.0490 H         1 UNK         0.0800 
    140 H140        0.2898  -18.9662  -50.6500 H         1 UNK         0.0800 
    141 H141       -0.2806  -19.8734  -48.3131 H         1 UNK         0.0800 
    142 H142        1.0363  -21.0115  -48.2944 H         1 UNK         0.0800 
    143 H143       -0.6192  -22.8785  -47.8774 H         1 UNK         0.0600 
    144 H144        0.2728  -20.9667  -46.0075 H         1 UNK         0.3000 
    145 H145       -0.8806  -22.6299  -43.0504 H         1 UNK         0.0600 
    146 H146        1.5332  -22.3701  -42.5438 H         1 UNK         0.0600 
    147 H147        1.8923  -22.1093  -44.2486 H         1 UNK         0.0600 
    148 H148        1.2892  -23.6688  -43.7027 H         1 UNK         0.0600 
    149 H149        0.5259  -20.1873  -43.3723 H         1 UNK         0.3000 
    150 H150       -2.3547  -18.0497  -43.6895 H         1 UNK         0.0600 
    151 H151       -1.9717  -18.3891  -41.2793 H         1 UNK         0.0600 
    152 H152       -1.0658  -16.9831  -41.8126 H         1 UNK         0.0600 
    153 H153       -0.2359  -18.5055  -41.5205 H         1 UNK         0.0600 
    154 H154        0.4196  -17.4390  -43.7886 H         1 UNK         0.3000 
    155 H155        0.8956  -17.9757  -47.3020 H         1 UNK         0.0600 
    156 H156        0.0070  -15.7105  -47.2231 H         1 UNK         0.0600 
    157 H157        1.7520  -15.6229  -47.0572 H         1 UNK         0.0600 
    158 H158        0.7166  -15.4070  -45.6464 H         1 UNK         0.0600 
    159 H159        2.5559  -17.1229  -45.0889 H         1 UNK         0.3000 
    160 H160        3.8183  -20.3785  -44.3359 H         1 UNK         0.0600 
    161 H161        5.1518  -18.0128  -45.7645 H         1 UNK         0.0600 
    162 H162        5.1295  -19.6740  -46.3447 H         1 UNK         0.0600 
    163 H163        5.9801  -19.2801  -44.8594 H         1 UNK         0.0600 
    164 H164        4.4852  -17.7584  -43.3957 H         1 UNK         0.3000 
    165 H165        1.9538  -17.4243  -40.9453 H         1 UNK         0.0600 
    166 H166        3.8782  -17.2287  -39.3922 H         1 UNK         0.0600 
    167 H167        3.5935  -18.9152  -39.7905 H         1 UNK         0.0600 
    168 H168        4.9294  -18.0530  -40.5445 H         1 UNK         0.0600 
    169 H169        4.2678  -15.8689  -41.5289 H         1 UNK         0.3000 
    170 H170        3.8953  -13.7541  -42.4968 H         1 UNK         0.0600 
    171 H171        3.9152  -15.1138  -45.2686 H         1 UNK         0.0600 
    172 H172        4.9668  -13.7939  -44.7676 H         1 UNK         0.0600 
    173 H173        5.1359  -15.3698  -44.0268 H         1 UNK         0.0600 
    174 H174        1.4450  -13.7665  -43.9283 H         1 UNK         0.3000 
    175 H175        1.5564  -10.2702  -44.7005 H         1 UNK         0.0600 
    176 H176        1.0729  -12.6760  -46.5348 H         1 UNK         0.0600 
    177 H177        0.3730  -11.0723  -46.7548 H         1 UNK         0.0600 
    178 H178        2.1124  -11.3000  -46.8761 H         1 UNK         0.0600 
    179 H179       -0.5993  -12.1150  -44.7064 H         1 UNK         0.3000 
    180 H180       -1.4503  -12.0998  -41.3532 H         1 UNK         0.0600 
    181 H181       -3.4291  -10.6341  -41.8106 H         1 UNK         0.0600 
    182 H182       -2.5618   -9.8818  -43.1503 H         1 UNK         0.0600 
    183 H183       -1.9761   -9.6964  -41.5051 H         1 UNK         0.0600 
    184 H184       -2.9502  -12.2520  -43.8544 H         1 UNK         0.3000 
    185 H185       -2.1578  -15.5469  -44.5992 H         1 UNK         0.0600 
    186 H186       -4.7501  -14.8690  -43.1114 H         1 UNK         0.0600 
    187 H187       -4.4853  -16.2505  -44.1779 H         1 UNK         0.0600 
    188 H188       -3.6239  -16.1384  -42.6515 H         1 UNK         0.0600 
    189 H189       -4.3982  -13.8817  -45.3151 H         1 UNK         0.3000 
    190 H190       -2.3312  -20.0758  -46.4440 H         1 UNK         0.3000 
    191 H191       -4.7519  -20.3769  -47.9089 H         1 UNK         0.0600 
    192 H192       -4.0425  -18.3073  -46.6517 H         1 UNK         0.0600 
    193 H193       -4.3220  -19.1427  -45.1330 H         1 UNK         0.0600 
    194 H194       -5.6650  -18.8291  -46.2248 H         1 UNK         0.0600 
    195 H195       -3.6343  -21.8082  -44.8325 H         1 UNK         0.3000 
    196 H196       -6.1181  -23.0844  -44.1491 H         1 UNK         0.0600 
    197 H197       -4.3659  -22.5689  -42.4666 H         1 UNK         0.0600 
    198 H198       -3.2512  -23.6874  -43.2482 H         1 UNK         0.0600 
    199 H199       -4.7158  -24.2914  -42.4841 H         1 UNK         0.0600 
    200 H200       -3.2292  -24.1214  -45.9525 H         1 UNK         0.3000 
    201 H201       -4.1145  -26.8147  -46.5188 H         1 UNK         0.0600 
    202 H202       -1.7051  -26.0963  -46.5373 H         1 UNK         0.0600 
    203 H203       -2.0306  -25.0192  -47.8924 H         1 UNK         0.0600 
    204 H204       -2.1704  -26.7610  -48.0928 H         1 UNK         0.0600 
    205 H205       -4.2909  -27.4991  -48.8985 H         1 UNK         0.3000 
    206 H206       -6.4510  -26.0404  -50.2283 H         1 UNK         0.0600 
    207 H207       -6.5106  -28.5164  -49.9773 H         1 UNK         0.0600 
    208 H208       -6.5146  -28.0506  -51.6686 H         1 UNK         0.0600 
    209 H209       -5.0364  -28.6627  -50.9344 H         1 UNK         0.0600 
    210 H210       -4.2718  -24.4125  -50.1804 H         1 UNK         0.3000 
    211 H211       -3.0302  -22.9957  -51.2892 H         1 UNK         0.0600 
    212 H212       -5.0567  -22.8478  -52.7872 H         1 UNK         0.0600 
    213 H213       -4.3185  -24.0190  -53.8744 H         1 UNK         0.0600 
    214 H214       -3.5616  -22.4542  -53.6207 H         1 UNK         0.0600 
    215 H215       -2.6896  -26.2618  -52.3814 H         1 UNK         0.3000 
    216 H216       -0.7010  -26.2267  -54.2178 H         1 UNK         0.0600 
    217 H217       -0.3173  -28.6093  -53.5388 H         1 UNK         0.0600 
    218 H218       -2.0278  -28.2149  -53.5691 H         1 UNK         0.0600 
    219 H219       -1.1746  -28.3190  -52.0292 H         1 UNK         0.0600 
    220 H220       -0.1077  -25.3101  -50.9759 H         1 UNK         0.3000 
    221 H221        2.6485  -26.0404  -50.7010 H         1 UNK         0.0600 
    222 H222        1.0150  -23.8208  -49.3681 H         1 UNK         0.0600 
    223 H223        1.2295  -25.4592  -48.7561 H         1 UNK         0.0600 
    224 H224        2.6018  -24.3652  -48.8449 H         1 UNK         0.0600 
    225 H225        1.0305  -23.2458  -52.2484 H         1 UNK         0.3000 
    226 H226        3.5528  -22.5149  -53.5457 H         1 UNK         0.0600 
    227 H227        3.7116  -21.2798  -51.3618 H         1 UNK         0.0600 
    228 H228        3.5914  -20.1856  -52.7251 H         1 UNK         0.0600 
    229 H229        2.1858  -20.4748  -51.7151 H         1 UNK         0.0600 
    230 H230        0.3128  -22.9934  -53.8614 H         1 UNK         0.3000 
    231 H231       -1.1709  -22.6877  -55.4224 H         1 UNK         0.0600 
    232 H232       -0.6386  -21.8244  -57.6790 H         1 UNK         0.0600 
    233 H233        0.5608  -22.9949  -57.1641 H         1 UNK         0.0600 
    234 H234        0.9474  -21.2802  -57.1452 H         1 UNK         0.0600 
    235 H235       -0.3307  -19.7040  -56.7904 H         1 UNK         0.3000 
    236 H236       -1.1551  -17.6425  -56.6777 H         1 UNK         0.0600 
    237 H237       -0.5833  -17.9636  -53.6787 H         1 UNK         0.0600 
    238 H238        0.5889  -17.5336  -54.9139 H         1 UNK         0.0600 
    239 H239       -0.7269  -16.4354  -54.5469 H         1 UNK         0.0600 
    240 H240       -2.5435  -17.3096  -53.6433 H         1 UNK         0.3000 
    241 H241       -4.5389  -17.0753  -52.8276 H         1 UNK         0.0600 
    242 H242       -5.4272  -14.7492  -55.7613 H         1 UNK         0.3800 
    243 H243       -3.8723  -15.4154  -55.3366 H         1 UNK         0.3800 
    244 H244       -4.6058  -19.6526  -53.5984 H         1 UNK         0.0800 
    245 H245       -5.8781  -19.1054  -54.6422 H         1 UNK         0.0800 
    246 H246       -5.3276  -20.8957  -51.5181 H         1 UNK         0.0800 
    247 H247       -6.1954  -20.1062  -50.2305 H         1 UNK         0.0800 
@<TRIPOS>BOND
     1    1    2 1    
     2    1  127 1    
     3    1  128 1    
     4    1  129 1    
     5    2    3 2    
     6    2    4 am   BACKBONE|DICT|INTERRES
     7    4    5 1    
     8    4  130 1    
     9    5    6 1    
    10    5   65 1    
    11    5  131 1    
    12    6    7 1    
    13    6  132 1    
    14    6  133 1    
    15    7    8 1    
    16    8    9 1    
    17    8  134 1    
    18    8  135 1    
    19    9   10 ar   
    20    9   14 ar   
    21   10   11 ar   
    22   10  136 1    
    23   11   12 ar   
    24   11  126 1    
    25   12   13 ar   
    26   12  137 1    
    27   13   14 ar   
    28   13   15 1    
    29   14  138 1    
    30   15   16 1    
    31   15  139 1    
    32   15  140 1    
    33   16   17 1    
    34   17   18 1    
    35   17  141 1    
    36   17  142 1    
    37   18   19 1    
    38   18   67 1    
    39   18  143 1    
    40   19   20 am   BACKBONE|DICT|INTERRES
    41   19  144 1    
    42   20   21 2    
    43   20   22 1    
    44   22   23 1    
    45   22   24 1    
    46   22  145 1    
    47   23  146 1    
    48   23  147 1    
    49   23  148 1    
    50   24   25 am   BACKBONE|DICT|INTERRES
    51   24  149 1    
    52   25   26 2    
    53   25   27 1    
    54   27   28 1    
    55   27   29 1    
    56   27  150 1    
    57   28  151 1    
    58   28  152 1    
    59   28  153 1    
    60   29   30 am   BACKBONE|DICT|INTERRES
    61   29  154 1    
    62   30   31 2    
    63   30   32 1    
    64   32   33 1    
    65   32   34 1    
    66   32  155 1    
    67   33  156 1    
    68   33  157 1    
    69   33  158 1    
    70   34   35 am   BACKBONE|DICT|INTERRES
    71   34  159 1    
    72   35   36 2    
    73   35   37 1    
    74   37   38 1    
    75   37   39 1    
    76   37  160 1    
    77   38  161 1    
    78   38  162 1    
    79   38  163 1    
    80   39   40 am   BACKBONE|DICT|INTERRES
    81   39  164 1    
    82   40   41 2    
    83   40   42 1    
    84   42   43 1    
    85   42   44 1    
    86   42  165 1    
    87   43  166 1    
    88   43  167 1    
    89   43  168 1    
    90   44   45 am   BACKBONE|DICT|INTERRES
    91   44  169 1    
    92   45   46 2    
    93   45   47 1    
    94   47   48 1    
    95   47   49 1    
    96   47  170 1    
    97   48  171 1    
    98   48  172 1    
    99   48  173 1    
   100   49   50 am   BACKBONE|DICT|INTERRES
   101   49  174 1    
   102   50   51 2    
   103   50   52 1    
   104   52   53 1    
   105   52   54 1    
   106   52  175 1    
   107   53  176 1    
   108   53  177 1    
   109   53  178 1    
   110   54   55 am   BACKBONE|DICT|INTERRES
   111   54  179 1    
   112   55   56 2    
   113   55   57 1    
   114   57   58 1    
   115   57   59 1    
   116   57  180 1    
   117   58  181 1    
   118   58  182 1    
   119   58  183 1    
   120   59   60 am   BACKBONE|DICT|INTERRES
   121   59  184 1    
   122   60   61 2    
   123   60   62 1    
   124   62   63 1    
   125   62   64 1    
   126   62  185 1    
   127   63  186 1    
   128   63  187 1    
   129   63  188 1    
   130   64   65 am   BACKBONE|DICT|INTERRES
   131   64  189 1    
   132   65   66 2    
   133   67   68 2    
   134   67   69 am   BACKBONE|DICT|INTERRES
   135   69   70 1    
   136   69  190 1    
   137   70   71 1    
   138   70   72 1    
   139   70  191 1    
   140   71  192 1    
   141   71  193 1    
   142   71  194 1    
   143   72   73 2    
   144   72   74 am   BACKBONE|DICT|INTERRES
   145   74   75 1    
   146   74  195 1    
   147   75   76 1    
   148   75   77 1    
   149   75  196 1    
   150   76  197 1    
   151   76  198 1    
   152   76  199 1    
   153   77   78 2    
   154   77   79 am   BACKBONE|DICT|INTERRES
   155   79   80 1    
   156   79  200 1    
   157   80   81 1    
   158   80   82 1    
   159   80  201 1    
   160   81  202 1    
   161   81  203 1    
   162   81  204 1    
   163   82   83 2    
   164   82   84 am   BACKBONE|DICT|INTERRES
   165   84   85 1    
   166   84  205 1    
   167   85   86 1    
   168   85   87 1    
   169   85  206 1    
   170   86  207 1    
   171   86  208 1    
   172   86  209 1    
   173   87   88 2    
   174   87   89 am   BACKBONE|DICT|INTERRES
   175   89   90 1    
   176   89  210 1    
   177   90   91 1    
   178   90   92 1    
   179   90  211 1    
   180   91  212 1    
   181   91  213 1    
   182   91  214 1    
   183   92   93 2    
   184   92   94 am   BACKBONE|DICT|INTERRES
   185   94   95 1    
   186   94  215 1    
   187   95   96 1    
   188   95   97 1    
   189   95  216 1    
   190   96  217 1    
   191   96  218 1    
   192   96  219 1    
   193   97   98 2    
   194   97   99 am   BACKBONE|DICT|INTERRES
   195   99  100 1    
   196   99  220 1    
   197  100  101 1    
   198  100  102 1    
   199  100  221 1    
   200  101  222 1    
   201  101  223 1    
   202  101  224 1    
   203  102  103 2    
   204  102  104 am   BACKBONE|DICT|INTERRES
   205  104  105 1    
   206  104  225 1    
   207  105  106 1    
   208  105  107 1    
   209  105  226 1    
   210  106  227 1    
   211  106  228 1    
   212  106  229 1    
   213  107  108 2    
   214  107  109 am   BACKBONE|DICT|INTERRES
   215  109  110 1    
   216  109  230 1    
   217  110  111 1    
   218  110  112 1    
   219  110  231 1    
   220  111  232 1    
   221  111  233 1    
   222  111  234 1    
   223  112  113 2    
   224  112  114 am   BACKBONE|DICT|INTERRES
   225  114  115 1    
   226  114  235 1    
   227  115  116 1    
   228  115  117 1    
   229  115  236 1    
   230  116  237 1    
   231  116  238 1    
   232  116  239 1    
   233  117  118 2    
   234  117  119 am   BACKBONE|DICT|INTERRES
   235  119  120 1    
   236  119  240 1    
   237  120  121 1    
   238  120  124 1    
   239  120  241 1    
   240  121  122 am   BACKBONE|DICT|INTERRES
   241  121  123 2    
   242  122  242 1    
   243  122  243 1    
   244  124  125 1    
   245  124  244 1    
   246  124  245 1    
   247  125  126 1    
   248  126  246 1    
   249  126  247 1    
@<TRIPOS>SUBSTRUCTURE
     1 UNK         1 GROUP             0       ****    0 ROOT    
