@<TRIPOS>MOLECULE
3R540
247   249    1
SMALL
USER_CHARGES


@<TRIPOS>ATOM
      1 CA          3.6511  -13.6220  -47.0350 C.3       0 UNK        -0.1800 
      2 C           2.2567  -13.3108  -46.5147 C.2       0 UNK         0.5000 
      3 O           2.0537  -13.2507  -45.3024 O.2       0 UNK        -0.5000 
      4 N           1.2882  -13.1114  -47.4188 N.am      1 UNK        -0.5000 
      5 CA         -0.1281  -12.8730  -47.0986 C.3       1 UNK         0.1400 
      6 C6         -1.0429  -13.0036  -48.3399 C.3       23 UNK        -0.0398 
      7 S7         -1.0157  -14.6860  -49.0480 S.3       23 UNK        -0.2404 
      8 C8         -2.5313  -15.3855  -48.3206 C.3       23 UNK        -0.0205 
      9 C9         -2.7589  -16.8204  -48.7723 C.ar      23 UNK        -0.0193 
     10 C10        -3.3317  -17.0786  -50.0217 C.ar      23 UNK        -0.1150 
     11 C11        -3.5555  -18.3929  -50.4418 C.ar      23 UNK        -0.0193 
     12 C12        -3.1955  -19.4520  -49.6048 C.ar      23 UNK        -0.1150 
     13 C13        -2.6205  -19.2096  -48.3549 C.ar      23 UNK        -0.0193 
     14 C14        -2.4138  -17.8906  -47.9397 C.ar      23 UNK        -0.1150 
     15 C15        -2.2367  -20.3761  -47.4573 C.3       23 UNK        -0.0205 
     16 S16        -0.7725  -21.2485  -48.0918 S.3       23 UNK        -0.2404 
     17 C17        -0.6813  -22.6181  -46.8950 C.3       23 UNK        -0.0398 
     18 CA          0.6454  -23.4119  -46.9820 C.3       11 UNK         0.1400 
     19 N           1.8085  -22.6014  -46.6037 N.am      11 UNK        -0.5000 
     20 C           3.0889  -22.9591  -46.7743 C.2       10 UNK         0.5000 
     21 O           3.4405  -24.0016  -47.3279 O.2       10 UNK        -0.5000 
     22 CA          4.1585  -22.0035  -46.2124 C.3       10 UNK         0.1400 
     23 CB          4.4227  -20.8370  -47.1772 C.3       10 UNK        -0.1800 
     24 N           3.7981  -21.4820  -44.8930 N.am      10 UNK        -0.5000 
     25 C           3.8352  -22.1990  -43.7607 C.2       9 UNK         0.5000 
     26 O           4.2272  -23.3648  -43.7030 O.2       9 UNK        -0.5000 
     27 CA          3.3357  -21.5091  -42.4759 C.3       9 UNK         0.1400 
     28 CB          4.4727  -20.7212  -41.8084 C.3       9 UNK        -0.1800 
     29 N           2.1961  -20.6198  -42.7041 N.am      9 UNK        -0.5000 
     30 C           0.9868  -21.0263  -43.1157 C.2       8 UNK         0.5000 
     31 O           0.6892  -22.2066  -43.2927 O.2       8 UNK        -0.5000 
     32 CA         -0.0434  -19.9295  -43.4462 C.3       8 UNK         0.1400 
     33 CB         -0.7606  -19.4530  -42.1756 C.3       8 UNK        -0.1800 
     34 N           0.5443  -18.7830  -44.1445 N.am      8 UNK        -0.5000 
     35 C           1.1777  -18.8619  -45.3235 C.2       7 UNK         0.5000 
     36 O           1.3198  -19.9100  -45.9463 O.2       7 UNK        -0.5000 
     37 CA          1.8133  -17.5780  -45.8748 C.3       7 UNK         0.1400 
     38 CB          0.7679  -16.7021  -46.5710 C.3       7 UNK        -0.1800 
     39 N           2.5047  -16.8214  -44.8335 N.am      7 UNK        -0.5000 
     40 C           3.6602  -17.2147  -44.2786 C.2       6 UNK         0.5000 
     41 O           4.2827  -18.2169  -44.6312 O.2       6 UNK        -0.5000 
     42 CA          4.1853  -16.3685  -43.1055 C.3       6 UNK         0.1400 
     43 CB          4.9279  -15.1255  -43.6179 C.3       6 UNK        -0.1800 
     44 N           3.1194  -15.9567  -42.1916 N.am      6 UNK        -0.5000 
     45 C           2.4031  -16.7982  -41.4319 C.2       5 UNK         0.5000 
     46 O           2.5796  -18.0156  -41.4046 O.2       5 UNK        -0.5000 
     47 CA          1.2703  -16.1775  -40.5942 C.3       5 UNK         0.1400 
     48 CB          1.8076  -15.6791  -39.2449 C.3       5 UNK        -0.1800 
     49 N           0.5888  -15.0771  -41.2768 N.am      5 UNK        -0.5000 
     50 C          -0.0796  -15.1745  -42.4325 C.2       4 UNK         0.5000 
     51 O          -0.1982  -16.2227  -43.0665 O.2       4 UNK        -0.5000 
     52 CA         -0.6635  -13.8763  -43.0098 C.3       4 UNK         0.1400 
     53 CB         -1.9604  -13.4586  -42.2930 C.3       4 UNK        -0.1800 
     54 N           0.3150  -12.7862  -43.0692 N.am      4 UNK        -0.5000 
     55 C           0.8596  -12.0598  -42.0825 C.2       3 UNK         0.5000 
     56 O           0.6017  -12.2149  -40.8885 O.2       3 UNK        -0.5000 
     57 CA          1.8934  -10.9996  -42.5055 C.3       3 UNK         0.1400 
     58 CB          3.3156  -11.5718  -42.3990 C.3       3 UNK        -0.1800 
     59 N           1.6653  -10.5389  -43.8770 N.am      3 UNK        -0.5000 
     60 C           0.8256   -9.5496  -44.2153 C.2       2 UNK         0.5000 
     61 O           0.2370   -8.8407  -43.3983 O.2       2 UNK        -0.5000 
     62 CA          0.5837   -9.3314  -45.7228 C.3       2 UNK         0.1400 
     63 CB          1.6499   -8.3958  -46.3125 C.3       2 UNK        -0.1800 
     64 N           0.5725  -10.5866  -46.4775 N.am      2 UNK        -0.5000 
     65 C          -0.3748  -11.5310  -46.3732 C.2       1 UNK         0.5000 
     66 O          -1.3998  -11.3924  -45.7061 O.2       1 UNK        -0.5000 
     67 C           0.5346  -24.6975  -46.1368 C.2       11 UNK         0.5000 
     68 O           0.0922  -25.7227  -46.6574 O.2       11 UNK        -0.5000 
     69 N           0.9070  -24.6100  -44.8503 N.am      12 UNK        -0.5000 
     70 CA          0.8179  -25.6130  -43.7812 C.3       12 UNK         0.1400 
     71 CB          1.5903  -26.9001  -44.1270 C.3       12 UNK        -0.1800 
     72 C          -0.6333  -25.9062  -43.3537 C.2       12 UNK         0.5000 
     73 O          -0.9442  -25.8451  -42.1633 O.2       12 UNK        -0.5000 
     74 N          -1.5006  -26.1780  -44.3336 N.am      13 UNK        -0.5000 
     75 CA         -2.9536  -26.1758  -44.2042 C.3       13 UNK         0.1400 
     76 CB         -3.5425  -26.9619  -45.3857 C.3       13 UNK        -0.1800 
     77 C          -3.4976  -24.7332  -44.1830 C.2       13 UNK         0.5000 
     78 O          -2.7995  -23.7980  -44.5835 O.2       13 UNK        -0.5000 
     79 N          -4.7531  -24.5814  -43.7412 N.am      14 UNK        -0.5000 
     80 CA         -5.4558  -23.2964  -43.6401 C.3       14 UNK         0.1400 
     81 CB         -6.7746  -23.5094  -42.8808 C.3       14 UNK        -0.1800 
     82 C          -5.7207  -22.6088  -44.9964 C.2       14 UNK         0.5000 
     83 O          -5.8800  -21.3882  -45.0341 O.2       14 UNK        -0.5000 
     84 N          -5.7526  -23.3945  -46.0771 N.am      15 UNK        -0.5000 
     85 CA         -5.8491  -22.9421  -47.4576 C.3       15 UNK         0.1400 
     86 CB         -7.3237  -22.8957  -47.8905 C.3       15 UNK        -0.1800 
     87 C          -5.0402  -23.9092  -48.3310 C.2       15 UNK         0.5000 
     88 O          -4.9152  -25.0873  -47.9870 O.2       15 UNK        -0.5000 
     89 N          -4.5218  -23.3950  -49.4462 N.am      16 UNK        -0.5000 
     90 CA         -3.7280  -24.0946  -50.4509 C.3       16 UNK         0.1400 
     91 CB         -2.3243  -24.4229  -49.8989 C.3       16 UNK        -0.1800 
     92 C          -3.6519  -23.1845  -51.6889 C.2       16 UNK         0.5000 
     93 O          -4.2410  -22.1013  -51.6784 O.2       16 UNK        -0.5000 
     94 N          -2.9222  -23.6262  -52.7234 N.am      17 UNK        -0.5000 
     95 CA         -2.5997  -22.8753  -53.9455 C.3       17 UNK         0.1400 
     96 CB         -1.6122  -21.7318  -53.6301 C.3       17 UNK        -0.1800 
     97 C          -3.8404  -22.3944  -54.7281 C.2       17 UNK         0.5000 
     98 O          -3.8659  -21.2663  -55.2292 O.2       17 UNK        -0.5000 
     99 N          -4.8547  -23.2650  -54.8235 N.am      18 UNK        -0.5000 
    100 CA        -6.0609  -23.0537  -55.6243 C.3       18 UNK         0.1400 
    101 CB        -7.0318  -24.2213  -55.3986 C.3       18 UNK        -0.1800 
    102 C         -5.7110  -22.9096  -57.1165 C.2       18 UNK         0.5000 
    103 O         -4.8725  -23.6617  -57.6184 O.2       18 UNK        -0.5000 
    104 N         -6.3112  -21.9093  -57.7728 N.am      19 UNK        -0.5000 
    105 CA        -6.0669  -21.4317  -59.1428 C.3       19 UNK         0.1400 
    106 CB        -6.2868  -22.5424  -60.1881 C.3       19 UNK        -0.1800 
    107 C         -4.7028  -20.7348  -59.3401 C.2       19 UNK         0.5000 
    108 O         -4.6295  -19.7733  -60.1056 O.2       19 UNK        -0.5000 
    109 N         -3.6590  -21.2024  -58.6435 N.am      20 UNK        -0.5000 
    110 CA        -2.3073  -20.6435  -58.6589 C.3       20 UNK         0.1400 
    111 CB        -1.3428  -21.6369  -57.9924 C.3       20 UNK        -0.1800 
    112 C         -2.2216  -19.2627  -57.9824 C.2       20 UNK         0.5000 
    113 O         -1.5481  -18.3741  -58.5063 O.2       20 UNK        -0.5000 
    114 N         -2.9091  -19.1083  -56.8444 N.am      21 UNK        -0.5000 
    115 CA        -2.9751  -17.8695  -56.0684 C.3       21 UNK         0.1400 
    116 CB        -1.9422  -17.9149  -54.9299 C.3       21 UNK        -0.1800 
    117 C         -4.3886  -17.6297  -55.5177 C.2       21 UNK         0.5000 
    118 O         -4.8733  -16.4991  -55.5662 O.2       21 UNK        -0.5000 
    119 N         -5.0295  -18.6947  -55.0220 N.am      22 UNK        -0.5000 
    120 CA        -6.3892  -18.6882  -54.4552 C.3       22 UNK         0.1400 
    121 C         -7.5010  -19.0000  -55.5027 C.2       22 UNK         0.5000 
    122 N         -7.2121  -19.0202  -56.7982 N.am      22 UNK        -0.7600 
    123 O         -8.6568  -19.2048  -55.1437 O.2       22 UNK        -0.5000 
    124 C124       -6.4638  -19.6048  -53.2012 C.3       23 UNK        -0.0398 
    125 S125       -5.9988  -18.7343  -51.6662 S.3       23 UNK        -0.2404 
    126 C126       -4.1869  -18.6729  -51.7953 C.3       23 UNK        -0.0205 
    127 H127        4.3757  -12.9329  -46.6015 H         1 UNK         0.0600 
    128 H128        3.7061  -13.5382  -48.1205 H         1 UNK         0.0600 
    129 H129        3.9337  -14.6370  -46.7558 H         1 UNK         0.0600 
    130 H130        1.5054  -13.1841  -48.4029 H         1 UNK         0.3000 
    131 H131       -0.4270  -13.6514  -46.3936 H         1 UNK         0.0600 
    132 H132       -0.7351  -12.2994  -49.1146 H         1 UNK         0.0800 
    133 H133       -2.0746  -12.7453  -48.0935 H         1 UNK         0.0800 
    134 H134       -2.4648  -15.3367  -47.2325 H         1 UNK         0.0800 
    135 H135       -3.3891  -14.7748  -48.6067 H         1 UNK         0.0800 
    136 H136       -3.6067  -16.2550  -50.6658 H         1 UNK         0.1150 
    137 H137       -3.3582  -20.4696  -49.9262 H         1 UNK         0.1150 
    138 H138       -1.9847  -17.6976  -46.9671 H         1 UNK         0.1150 
    139 H139       -2.0348  -20.0300  -46.4423 H         1 UNK         0.0800 
    140 H140       -3.0735  -21.0722  -47.3884 H         1 UNK         0.0800 
    141 H141       -0.8178  -22.2201  -45.8877 H         1 UNK         0.0800 
    142 H142       -1.5365  -23.2706  -47.0835 H         1 UNK         0.0800 
    143 H143        0.7850  -23.7244  -48.0191 H         1 UNK         0.0600 
    144 H144        1.6089  -21.6790  -46.2199 H         1 UNK         0.3000 
    145 H145        5.0883  -22.5676  -46.1121 H         1 UNK         0.0600 
    146 H146        5.2010  -20.1769  -46.7936 H         1 UNK         0.0600 
    147 H147        3.5294  -20.2361  -47.3456 H         1 UNK         0.0600 
    148 H148        4.7560  -21.2047  -48.1483 H         1 UNK         0.0600 
    149 H149        3.4593  -20.5296  -44.8573 H         1 UNK         0.3000 
    150 H150        3.0145  -22.2918  -41.7854 H         1 UNK         0.0600 
    151 H151        4.8081  -19.8924  -42.4329 H         1 UNK         0.0600 
    152 H152        4.1564  -20.3100  -40.8496 H         1 UNK         0.0600 
    153 H153        5.3350  -21.3616  -41.6189 H         1 UNK         0.0600 
    154 H154        2.3461  -19.6320  -42.5216 H         1 UNK         0.3000 
    155 H155       -0.7899  -20.3685  -44.1110 H         1 UNK         0.0600 
    156 H156       -1.2584  -20.2843  -41.6749 H         1 UNK         0.0600 
    157 H157       -1.5223  -18.7082  -42.4070 H         1 UNK         0.0600 
    158 H158       -0.0638  -19.0115  -41.4638 H         1 UNK         0.0600 
    159 H159        0.4313  -17.8727  -43.7052 H         1 UNK         0.3000 
    160 H160        2.5477  -17.8724  -46.6279 H         1 UNK         0.0600 
    161 H161        0.0220  -16.3140  -45.8769 H         1 UNK         0.0600 
    162 H162        0.2502  -17.2703  -47.3430 H         1 UNK         0.0600 
    163 H163        1.2390  -15.8627  -47.0752 H         1 UNK         0.0600 
    164 H164        2.0368  -16.0047  -44.4684 H         1 UNK         0.3000 
    165 H165        4.8932  -16.9820  -42.5440 H         1 UNK         0.0600 
    166 H166        5.3656  -14.5597  -42.7954 H         1 UNK         0.0600 
    167 H167        5.7410  -15.4055  -44.2888 H         1 UNK         0.0600 
    168 H168        4.2649  -14.4583  -44.1681 H         1 UNK         0.0600 
    169 H169        2.8966  -14.9734  -42.1604 H         1 UNK         0.3000 
    170 H170        0.5318  -16.9572  -40.4010 H         1 UNK         0.0600 
    171 H171        2.3089  -16.4822  -38.7030 H         1 UNK         0.0600 
    172 H172        2.5262  -14.8683  -39.3719 H         1 UNK         0.0600 
    173 H173        0.9999  -15.3143  -38.6100 H         1 UNK         0.0600 
    174 H174        0.6417  -14.1583  -40.8466 H         1 UNK         0.3000 
    175 H175       -0.9253  -14.0888  -44.0470 H         1 UNK         0.0600 
    176 H176       -1.8016  -13.2605  -41.2330 H         1 UNK         0.0600 
    177 H177       -2.3841  -12.5606  -42.7432 H         1 UNK         0.0600 
    178 H178       -2.7122  -14.2452  -42.3662 H         1 UNK         0.0600 
    179 H179        0.7214  -12.6508  -43.9884 H         1 UNK         0.3000 
    180 H180        1.8121  -10.1572  -41.8154 H         1 UNK         0.0600 
    181 H181        3.5236  -11.9190  -41.3860 H         1 UNK         0.0600 
    182 H182        4.0624  -10.8161  -42.6428 H         1 UNK         0.0600 
    183 H183        3.4626  -12.4160  -43.0726 H         1 UNK         0.0600 
    184 H184        2.0864  -11.0928  -44.6107 H         1 UNK         0.3000 
    185 H185       -0.3917   -8.8539  -45.8387 H         1 UNK         0.0600 
    186 H186        1.6681   -7.4425  -45.7827 H         1 UNK         0.0600 
    187 H187        2.6490   -8.8282  -46.2447 H         1 UNK         0.0600 
    188 H188        1.4478   -8.1792  -47.3617 H         1 UNK         0.0600 
    189 H189        1.3770  -10.7787  -47.0565 H         1 UNK         0.3000 
    190 H190        1.1487  -23.6836  -44.5106 H         1 UNK         0.3000 
    191 H191        1.3128  -25.1591  -42.9211 H         1 UNK         0.0600 
    192 H192        1.6141  -27.5768  -43.2722 H         1 UNK         0.0600 
    193 H193        2.6232  -26.6773  -44.3952 H         1 UNK         0.0600 
    194 H194        1.1375  -27.4434  -44.9565 H         1 UNK         0.0600 
    195 H195       -1.1335  -26.1613  -45.2806 H         1 UNK         0.3000 
    196 H196       -3.2329  -26.6702  -43.2715 H         1 UNK         0.0600 
    197 H197       -3.2621  -26.5168  -46.3413 H         1 UNK         0.0600 
    198 H198       -3.1922  -27.9942  -45.3842 H         1 UNK         0.0600 
    199 H199       -4.6319  -26.9899  -45.3430 H         1 UNK         0.0600 
    200 H200       -5.2676  -25.3963  -43.4393 H         1 UNK         0.3000 
    201 H201       -4.8300  -22.6208  -43.0531 H         1 UNK         0.0600 
    202 H202       -7.3121  -22.5679  -42.7587 H         1 UNK         0.0600 
    203 H203       -6.5963  -23.9109  -41.8831 H         1 UNK         0.0600 
    204 H204       -7.4355  -24.1981  -43.4087 H         1 UNK         0.0600 
    205 H205       -5.5603  -24.3827  -45.9758 H         1 UNK         0.3000 
    206 H206       -5.4125  -21.9453  -47.5506 H         1 UNK         0.0600 
    207 H207       -7.8941  -22.2021  -47.2726 H         1 UNK         0.0600 
    208 H208       -7.4172  -22.5622  -48.9248 H         1 UNK         0.0600 
    209 H209       -7.7949  -23.8766  -47.8158 H         1 UNK         0.0600 
    210 H210       -4.7271  -22.4388  -49.7128 H         1 UNK         0.3000 
    211 H211       -4.2427  -25.0156  -50.7309 H         1 UNK         0.0600 
    212 H212       -1.7528  -23.5162  -49.7031 H         1 UNK         0.0600 
    213 H213       -1.7510  -25.0228  -50.6058 H         1 UNK         0.0600 
    214 H214       -2.3743  -24.9926  -48.9710 H         1 UNK         0.0600 
    215 H215       -2.4955  -24.5392  -52.6519 H         1 UNK         0.3000 
    216 H216       -2.0860  -23.5730  -54.6084 H         1 UNK         0.0600 
    217 H217       -0.7164  -22.1114  -53.1390 H         1 UNK         0.0600 
    218 H218       -2.0558  -20.9815  -52.9766 H         1 UNK         0.0600 
    219 H219       -1.2900  -21.2243  -54.5399 H         1 UNK         0.0600 
    220 H220       -4.7499  -24.1719  -54.3941 H         1 UNK         0.3000 
    221 H221       -6.5369  -22.1342  -55.2775 H         1 UNK         0.0600 
    222 H222       -7.9519  -24.0785  -55.9667 H         1 UNK         0.0600 
    223 H223       -6.5974  -25.1721  -55.7103 H         1 UNK         0.0600 
    224 H224       -7.3091  -24.3064  -54.3477 H         1 UNK         0.0600 
    225 H225       -6.9518  -21.3302  -57.2464 H         1 UNK         0.3000 
    226 H226       -6.8271  -20.6700  -59.3223 H         1 UNK         0.0600 
    227 H227       -7.2625  -23.0124  -60.0656 H         1 UNK         0.0600 
    228 H228       -6.2472  -22.1341  -61.1987 H         1 UNK         0.0600 
    229 H229       -5.5271  -23.3218  -60.1266 H         1 UNK         0.0600 
    230 H230       -3.8128  -22.0254  -58.0716 H         1 UNK         0.3000 
    231 H231       -2.0035  -20.5229  -59.7009 H         1 UNK         0.0600 
    232 H232       -1.3334  -22.5906  -58.5203 H         1 UNK         0.0600 
    233 H233       -0.3219  -21.2529  -57.9962 H         1 UNK         0.0600 
    234 H234       -1.6168  -21.8316  -56.9556 H         1 UNK         0.0600 
    235 H235       -3.3974  -19.9124  -56.4610 H         1 UNK         0.3000 
    236 H236       -2.7404  -17.0185  -56.7115 H         1 UNK         0.0600 
    237 H237       -0.9289  -18.0039  -55.3217 H         1 UNK         0.0600 
    238 H238       -1.9808  -17.0057  -54.3287 H         1 UNK         0.0600 
    239 H239       -2.1171  -18.7591  -54.2626 H         1 UNK         0.0600 
    240 H240       -4.5659  -19.5997  -55.0301 H         1 UNK         0.3000 
    241 H241       -6.6248  -17.6727  -54.1317 H         1 UNK         0.0600 
    242 H242       -6.2921  -18.7599  -57.1141 H         1 UNK         0.3800 
    243 H243       -7.9618  -19.1412  -57.4609 H         1 UNK         0.3800 
    244 H244       -5.8483  -20.4972  -53.3205 H         1 UNK         0.0800 
    245 H245       -7.4757  -19.9749  -53.0308 H         1 UNK         0.0800 
    246 H246       -3.9030  -17.8957  -52.5052 H         1 UNK         0.0800 
    247 H247       -3.8097  -19.6115  -52.1991 H         1 UNK         0.0800 
@<TRIPOS>BOND
     1    1    2 1    
     2    1  127 1    
     3    1  128 1    
     4    1  129 1    
     5    2    3 2    
     6    2    4 am   BACKBONE|DICT|INTERRES
     7    4    5 1    
     8    4  130 1    
     9    5    6 1    
    10    5   65 1    
    11    5  131 1    
    12    6    7 1    
    13    6  132 1    
    14    6  133 1    
    15    7    8 1    
    16    8    9 1    
    17    8  134 1    
    18    8  135 1    
    19    9   10 ar   
    20    9   14 ar   
    21   10   11 ar   
    22   10  136 1    
    23   11   12 ar   
    24   11  126 1    
    25   12   13 ar   
    26   12  137 1    
    27   13   14 ar   
    28   13   15 1    
    29   14  138 1    
    30   15   16 1    
    31   15  139 1    
    32   15  140 1    
    33   16   17 1    
    34   17   18 1    
    35   17  141 1    
    36   17  142 1    
    37   18   19 1    
    38   18   67 1    
    39   18  143 1    
    40   19   20 am   BACKBONE|DICT|INTERRES
    41   19  144 1    
    42   20   21 2    
    43   20   22 1    
    44   22   23 1    
    45   22   24 1    
    46   22  145 1    
    47   23  146 1    
    48   23  147 1    
    49   23  148 1    
    50   24   25 am   BACKBONE|DICT|INTERRES
    51   24  149 1    
    52   25   26 2    
    53   25   27 1    
    54   27   28 1    
    55   27   29 1    
    56   27  150 1    
    57   28  151 1    
    58   28  152 1    
    59   28  153 1    
    60   29   30 am   BACKBONE|DICT|INTERRES
    61   29  154 1    
    62   30   31 2    
    63   30   32 1    
    64   32   33 1    
    65   32   34 1    
    66   32  155 1    
    67   33  156 1    
    68   33  157 1    
    69   33  158 1    
    70   34   35 am   BACKBONE|DICT|INTERRES
    71   34  159 1    
    72   35   36 2    
    73   35   37 1    
    74   37   38 1    
    75   37   39 1    
    76   37  160 1    
    77   38  161 1    
    78   38  162 1    
    79   38  163 1    
    80   39   40 am   BACKBONE|DICT|INTERRES
    81   39  164 1    
    82   40   41 2    
    83   40   42 1    
    84   42   43 1    
    85   42   44 1    
    86   42  165 1    
    87   43  166 1    
    88   43  167 1    
    89   43  168 1    
    90   44   45 am   BACKBONE|DICT|INTERRES
    91   44  169 1    
    92   45   46 2    
    93   45   47 1    
    94   47   48 1    
    95   47   49 1    
    96   47  170 1    
    97   48  171 1    
    98   48  172 1    
    99   48  173 1    
   100   49   50 am   BACKBONE|DICT|INTERRES
   101   49  174 1    
   102   50   51 2    
   103   50   52 1    
   104   52   53 1    
   105   52   54 1    
   106   52  175 1    
   107   53  176 1    
   108   53  177 1    
   109   53  178 1    
   110   54   55 am   BACKBONE|DICT|INTERRES
   111   54  179 1    
   112   55   56 2    
   113   55   57 1    
   114   57   58 1    
   115   57   59 1    
   116   57  180 1    
   117   58  181 1    
   118   58  182 1    
   119   58  183 1    
   120   59   60 am   BACKBONE|DICT|INTERRES
   121   59  184 1    
   122   60   61 2    
   123   60   62 1    
   124   62   63 1    
   125   62   64 1    
   126   62  185 1    
   127   63  186 1    
   128   63  187 1    
   129   63  188 1    
   130   64   65 am   BACKBONE|DICT|INTERRES
   131   64  189 1    
   132   65   66 2    
   133   67   68 2    
   134   67   69 am   BACKBONE|DICT|INTERRES
   135   69   70 1    
   136   69  190 1    
   137   70   71 1    
   138   70   72 1    
   139   70  191 1    
   140   71  192 1    
   141   71  193 1    
   142   71  194 1    
   143   72   73 2    
   144   72   74 am   BACKBONE|DICT|INTERRES
   145   74   75 1    
   146   74  195 1    
   147   75   76 1    
   148   75   77 1    
   149   75  196 1    
   150   76  197 1    
   151   76  198 1    
   152   76  199 1    
   153   77   78 2    
   154   77   79 am   BACKBONE|DICT|INTERRES
   155   79   80 1    
   156   79  200 1    
   157   80   81 1    
   158   80   82 1    
   159   80  201 1    
   160   81  202 1    
   161   81  203 1    
   162   81  204 1    
   163   82   83 2    
   164   82   84 am   BACKBONE|DICT|INTERRES
   165   84   85 1    
   166   84  205 1    
   167   85   86 1    
   168   85   87 1    
   169   85  206 1    
   170   86  207 1    
   171   86  208 1    
   172   86  209 1    
   173   87   88 2    
   174   87   89 am   BACKBONE|DICT|INTERRES
   175   89   90 1    
   176   89  210 1    
   177   90   91 1    
   178   90   92 1    
   179   90  211 1    
   180   91  212 1    
   181   91  213 1    
   182   91  214 1    
   183   92   93 2    
   184   92   94 am   BACKBONE|DICT|INTERRES
   185   94   95 1    
   186   94  215 1    
   187   95   96 1    
   188   95   97 1    
   189   95  216 1    
   190   96  217 1    
   191   96  218 1    
   192   96  219 1    
   193   97   98 2    
   194   97   99 am   BACKBONE|DICT|INTERRES
   195   99  100 1    
   196   99  220 1    
   197  100  101 1    
   198  100  102 1    
   199  100  221 1    
   200  101  222 1    
   201  101  223 1    
   202  101  224 1    
   203  102  103 2    
   204  102  104 am   BACKBONE|DICT|INTERRES
   205  104  105 1    
   206  104  225 1    
   207  105  106 1    
   208  105  107 1    
   209  105  226 1    
   210  106  227 1    
   211  106  228 1    
   212  106  229 1    
   213  107  108 2    
   214  107  109 am   BACKBONE|DICT|INTERRES
   215  109  110 1    
   216  109  230 1    
   217  110  111 1    
   218  110  112 1    
   219  110  231 1    
   220  111  232 1    
   221  111  233 1    
   222  111  234 1    
   223  112  113 2    
   224  112  114 am   BACKBONE|DICT|INTERRES
   225  114  115 1    
   226  114  235 1    
   227  115  116 1    
   228  115  117 1    
   229  115  236 1    
   230  116  237 1    
   231  116  238 1    
   232  116  239 1    
   233  117  118 2    
   234  117  119 am   BACKBONE|DICT|INTERRES
   235  119  120 1    
   236  119  240 1    
   237  120  121 1    
   238  120  124 1    
   239  120  241 1    
   240  121  122 am   BACKBONE|DICT|INTERRES
   241  121  123 2    
   242  122  242 1    
   243  122  243 1    
   244  124  125 1    
   245  124  244 1    
   246  124  245 1    
   247  125  126 1    
   248  126  246 1    
   249  126  247 1    
@<TRIPOS>SUBSTRUCTURE
     1 UNK         1 GROUP             0       ****    0 ROOT    
