@<TRIPOS>MOLECULE
3R540
247   249    1
SMALL
USER_CHARGES


@<TRIPOS>ATOM
      1 CA         -0.3015   -9.2705  -49.1913 C.3       0 UNK        -0.1800 
      2 C          -1.2386   -9.5784  -48.0250 C.2       0 UNK         0.5000 
      3 O          -1.8399   -8.6577  -47.4751 O.2       0 UNK        -0.5000 
      4 N          -1.3937  -10.8395  -47.6049 N.am      1 UNK        -0.5000 
      5 CA         -0.7205  -12.0310  -48.1271 C.3       1 UNK         0.1400 
      6 C6         -1.4330  -12.6280  -49.3683 C.3       23 UNK        -0.0398 
      7 S7         -0.3201  -13.6757  -50.3612 S.3       23 UNK        -0.2404 
      8 C8         -1.0146  -15.3179  -50.0110 C.3       23 UNK        -0.0205 
      9 C9         -0.1377  -16.4210  -50.5777 C.ar      23 UNK        -0.0193 
     10 C10        -0.1945  -16.7361  -51.9379 C.ar      23 UNK        -0.1150 
     11 C11         0.5887  -17.7699  -52.4585 C.ar      23 UNK        -0.0193 
     12 C12         1.4232  -18.4993  -51.6072 C.ar      23 UNK        -0.1150 
     13 C13         1.4826  -18.1971  -50.2443 C.ar      23 UNK        -0.0193 
     14 C14         0.7132  -17.1447  -49.7380 C.ar      23 UNK        -0.1150 
     15 C15         2.3425  -19.0372  -49.3110 C.3       23 UNK        -0.0205 
     16 S16         1.5144  -20.5998  -48.8727 S.3       23 UNK        -0.2404 
     17 C17        -0.0168  -19.9583  -48.1230 C.3       23 UNK        -0.0398 
     18 CA         -0.7946  -21.0245  -47.3260 C.3       11 UNK         0.1400 
     19 N          -0.1127  -21.4174  -46.0893 N.am      11 UNK        -0.5000 
     20 C          -0.5167  -22.4138  -45.2886 C.2       10 UNK         0.5000 
     21 O          -1.4854  -23.1340  -45.5291 O.2       10 UNK        -0.5000 
     22 CA          0.2510  -22.6040  -43.9701 C.3       10 UNK         0.1400 
     23 CB          1.5803  -23.3345  -44.2103 C.3       10 UNK        -0.1800 
     24 N           0.4877  -21.3385  -43.2732 N.am      10 UNK        -0.5000 
     25 C          -0.4836  -20.5464  -42.7942 C.2       9 UNK         0.5000 
     26 O          -1.6807  -20.8245  -42.8537 O.2       9 UNK        -0.5000 
     27 CA         -0.0569  -19.1979  -42.1888 C.3       9 UNK         0.1400 
     28 CB          0.4646  -19.3796  -40.7556 C.3       9 UNK        -0.1800 
     29 N           0.9545  -18.5194  -42.9943 N.am      9 UNK        -0.5000 
     30 C           0.7791  -18.0850  -44.2490 C.2       8 UNK         0.5000 
     31 O          -0.2820  -18.1686  -44.8661 O.2       8 UNK        -0.5000 
     32 CA          2.0186  -17.5059  -44.9508 C.3       8 UNK         0.1400 
     33 CB          2.2618  -16.0506  -44.5278 C.3       8 UNK        -0.1800 
     34 N           3.2199  -18.2978  -44.6876 N.am      8 UNK        -0.5000 
     35 C           3.4005  -19.5587  -45.1031 C.2       7 UNK         0.5000 
     36 O           2.5695  -20.1895  -45.7544 O.2       7 UNK        -0.5000 
     37 CA          4.7142  -20.2386  -44.6805 C.3       7 UNK         0.1400 
     38 CB          5.8867  -19.7453  -45.5418 C.3       7 UNK        -0.1800 
     39 N           5.0210  -20.0268  -43.2649 N.am      7 UNK        -0.5000 
     40 C           4.2977  -20.5367  -42.2585 C.2       6 UNK         0.5000 
     41 O           3.3058  -21.2465  -42.4193 O.2       6 UNK        -0.5000 
     42 CA          4.7307  -20.1621  -40.8298 C.3       6 UNK         0.1400 
     43 CB          5.8828  -21.0639  -40.3613 C.3       6 UNK        -0.1800 
     44 N           5.1082  -18.7563  -40.6477 N.am      6 UNK        -0.5000 
     45 C           4.3338  -17.7048  -40.9461 C.2       5 UNK         0.5000 
     46 O           3.2776  -17.7829  -41.5745 O.2       5 UNK        -0.5000 
     47 CA          4.8211  -16.3251  -40.4700 C.3       5 UNK         0.1400 
     48 CB          5.4831  -15.5636  -41.6285 C.3       5 UNK        -0.1800 
     49 N           3.7121  -15.5256  -39.9471 N.am      5 UNK        -0.5000 
     50 C           2.9590  -15.8465  -38.8838 C.2       4 UNK         0.5000 
     51 O           3.2026  -16.7974  -38.1391 O.2       4 UNK        -0.5000 
     52 CA          1.7327  -14.9571  -38.5874 C.3       4 UNK         0.1400 
     53 CB          1.9827  -14.0930  -37.3409 C.3       4 UNK        -0.1800 
     54 N           1.3543  -14.0793  -39.6988 N.am      4 UNK        -0.5000 
     55 C           0.7606  -14.4840  -40.8285 C.2       3 UNK         0.5000 
     56 O           0.4336  -15.6510  -41.0574 O.2       3 UNK        -0.5000 
     57 CA          0.5124  -13.3969  -41.8833 C.3       3 UNK         0.1400 
     58 CB          1.8408  -12.8183  -42.4148 C.3       3 UNK        -0.1800 
     59 N          -0.2581  -13.9691  -42.9821 N.am      3 UNK        -0.5000 
     60 C          -0.9481  -13.2704  -43.8859 C.2       2 UNK         0.5000 
     61 O          -1.0631  -12.0419  -43.8595 O.2       2 UNK        -0.5000 
     62 CA         -1.6377  -14.0767  -45.0036 C.3       2 UNK         0.1400 
     63 CB         -3.0817  -14.4227  -44.6097 C.3       2 UNK        -0.1800 
     64 N          -1.6538  -13.3153  -46.2539 N.am      2 UNK        -0.5000 
     65 C          -0.5611  -13.0535  -46.9879 C.2       1 UNK         0.5000 
     66 O           0.5440  -13.5492  -46.7651 O.2       1 UNK        -0.5000 
     67 C          -2.2328  -20.5336  -47.0702 C.2       11 UNK         0.5000 
     68 O          -3.1278  -20.8825  -47.8401 O.2       11 UNK        -0.5000 
     69 N          -2.4357  -19.7536  -45.9989 N.am      12 UNK        -0.5000 
     70 CA         -3.7453  -19.2631  -45.5708 C.3       12 UNK         0.1400 
     71 CB         -3.5674  -18.1963  -44.4805 C.3       12 UNK        -0.1800 
     72 C          -4.6703  -20.3956  -45.0906 C.2       12 UNK         0.5000 
     73 O          -5.8448  -20.4095  -45.4583 O.2       12 UNK        -0.5000 
     74 N          -4.1202  -21.3400  -44.3137 N.am      13 UNK        -0.5000 
     75 CA         -4.8180  -22.5310  -43.8247 C.3       13 UNK         0.1400 
     76 CB         -3.9495  -23.2419  -42.7758 C.3       13 UNK        -0.1800 
     77 C          -5.2097  -23.4995  -44.9558 C.2       13 UNK         0.5000 
     78 O          -6.3202  -24.0319  -44.9425 O.2       13 UNK        -0.5000 
     79 N          -4.3045  -23.6886  -45.9257 N.am      14 UNK        -0.5000 
     80 CA         -4.5343  -24.4823  -47.1349 C.3       14 UNK         0.1400 
     81 CB         -3.1801  -24.7791  -47.7986 C.3       14 UNK        -0.1800 
     82 C          -5.4731  -23.7956  -48.1464 C.2       14 UNK         0.5000 
     83 O          -6.0444  -24.4822  -48.9939 O.2       14 UNK        -0.5000 
     84 N          -5.5852  -22.4617  -48.0518 N.am      15 UNK        -0.5000 
     85 CA         -6.2498  -21.5449  -48.9809 C.3       15 UNK         0.1400 
     86 CB         -7.7755  -21.7705  -48.9892 C.3       15 UNK        -0.1800 
     87 C          -5.6109  -21.6204  -50.3814 C.2       15 UNK         0.5000 
     88 O          -6.3155  -21.7907  -51.3760 O.2       15 UNK        -0.5000 
     89 N          -4.2731  -21.5255  -50.4172 N.am      16 UNK        -0.5000 
     90 CA         -3.4012  -21.8098  -51.5632 C.3       16 UNK         0.1400 
     91 CB         -1.9531  -21.4530  -51.1922 C.3       16 UNK        -0.1800 
     92 C          -3.7937  -21.1267  -52.8862 C.2       16 UNK         0.5000 
     93 O          -3.7086  -21.7569  -53.9419 O.2       16 UNK        -0.5000 
     94 N          -4.2350  -19.8655  -52.8043 N.am      17 UNK        -0.5000 
     95 CA         -4.6631  -19.0700  -53.9547 C.3       17 UNK         0.1400 
     96 CB         -4.6894  -17.5868  -53.5572 C.3       17 UNK        -0.1800 
     97 C          -6.0264  -19.5107  -54.5218 C.2       17 UNK         0.5000 
     98 O          -6.2318  -19.4222  -55.7323 O.2       17 UNK        -0.5000 
     99 N          -6.9247  -19.9900  -53.6503 N.am      18 UNK        -0.5000 
    100 CA        -8.2440  -20.5084  -54.0195 C.3       18 UNK         0.1400 
    101 CB        -9.1994  -20.3720  -52.8241 C.3       18 UNK        -0.1800 
    102 C         -8.1620  -21.9719  -54.4859 C.2       18 UNK         0.5000 
    103 O         -8.8649  -22.3576  -55.4203 O.2       18 UNK        -0.5000 
    104 N         -7.2789  -22.7485  -53.8442 N.am      19 UNK        -0.5000 
    105 CA        -6.9591  -24.1376  -54.1760 C.3       19 UNK         0.1400 
    106 CB        -6.1731  -24.7476  -53.0041 C.3       19 UNK        -0.1800 
    107 C         -6.1611  -24.2887  -55.4872 C.2       19 UNK         0.5000 
    108 O         -6.0762  -25.3998  -56.0115 O.2       19 UNK        -0.5000 
    109 N         -5.5841  -23.1800  -55.9753 N.am      20 UNK        -0.5000 
    110 CA        -4.7117  -23.0637  -57.1472 C.3       20 UNK         0.1400 
    111 CB        -5.4610  -23.4326  -58.4447 C.3       20 UNK        -0.1800 
    112 C         -3.3814  -23.8238  -56.9673 C.2       20 UNK         0.5000 
    113 O         -2.8537  -24.3957  -57.9228 O.2       20 UNK        -0.5000 
    114 N         -2.8577  -23.8007  -55.7344 N.am      21 UNK        -0.5000 
    115 CA        -1.5380  -24.3208  -55.3788 C.3       21 UNK         0.1400 
    116 CB        -1.5064  -24.6162  -53.8715 C.3       21 UNK        -0.1800 
    117 C         -0.4187  -23.3354  -55.7662 C.2       21 UNK         0.5000 
    118 O          0.7112  -23.7627  -56.0065 O.2       21 UNK        -0.5000 
    119 N         -0.7582  -22.0410  -55.8255 N.am      22 UNK        -0.5000 
    120 CA         0.0973  -20.9479  -56.3053 C.3       22 UNK         0.1400 
    121 C          0.4635  -21.0987  -57.8082 C.2       22 UNK         0.5000 
    122 N          1.7132  -20.8553  -58.1787 N.am      22 UNK        -0.7600 
    123 O         -0.3873  -21.3887  -58.6463 O.2       22 UNK        -0.5000 
    124 C124       -0.5677  -19.5714  -56.0572 C.3       23 UNK        -0.0398 
    125 S125       -0.8448  -19.2463  -54.2850 S.3       23 UNK        -0.2404 
    126 C126        0.5246  -18.1056  -53.9374 C.3       23 UNK        -0.0205 
    127 H127        0.7376   -9.3983  -48.8882 H         1 UNK         0.0600 
    128 H128       -0.4974   -9.9135  -50.0480 H         1 UNK         0.0600 
    129 H129       -0.4285   -8.2387  -49.5198 H         1 UNK         0.0600 
    130 H130       -1.9616  -10.9974  -46.7844 H         1 UNK         0.3000 
    131 H131        0.2929  -11.7423  -48.4133 H         1 UNK         0.0600 
    132 H132       -2.3336  -13.1770  -49.0878 H         1 UNK         0.0800 
    133 H133       -1.7801  -11.8317  -50.0266 H         1 UNK         0.0800 
    134 H134       -2.0160  -15.3881  -50.4386 H         1 UNK         0.0800 
    135 H135       -1.1282  -15.4448  -48.9330 H         1 UNK         0.0800 
    136 H136       -0.8520  -16.1791  -52.5908 H         1 UNK         0.1150 
    137 H137        2.0117  -19.3164  -52.0004 H         1 UNK         0.1150 
    138 H138        0.7542  -16.9077  -48.6840 H         1 UNK         0.1150 
    139 H139        2.5781  -18.4856  -48.3994 H         1 UNK         0.0800 
    140 H140        3.2970  -19.2608  -49.7895 H         1 UNK         0.0800 
    141 H141       -0.6293  -19.5682  -48.9382 H         1 UNK         0.0800 
    142 H142        0.2244  -19.1087  -47.4819 H         1 UNK         0.0800 
    143 H143       -0.8757  -21.9192  -47.9467 H         1 UNK         0.0600 
    144 H144        0.7279  -20.8988  -45.8494 H         1 UNK         0.3000 
    145 H145       -0.3628  -23.2301  -43.3193 H         1 UNK         0.0600 
    146 H146        2.0743  -23.5711  -43.2679 H         1 UNK         0.0600 
    147 H147        1.4195  -24.2757  -44.7373 H         1 UNK         0.0600 
    148 H148        2.2687  -22.7364  -44.8077 H         1 UNK         0.0600 
    149 H149        1.4573  -21.0642  -43.1489 H         1 UNK         0.3000 
    150 H150       -0.9370  -18.5529  -42.1512 H         1 UNK         0.0600 
    151 H151        1.3639  -19.9954  -40.7295 H         1 UNK         0.0600 
    152 H152       -0.2840  -19.8600  -40.1247 H         1 UNK         0.0600 
    153 H153        0.7068  -18.4182  -40.3014 H         1 UNK         0.0600 
    154 H154        1.8536  -18.3545  -42.5448 H         1 UNK         0.3000 
    155 H155        1.8335  -17.5220  -46.0269 H         1 UNK         0.0600 
    156 H156        2.4095  -15.9635  -43.4509 H         1 UNK         0.0600 
    157 H157        1.4130  -15.4226  -44.7975 H         1 UNK         0.0600 
    158 H158        3.1388  -15.6343  -45.0232 H         1 UNK         0.0600 
    159 H159        3.9175  -17.8799  -44.0904 H         1 UNK         0.3000 
    160 H160        4.6001  -21.3121  -44.8465 H         1 UNK         0.0600 
    161 H161        6.0779  -18.6815  -45.3960 H         1 UNK         0.0600 
    162 H162        5.6825  -19.9001  -46.6022 H         1 UNK         0.0600 
    163 H163        6.8031  -20.2864  -45.3061 H         1 UNK         0.0600 
    164 H164        5.8144  -19.4434  -43.0444 H         1 UNK         0.3000 
    165 H165        3.8744  -20.3472  -40.1780 H         1 UNK         0.0600 
    166 H166        6.1136  -20.8956  -39.3092 H         1 UNK         0.0600 
    167 H167        6.7921  -20.8883  -40.9374 H         1 UNK         0.0600 
    168 H168        5.6234  -22.1180  -40.4700 H         1 UNK         0.0600 
    169 H169        5.9711  -18.5930  -40.1494 H         1 UNK         0.3000 
    170 H170        5.5517  -16.4582  -39.6696 H         1 UNK         0.0600 
    171 H171        6.3281  -16.1230  -42.0320 H         1 UNK         0.0600 
    172 H172        4.7841  -15.3884  -42.4475 H         1 UNK         0.0600 
    173 H173        5.8628  -14.5962  -41.2991 H         1 UNK         0.0600 
    174 H174        3.4222  -14.7397  -40.5073 H         1 UNK         0.3000 
    175 H175        0.8941  -15.6244  -38.3769 H         1 UNK         0.0600 
    176 H176        2.8087  -13.3971  -37.4929 H         1 UNK         0.0600 
    177 H177        1.0976  -13.5134  -37.0782 H         1 UNK         0.0600 
    178 H178        2.2304  -14.7124  -36.4778 H         1 UNK         0.0600 
    179 H179        1.5831  -13.1016  -39.5896 H         1 UNK         0.3000 
    180 H180       -0.0718  -12.6030  -41.4133 H         1 UNK         0.0600 
    181 H181        2.4654  -13.5898  -42.8651 H         1 UNK         0.0600 
    182 H182        2.4198  -12.3510  -41.6179 H         1 UNK         0.0600 
    183 H183        1.6678  -12.0514  -43.1699 H         1 UNK         0.0600 
    184 H184       -0.2640  -14.9818  -42.9909 H         1 UNK         0.3000 
    185 H185       -1.0879  -15.0065  -45.1673 H         1 UNK         0.0600 
    186 H186       -3.5782  -14.9968  -45.3922 H         1 UNK         0.0600 
    187 H187       -3.1043  -15.0249  -43.7004 H         1 UNK         0.0600 
    188 H188       -3.6748  -13.5263  -44.4237 H         1 UNK         0.0600 
    189 H189       -2.5312  -12.8799  -46.4946 H         1 UNK         0.3000 
    190 H190       -1.6371  -19.4525  -45.4478 H         1 UNK         0.3000 
    191 H191       -4.2204  -18.7880  -46.4317 H         1 UNK         0.0600 
    192 H192       -4.5287  -17.7757  -44.1835 H         1 UNK         0.0600 
    193 H193       -2.9470  -17.3745  -44.8366 H         1 UNK         0.0600 
    194 H194       -3.0961  -18.6050  -43.5867 H         1 UNK         0.0600 
    195 H195       -3.1569  -21.2233  -44.0095 H         1 UNK         0.3000 
    196 H196       -5.7376  -22.2022  -43.3362 H         1 UNK         0.0600 
    197 H197       -2.9947  -23.5624  -43.1937 H         1 UNK         0.0600 
    198 H198       -3.7400  -22.5874  -41.9295 H         1 UNK         0.0600 
    199 H199       -4.4526  -24.1275  -42.3858 H         1 UNK         0.0600 
    200 H200       -3.3818  -23.2734  -45.8239 H         1 UNK         0.3000 
    201 H201       -4.9917  -25.4308  -46.8461 H         1 UNK         0.0600 
    202 H202       -2.6741  -23.8620  -48.1035 H         1 UNK         0.0600 
    203 H203       -3.3058  -25.3966  -48.6889 H         1 UNK         0.0600 
    204 H204       -2.5176  -25.3172  -47.1204 H         1 UNK         0.0600 
    205 H205       -5.0286  -22.0090  -47.3386 H         1 UNK         0.3000 
    206 H206       -6.0644  -20.5374  -48.6057 H         1 UNK         0.0600 
    207 H207       -8.1835  -21.7311  -47.9793 H         1 UNK         0.0600 
    208 H208       -8.2778  -20.9984  -49.5725 H         1 UNK         0.0600 
    209 H209       -8.0440  -22.7342  -49.4230 H         1 UNK         0.0600 
    210 H210       -3.8021  -21.3561  -49.5314 H         1 UNK         0.3000 
    211 H211       -3.4509  -22.8865  -51.7335 H         1 UNK         0.0600 
    212 H212       -1.2714  -21.6476  -52.0212 H         1 UNK         0.0600 
    213 H213       -1.6060  -22.0413  -50.3430 H         1 UNK         0.0600 
    214 H214       -1.8541  -20.3979  -50.9344 H         1 UNK         0.0600 
    215 H215       -4.2756  -19.4257  -51.8971 H         1 UNK         0.3000 
    216 H216       -3.9239  -19.1920  -54.7494 H         1 UNK         0.0600 
    217 H217       -5.3946  -17.3986  -52.7468 H         1 UNK         0.0600 
    218 H218       -4.9830  -16.9616  -54.4014 H         1 UNK         0.0600 
    219 H219       -3.7043  -17.2504  -53.2323 H         1 UNK         0.0600 
    220 H220       -6.6463  -20.1179  -52.6857 H         1 UNK         0.3000 
    221 H221       -8.6458  -19.9128  -54.8422 H         1 UNK         0.0600 
    222 H222       -9.2792  -19.3347  -52.4989 H         1 UNK         0.0600 
    223 H223       -8.8690  -20.9668  -51.9723 H         1 UNK         0.0600 
    224 H224      -10.2027  -20.7087  -53.0881 H         1 UNK         0.0600 
    225 H225       -6.8010  -22.3600  -53.0334 H         1 UNK         0.3000 
    226 H226       -7.8950  -24.6877  -54.2911 H         1 UNK         0.0600 
    227 H227       -5.2203  -24.2389  -52.8541 H         1 UNK         0.0600 
    228 H228       -6.7356  -24.6821  -52.0721 H         1 UNK         0.0600 
    229 H229       -5.9582  -25.8021  -53.1812 H         1 UNK         0.0600 
    230 H230       -5.6910  -22.3355  -55.4308 H         1 UNK         0.3000 
    231 H231       -4.4447  -22.0080  -57.2157 H         1 UNK         0.0600 
    232 H232       -5.6970  -24.4959  -58.4914 H         1 UNK         0.0600 
    233 H233       -4.8592  -23.1944  -59.3225 H         1 UNK         0.0600 
    234 H234       -6.3946  -22.8768  -58.5317 H         1 UNK         0.0600 
    235 H235       -3.3366  -23.2562  -55.0214 H         1 UNK         0.3000 
    236 H236       -1.3666  -25.2563  -55.9154 H         1 UNK         0.0600 
    237 H237       -2.2888  -25.3215  -53.5904 H         1 UNK         0.0600 
    238 H238       -0.5512  -25.0547  -53.5805 H         1 UNK         0.0600 
    239 H239       -1.6437  -23.7101  -53.2825 H         1 UNK         0.0600 
    240 H240       -1.7059  -21.7878  -55.5870 H         1 UNK         0.3000 
    241 H241        1.0223  -20.9873  -55.7266 H         1 UNK         0.0600 
    242 H242        1.9583  -20.9343  -59.1537 H         1 UNK         0.3800 
    243 H243        2.4272  -20.6108  -57.5097 H         1 UNK         0.3800 
    244 H244       -1.5306  -19.5154  -56.5680 H         1 UNK         0.0800 
    245 H245        0.0405  -18.7672  -56.4755 H         1 UNK         0.0800 
    246 H246        1.4649  -18.5544  -54.2617 H         1 UNK         0.0800 
    247 H247        0.3972  -17.1925  -54.5211 H         1 UNK         0.0800 
@<TRIPOS>BOND
     1    1    2 1    
     2    1  127 1    
     3    1  128 1    
     4    1  129 1    
     5    2    3 2    
     6    2    4 am   BACKBONE|DICT|INTERRES
     7    4    5 1    
     8    4  130 1    
     9    5    6 1    
    10    5   65 1    
    11    5  131 1    
    12    6    7 1    
    13    6  132 1    
    14    6  133 1    
    15    7    8 1    
    16    8    9 1    
    17    8  134 1    
    18    8  135 1    
    19    9   10 ar   
    20    9   14 ar   
    21   10   11 ar   
    22   10  136 1    
    23   11   12 ar   
    24   11  126 1    
    25   12   13 ar   
    26   12  137 1    
    27   13   14 ar   
    28   13   15 1    
    29   14  138 1    
    30   15   16 1    
    31   15  139 1    
    32   15  140 1    
    33   16   17 1    
    34   17   18 1    
    35   17  141 1    
    36   17  142 1    
    37   18   19 1    
    38   18   67 1    
    39   18  143 1    
    40   19   20 am   BACKBONE|DICT|INTERRES
    41   19  144 1    
    42   20   21 2    
    43   20   22 1    
    44   22   23 1    
    45   22   24 1    
    46   22  145 1    
    47   23  146 1    
    48   23  147 1    
    49   23  148 1    
    50   24   25 am   BACKBONE|DICT|INTERRES
    51   24  149 1    
    52   25   26 2    
    53   25   27 1    
    54   27   28 1    
    55   27   29 1    
    56   27  150 1    
    57   28  151 1    
    58   28  152 1    
    59   28  153 1    
    60   29   30 am   BACKBONE|DICT|INTERRES
    61   29  154 1    
    62   30   31 2    
    63   30   32 1    
    64   32   33 1    
    65   32   34 1    
    66   32  155 1    
    67   33  156 1    
    68   33  157 1    
    69   33  158 1    
    70   34   35 am   BACKBONE|DICT|INTERRES
    71   34  159 1    
    72   35   36 2    
    73   35   37 1    
    74   37   38 1    
    75   37   39 1    
    76   37  160 1    
    77   38  161 1    
    78   38  162 1    
    79   38  163 1    
    80   39   40 am   BACKBONE|DICT|INTERRES
    81   39  164 1    
    82   40   41 2    
    83   40   42 1    
    84   42   43 1    
    85   42   44 1    
    86   42  165 1    
    87   43  166 1    
    88   43  167 1    
    89   43  168 1    
    90   44   45 am   BACKBONE|DICT|INTERRES
    91   44  169 1    
    92   45   46 2    
    93   45   47 1    
    94   47   48 1    
    95   47   49 1    
    96   47  170 1    
    97   48  171 1    
    98   48  172 1    
    99   48  173 1    
   100   49   50 am   BACKBONE|DICT|INTERRES
   101   49  174 1    
   102   50   51 2    
   103   50   52 1    
   104   52   53 1    
   105   52   54 1    
   106   52  175 1    
   107   53  176 1    
   108   53  177 1    
   109   53  178 1    
   110   54   55 am   BACKBONE|DICT|INTERRES
   111   54  179 1    
   112   55   56 2    
   113   55   57 1    
   114   57   58 1    
   115   57   59 1    
   116   57  180 1    
   117   58  181 1    
   118   58  182 1    
   119   58  183 1    
   120   59   60 am   BACKBONE|DICT|INTERRES
   121   59  184 1    
   122   60   61 2    
   123   60   62 1    
   124   62   63 1    
   125   62   64 1    
   126   62  185 1    
   127   63  186 1    
   128   63  187 1    
   129   63  188 1    
   130   64   65 am   BACKBONE|DICT|INTERRES
   131   64  189 1    
   132   65   66 2    
   133   67   68 2    
   134   67   69 am   BACKBONE|DICT|INTERRES
   135   69   70 1    
   136   69  190 1    
   137   70   71 1    
   138   70   72 1    
   139   70  191 1    
   140   71  192 1    
   141   71  193 1    
   142   71  194 1    
   143   72   73 2    
   144   72   74 am   BACKBONE|DICT|INTERRES
   145   74   75 1    
   146   74  195 1    
   147   75   76 1    
   148   75   77 1    
   149   75  196 1    
   150   76  197 1    
   151   76  198 1    
   152   76  199 1    
   153   77   78 2    
   154   77   79 am   BACKBONE|DICT|INTERRES
   155   79   80 1    
   156   79  200 1    
   157   80   81 1    
   158   80   82 1    
   159   80  201 1    
   160   81  202 1    
   161   81  203 1    
   162   81  204 1    
   163   82   83 2    
   164   82   84 am   BACKBONE|DICT|INTERRES
   165   84   85 1    
   166   84  205 1    
   167   85   86 1    
   168   85   87 1    
   169   85  206 1    
   170   86  207 1    
   171   86  208 1    
   172   86  209 1    
   173   87   88 2    
   174   87   89 am   BACKBONE|DICT|INTERRES
   175   89   90 1    
   176   89  210 1    
   177   90   91 1    
   178   90   92 1    
   179   90  211 1    
   180   91  212 1    
   181   91  213 1    
   182   91  214 1    
   183   92   93 2    
   184   92   94 am   BACKBONE|DICT|INTERRES
   185   94   95 1    
   186   94  215 1    
   187   95   96 1    
   188   95   97 1    
   189   95  216 1    
   190   96  217 1    
   191   96  218 1    
   192   96  219 1    
   193   97   98 2    
   194   97   99 am   BACKBONE|DICT|INTERRES
   195   99  100 1    
   196   99  220 1    
   197  100  101 1    
   198  100  102 1    
   199  100  221 1    
   200  101  222 1    
   201  101  223 1    
   202  101  224 1    
   203  102  103 2    
   204  102  104 am   BACKBONE|DICT|INTERRES
   205  104  105 1    
   206  104  225 1    
   207  105  106 1    
   208  105  107 1    
   209  105  226 1    
   210  106  227 1    
   211  106  228 1    
   212  106  229 1    
   213  107  108 2    
   214  107  109 am   BACKBONE|DICT|INTERRES
   215  109  110 1    
   216  109  230 1    
   217  110  111 1    
   218  110  112 1    
   219  110  231 1    
   220  111  232 1    
   221  111  233 1    
   222  111  234 1    
   223  112  113 2    
   224  112  114 am   BACKBONE|DICT|INTERRES
   225  114  115 1    
   226  114  235 1    
   227  115  116 1    
   228  115  117 1    
   229  115  236 1    
   230  116  237 1    
   231  116  238 1    
   232  116  239 1    
   233  117  118 2    
   234  117  119 am   BACKBONE|DICT|INTERRES
   235  119  120 1    
   236  119  240 1    
   237  120  121 1    
   238  120  124 1    
   239  120  241 1    
   240  121  122 am   BACKBONE|DICT|INTERRES
   241  121  123 2    
   242  122  242 1    
   243  122  243 1    
   244  124  125 1    
   245  124  244 1    
   246  124  245 1    
   247  125  126 1    
   248  126  246 1    
   249  126  247 1    
@<TRIPOS>SUBSTRUCTURE
     1 UNK         1 GROUP             0       ****    0 ROOT    
