@<TRIPOS>MOLECULE
3R540
247   249    1
SMALL
USER_CHARGES


@<TRIPOS>ATOM
      1 CA          8.3381  -16.4298  -47.4233 C.3       0 UNK        -0.1800 
      2 C           7.1040  -16.1024  -46.5952 C.2       0 UNK         0.5000 
      3 O           7.0427  -16.4564  -45.4167 O.2       0 UNK        -0.5000 
      4 N           6.1225  -15.4223  -47.2002 N.am      1 UNK        -0.5000 
      5 CA          4.8579  -15.0142  -46.5781 C.3       1 UNK         0.1400 
      6 C6          3.7329  -14.8287  -47.6288 C.3       23 UNK        -0.0398 
      7 S7          3.2092  -16.4387  -48.3016 S.3       23 UNK        -0.2404 
      8 C8          3.0377  -16.1304  -50.0907 C.3       23 UNK        -0.0205 
      9 C9          2.1020  -17.1671  -50.6983 C.ar      23 UNK        -0.0193 
     10 C10         0.8155  -16.8070  -51.1117 C.ar      23 UNK        -0.1150 
     11 C11        -0.1148  -17.7835  -51.4948 C.ar      23 UNK        -0.0193 
     12 C12         0.2787  -19.1254  -51.4951 C.ar      23 UNK        -0.1150 
     13 C13         1.5720  -19.4974  -51.1176 C.ar      23 UNK        -0.0193 
     14 C14         2.4871  -18.5089  -50.7467 C.ar      23 UNK        -0.1150 
     15 C15         1.9453  -20.9733  -51.0297 C.3       23 UNK        -0.0205 
     16 S16         2.6148  -21.4560  -49.3965 S.3       23 UNK        -0.2404 
     17 C17         1.3939  -20.7618  -48.2237 C.3       23 UNK        -0.0398 
     18 CA          0.4071  -21.7966  -47.6388 C.3       11 UNK         0.1400 
     19 N          -0.3199  -21.2404  -46.4951 N.am      11 UNK        -0.5000 
     20 C          -1.1592  -21.9185  -45.7016 C.2       10 UNK         0.5000 
     21 O          -1.3868  -23.1210  -45.8183 O.2       10 UNK        -0.5000 
     22 CA         -1.9191  -21.1054  -44.6379 C.3       10 UNK         0.1400 
     23 CB         -1.0236  -20.7917  -43.4302 C.3       10 UNK        -0.1800 
     24 N          -2.4731  -19.8659  -45.1829 N.am      10 UNK        -0.5000 
     25 C          -3.4096  -19.8204  -46.1422 C.2       9 UNK         0.5000 
     26 O          -3.9491  -20.8186  -46.6199 O.2       9 UNK        -0.5000 
     27 CA         -3.7684  -18.4316  -46.6956 C.3       9 UNK         0.1400 
     28 CB         -4.7809  -17.7243  -45.7831 C.3       9 UNK        -0.1800 
     29 N          -2.5913  -17.5835  -46.8848 N.am      9 UNK        -0.5000 
     30 C          -1.6078  -17.8465  -47.7571 C.2       8 UNK         0.5000 
     31 O          -1.6029  -18.8252  -48.5010 O.2       8 UNK        -0.5000 
     32 CA         -0.3985  -16.8971  -47.7584 C.3       8 UNK         0.1400 
     33 CB         -0.7108  -15.5901  -48.4889 C.3       8 UNK        -0.1800 
     34 N           0.0715  -16.5709  -46.4195 N.am      8 UNK        -0.5000 
     35 C           0.5352  -17.4546  -45.5302 C.2       7 UNK         0.5000 
     36 O           0.6589  -18.6585  -45.7503 O.2       7 UNK        -0.5000 
     37 CA          0.8662  -16.8934  -44.1402 C.3       7 UNK         0.1400 
     38 CB          2.2750  -16.2814  -44.1282 C.3       7 UNK        -0.1800 
     39 N          -0.1232  -15.9021  -43.7099 N.am      7 UNK        -0.5000 
     40 C          -1.3974  -16.1997  -43.4146 C.2       6 UNK         0.5000 
     41 O          -1.8533  -17.3444  -43.4232 O.2       6 UNK        -0.5000 
     42 CA         -2.3236  -15.0137  -43.0960 C.3       6 UNK         0.1400 
     43 CB         -2.0786  -14.4984  -41.6698 C.3       6 UNK        -0.1800 
     44 N          -2.1697  -13.9113  -44.0459 N.am      6 UNK        -0.5000 
     45 C          -2.5664  -13.9531  -45.3265 C.2       5 UNK         0.5000 
     46 O          -3.1006  -14.9306  -45.8502 O.2       5 UNK        -0.5000 
     47 CA         -2.3040  -12.7013  -46.1845 C.3       5 UNK         0.1400 
     48 CB         -3.4892  -11.7302  -46.0832 C.3       5 UNK        -0.1800 
     49 N          -1.0690  -11.9874  -45.8581 N.am      5 UNK        -0.5000 
     50 C           0.1652  -12.5092  -45.8280 C.2       4 UNK         0.5000 
     51 O           0.4142  -13.7026  -46.0116 O.2       4 UNK        -0.5000 
     52 CA          1.3267  -11.5444  -45.5205 C.3       4 UNK         0.1400 
     53 CB          0.9095  -10.0645  -45.3610 C.3       4 UNK        -0.1800 
     54 N           2.0958  -11.9833  -44.3561 N.am      4 UNK        -0.5000 
     55 C           1.6437  -12.1887  -43.1088 C.2       3 UNK         0.5000 
     56 O           0.4632  -12.0517  -42.7824 O.2       3 UNK        -0.5000 
     57 CA          2.6723  -12.6372  -42.0479 C.3       3 UNK         0.1400 
     58 CB          2.1081  -13.7517  -41.1489 C.3       3 UNK        -0.1800 
     59 N           3.9381  -13.0806  -42.6446 N.am      3 UNK        -0.5000 
     60 C           4.9926  -12.2854  -42.8763 C.2       2 UNK         0.5000 
     61 O           5.0367  -11.0977  -42.5551 O.2       2 UNK        -0.5000 
     62 CA          6.1864  -12.9090  -43.6258 C.3       2 UNK         0.1400 
     63 CB          7.2016  -13.4918  -42.6313 C.3       2 UNK        -0.1800 
     64 N           5.8129  -13.9484  -44.5898 N.am      2 UNK        -0.5000 
     65 C           5.0586  -13.7717  -45.6830 C.2       1 UNK         0.5000 
     66 O           4.5475  -12.6930  -45.9865 O.2       1 UNK        -0.5000 
     67 C          -0.5528  -22.3544  -48.7107 C.2       11 UNK         0.5000 
     68 O          -0.3719  -23.4900  -49.1524 O.2       11 UNK        -0.5000 
     69 N          -1.5839  -21.5788  -49.0735 N.am      12 UNK        -0.5000 
     70 CA         -2.6258  -21.9823  -50.0161 C.3       12 UNK         0.1400 
     71 CB         -3.5857  -20.8118  -50.2763 C.3       12 UNK        -0.1800 
     72 C          -3.4065  -23.2252  -49.5548 C.2       12 UNK         0.5000 
     73 O          -3.7013  -24.0950  -50.3765 O.2       12 UNK        -0.5000 
     74 N          -3.7405  -23.2815  -48.2604 N.am      13 UNK        -0.5000 
     75 CA         -4.5018  -24.3690  -47.6536 C.3       13 UNK         0.1400 
     76 CB         -5.1271  -23.8812  -46.3385 C.3       13 UNK        -0.1800 
     77 C          -3.6756  -25.6445  -47.4207 C.2       13 UNK         0.5000 
     78 O          -4.1730  -26.7328  -47.7075 O.2       13 UNK        -0.5000 
     79 N          -2.4599  -25.5053  -46.8763 N.am      14 UNK        -0.5000 
     80 CA         -1.6593  -26.6338  -46.3995 C.3       14 UNK         0.1400 
     81 CB         -0.9688  -26.2512  -45.0802 C.3       14 UNK        -0.1800 
     82 C          -0.6188  -27.1119  -47.4220 C.2       14 UNK         0.5000 
     83 O          -0.4995  -28.3195  -47.6324 O.2       14 UNK        -0.5000 
     84 N           0.1414  -26.1782  -48.0095 N.am      15 UNK        -0.5000 
     85 CA          1.2838  -26.4954  -48.8689 C.3       15 UNK         0.1400 
     86 CB          2.3581  -25.4024  -48.7457 C.3       15 UNK        -0.1800 
     87 C           0.8556  -26.6960  -50.3287 C.2       15 UNK         0.5000 
     88 O           1.2356  -27.6955  -50.9401 O.2       15 UNK        -0.5000 
     89 N           0.0606  -25.7556  -50.8567 N.am      16 UNK        -0.5000 
     90 CA         -0.4788  -25.8207  -52.2174 C.3       16 UNK         0.1400 
     91 CB         -0.8626  -24.4102  -52.6854 C.3       16 UNK        -0.1800 
     92 C          -1.6860  -26.7710  -52.3271 C.2       16 UNK         0.5000 
     93 O          -1.9524  -27.2786  -53.4169 O.2       16 UNK        -0.5000 
     94 N          -2.3864  -26.9861  -51.2015 N.am      17 UNK        -0.5000 
     95 CA         -3.5749  -27.8327  -51.0386 C.3       17 UNK         0.1400 
     96 CB         -3.2161  -29.3192  -51.2442 C.3       17 UNK        -0.1800 
     97 C          -4.7772  -27.3748  -51.8937 C.2       17 UNK         0.5000 
     98 O          -5.5728  -28.2065  -52.3352 O.2       17 UNK        -0.5000 
     99 N          -4.8799  -26.0593  -52.1179 N.am      18 UNK        -0.5000 
    100 CA        -5.8967  -25.4267  -52.9558 C.3       18 UNK         0.1400 
    101 CB        -5.1977  -24.4748  -53.9406 C.3       18 UNK        -0.1800 
    102 C         -6.9258  -24.6531  -52.1180 C.2       18 UNK         0.5000 
    103 O         -8.1068  -24.6534  -52.4654 O.2       18 UNK        -0.5000 
    104 N         -6.4530  -23.9872  -51.0514 N.am      19 UNK        -0.5000 
    105 CA        -7.1966  -23.0891  -50.1546 C.3       19 UNK         0.1400 
    106 CB        -8.2166  -23.8829  -49.3131 C.3       19 UNK        -0.1800 
    107 C         -7.8319  -21.8783  -50.8775 C.2       19 UNK         0.5000 
    108 O         -8.8343  -21.3335  -50.4117 O.2       19 UNK        -0.5000 
    109 N         -7.2355  -21.4711  -52.0062 N.am      20 UNK        -0.5000 
    110 CA        -7.7358  -20.4561  -52.9351 C.3       20 UNK         0.1400 
    111 CB        -7.1474  -20.7485  -54.3279 C.3       20 UNK        -0.1800 
    112 C         -7.4656  -19.0103  -52.4641 C.2       20 UNK         0.5000 
    113 O         -6.9368  -18.2026  -53.2306 O.2       20 UNK        -0.5000 
    114 N         -7.8431  -18.7133  -51.2125 N.am      21 UNK        -0.5000 
    115 CA        -7.7067  -17.4291  -50.5189 C.3       21 UNK         0.1400 
    116 CB        -8.7102  -16.4036  -51.0937 C.3       21 UNK        -0.1800 
    117 C         -6.2412  -16.9424  -50.4931 C.2       21 UNK         0.5000 
    118 O         -5.3810  -17.6724  -49.9983 O.2       21 UNK        -0.5000 
    119 N         -5.9821  -15.7314  -51.0057 N.am      22 UNK        -0.5000 
    120 CA        -4.6668  -15.0820  -51.1767 C.3       22 UNK         0.1400 
    121 C         -3.9463  -14.6877  -49.8459 C.2       22 UNK         0.5000 
    122 N         -4.1567  -15.3959  -48.7447 N.am      22 UNK        -0.7600 
    123 O         -3.2473  -13.6795  -49.7975 O.2       22 UNK        -0.5000 
    124 C124       -3.8037  -15.8175  -52.2604 C.3       23 UNK        -0.0398 
    125 S125       -1.9751  -15.7224  -52.1875 S.3       23 UNK        -0.2404 
    126 C126       -1.5784  -17.4660  -51.8120 C.3       23 UNK        -0.0205 
    127 H127        8.2517  -16.0579  -48.4445 H         1 UNK         0.0600 
    128 H128        8.4852  -17.5089  -47.4657 H         1 UNK         0.0600 
    129 H129        9.2227  -15.9812  -46.9712 H         1 UNK         0.0600 
    130 H130        6.2403  -15.1459  -48.1643 H         1 UNK         0.3000 
    131 H131        4.5424  -15.8144  -45.9070 H         1 UNK         0.0600 
    132 H132        4.0524  -14.1623  -48.4314 H         1 UNK         0.0800 
    133 H133        2.8486  -14.3722  -47.1799 H         1 UNK         0.0800 
    134 H134        2.6504  -15.1238  -50.2551 H         1 UNK         0.0800 
    135 H135        4.0161  -16.1791  -50.5703 H         1 UNK         0.0800 
    136 H136        0.5251  -15.7683  -51.0650 H         1 UNK         0.1150 
    137 H137       -0.4426  -19.8892  -51.7506 H         1 UNK         0.1150 
    138 H138        3.4756  -18.7920  -50.4133 H         1 UNK         0.1150 
    139 H139        1.0815  -21.6033  -51.2477 H         1 UNK         0.0800 
    140 H140        2.6887  -21.1960  -51.7959 H         1 UNK         0.0800 
    141 H141        0.8538  -19.9237  -48.6620 H         1 UNK         0.0800 
    142 H142        1.9768  -20.3264  -47.4112 H         1 UNK         0.0800 
    143 H143        0.9904  -22.6377  -47.2582 H         1 UNK         0.0600 
    144 H144       -0.1623  -20.2540  -46.3018 H         1 UNK         0.3000 
    145 H145       -2.7537  -21.7169  -44.2884 H         1 UNK         0.0600 
    146 H146       -1.5809  -20.2682  -42.6531 H         1 UNK         0.0600 
    147 H147       -0.6306  -21.7084  -42.9888 H         1 UNK         0.0600 
    148 H148       -0.1726  -20.1693  -43.7054 H         1 UNK         0.0600 
    149 H149       -2.0958  -18.9960  -44.8248 H         1 UNK         0.3000 
    150 H150       -4.2352  -18.5773  -47.6715 H         1 UNK         0.0600 
    151 H151       -5.6587  -18.3493  -45.6145 H         1 UNK         0.0600 
    152 H152       -5.1284  -16.7921  -46.2282 H         1 UNK         0.0600 
    153 H153       -4.3499  -17.4896  -44.8092 H         1 UNK         0.0600 
    154 H154       -2.5460  -16.7374  -46.3260 H         1 UNK         0.3000 
    155 H155        0.4091  -17.4062  -48.2858 H         1 UNK         0.0600 
    156 H156       -1.1832  -15.7817  -49.4482 H         1 UNK         0.0600 
    157 H157        0.1943  -15.0103  -48.6693 H         1 UNK         0.0600 
    158 H158       -1.3954  -14.9698  -47.9192 H         1 UNK         0.0600 
    159 H159        0.0532  -15.5876  -46.1641 H         1 UNK         0.3000 
    160 H160        0.8508  -17.7274  -43.4353 H         1 UNK         0.0600 
    161 H161        2.3153  -15.3467  -44.6885 H         1 UNK         0.0600 
    162 H162        2.9955  -16.9687  -44.5732 H         1 UNK         0.0600 
    163 H163        2.6150  -16.0900  -43.1125 H         1 UNK         0.0600 
    164 H164        0.1478  -14.9305  -43.7513 H         1 UNK         0.3000 
    165 H165       -3.3538  -15.3718  -43.1550 H         1 UNK         0.0600 
    166 H166       -2.7859  -13.7110  -41.4090 H         1 UNK         0.0600 
    167 H167       -2.1999  -15.2990  -40.9390 H         1 UNK         0.0600 
    168 H168       -1.0721  -14.0956  -41.5520 H         1 UNK         0.0600 
    169 H169       -1.7025  -13.0793  -43.7107 H         1 UNK         0.3000 
    170 H170       -2.2268  -13.0183  -47.2247 H         1 UNK         0.0600 
    171 H171       -4.4235  -12.2268  -46.3492 H         1 UNK         0.0600 
    172 H172       -3.6019  -11.3356  -45.0726 H         1 UNK         0.0600 
    173 H173       -3.3681  -10.8869  -46.7633 H         1 UNK         0.0600 
    174 H174       -1.1659  -11.0018  -45.6630 H         1 UNK         0.3000 
    175 H175        2.0005  -11.6058  -46.3761 H         1 UNK         0.0600 
    176 H176        0.2313   -9.9137  -44.5203 H         1 UNK         0.0600 
    177 H177        1.7827   -9.4339  -45.1929 H         1 UNK         0.0600 
    178 H178        0.4190   -9.6917  -46.2611 H         1 UNK         0.0600 
    179 H179        3.0739  -12.1644  -44.5457 H         1 UNK         0.3000 
    180 H180        2.8603  -11.7721  -41.4089 H         1 UNK         0.0600 
    181 H181        1.7175  -14.5871  -41.7265 H         1 UNK         0.0600 
    182 H182        1.2867  -13.3751  -40.5382 H         1 UNK         0.0600 
    183 H183        2.8661  -14.1350  -40.4657 H         1 UNK         0.0600 
    184 H184        3.9895  -14.0431  -42.9437 H         1 UNK         0.3000 
    185 H185        6.6766  -12.1069  -44.1815 H         1 UNK         0.0600 
    186 H186        7.5249  -12.7365  -41.9137 H         1 UNK         0.0600 
    187 H187        6.7788  -14.3233  -42.0660 H         1 UNK         0.0600 
    188 H188        8.0929  -13.8539  -43.1443 H         1 UNK         0.0600 
    189 H189        6.2381  -14.8617  -44.4631 H         1 UNK         0.3000 
    190 H190       -1.6484  -20.6316  -48.7030 H         1 UNK         0.3000 
    191 H191       -2.1336  -22.2200  -50.9584 H         1 UNK         0.0600 
    192 H192       -3.0561  -19.9536  -50.6873 H         1 UNK         0.0600 
    193 H193       -4.3586  -21.0873  -50.9943 H         1 UNK         0.0600 
    194 H194       -4.0858  -20.4857  -49.3641 H         1 UNK         0.0600 
    195 H195       -3.5070  -22.4974  -47.6587 H         1 UNK         0.3000 
    196 H196       -5.3180  -24.6341  -48.3276 H         1 UNK         0.0600 
    197 H197       -5.7098  -24.6715  -45.8636 H         1 UNK         0.0600 
    198 H198       -5.7994  -23.0408  -46.5120 H         1 UNK         0.0600 
    199 H199       -4.3659  -23.5582  -45.6270 H         1 UNK         0.0600 
    200 H200       -2.1206  -24.5749  -46.6380 H         1 UNK         0.3000 
    201 H201       -2.3141  -27.4798  -46.1788 H         1 UNK         0.0600 
    202 H202       -1.6948  -25.9260  -44.3349 H         1 UNK         0.0600 
    203 H203       -0.2463  -25.4460  -45.2167 H         1 UNK         0.0600 
    204 H204       -0.4313  -27.1028  -44.6613 H         1 UNK         0.0600 
    205 H205       -0.0663  -25.1977  -47.8691 H         1 UNK         0.3000 
    206 H206        1.7387  -27.4276  -48.5262 H         1 UNK         0.0600 
    207 H207        2.6593  -25.2594  -47.7080 H         1 UNK         0.0600 
    208 H208        3.2515  -25.6744  -49.3088 H         1 UNK         0.0600 
    209 H209        2.0164  -24.4427  -49.1301 H         1 UNK         0.0600 
    210 H210       -0.1823  -24.9450  -50.2904 H         1 UNK         0.3000 
    211 H211        0.3023  -26.1925  -52.8841 H         1 UNK         0.0600 
    212 H212       -1.7434  -24.0462  -52.1620 H         1 UNK         0.0600 
    213 H213       -1.0983  -24.4077  -53.7502 H         1 UNK         0.0600 
    214 H214       -0.0517  -23.6990  -52.5269 H         1 UNK         0.0600 
    215 H215       -2.0856  -26.4926  -50.3735 H         1 UNK         0.3000 
    216 H216       -3.8902  -27.7213  -50.0037 H         1 UNK         0.0600 
    217 H217       -4.0540  -29.9647  -50.9786 H         1 UNK         0.0600 
    218 H218       -2.3734  -29.6100  -50.6167 H         1 UNK         0.0600 
    219 H219       -2.9536  -29.5341  -52.2804 H         1 UNK         0.0600 
    220 H220       -4.2149  -25.4431  -51.6604 H         1 UNK         0.3000 
    221 H221       -6.4372  -26.1761  -53.5377 H         1 UNK         0.0600 
    222 H222       -4.6287  -23.7010  -53.4233 H         1 UNK         0.0600 
    223 H223       -4.5070  -25.0187  -54.5855 H         1 UNK         0.0600 
    224 H224       -5.9220  -23.9772  -54.5868 H         1 UNK         0.0600 
    225 H225       -5.4596  -24.0713  -50.8512 H         1 UNK         0.3000 
    226 H226       -6.4634  -22.6672  -49.4664 H         1 UNK         0.0600 
    227 H227       -7.7455  -24.7292  -48.8136 H         1 UNK         0.0600 
    228 H228       -8.6574  -23.2555  -48.5376 H         1 UNK         0.0600 
    229 H229       -9.0327  -24.2678  -49.9250 H         1 UNK         0.0600 
    230 H230       -6.3996  -21.9556  -52.2943 H         1 UNK         0.3000 
    231 H231       -8.8201  -20.5629  -53.0098 H         1 UNK         0.0600 
    232 H232       -6.0604  -20.6585  -54.3326 H         1 UNK         0.0600 
    233 H233       -7.5393  -20.0562  -55.0741 H         1 UNK         0.0600 
    234 H234       -7.4025  -21.7553  -54.6597 H         1 UNK         0.0600 
    235 H235       -8.2514  -19.4692  -50.6712 H         1 UNK         0.3000 
    236 H236       -7.9813  -17.6113  -49.4790 H         1 UNK         0.0600 
    237 H237       -9.7290  -16.7879  -51.0404 H         1 UNK         0.0600 
    238 H238       -8.6938  -15.4720  -50.5268 H         1 UNK         0.0600 
    239 H239       -8.5046  -16.1665  -52.1383 H         1 UNK         0.0600 
    240 H240       -6.7661  -15.2011  -51.3570 H         1 UNK         0.3000 
    241 H241       -4.9163  -14.1144  -51.6147 H         1 UNK         0.0600 
    242 H242       -3.7410  -15.1284  -47.8635 H         1 UNK         0.3800 
    243 H243       -4.6714  -16.2642  -48.8273 H         1 UNK         0.3800 
    244 H244       -4.0668  -16.8754  -52.2813 H         1 UNK         0.0800 
    245 H245       -4.1019  -15.4537  -53.2443 H         1 UNK         0.0800 
    246 H246       -1.9048  -18.0797  -52.6530 H         1 UNK         0.0800 
    247 H247       -2.1772  -17.7690  -50.9522 H         1 UNK         0.0800 
@<TRIPOS>BOND
     1    1    2 1    
     2    1  127 1    
     3    1  128 1    
     4    1  129 1    
     5    2    3 2    
     6    2    4 am   BACKBONE|DICT|INTERRES
     7    4    5 1    
     8    4  130 1    
     9    5    6 1    
    10    5   65 1    
    11    5  131 1    
    12    6    7 1    
    13    6  132 1    
    14    6  133 1    
    15    7    8 1    
    16    8    9 1    
    17    8  134 1    
    18    8  135 1    
    19    9   10 ar   
    20    9   14 ar   
    21   10   11 ar   
    22   10  136 1    
    23   11   12 ar   
    24   11  126 1    
    25   12   13 ar   
    26   12  137 1    
    27   13   14 ar   
    28   13   15 1    
    29   14  138 1    
    30   15   16 1    
    31   15  139 1    
    32   15  140 1    
    33   16   17 1    
    34   17   18 1    
    35   17  141 1    
    36   17  142 1    
    37   18   19 1    
    38   18   67 1    
    39   18  143 1    
    40   19   20 am   BACKBONE|DICT|INTERRES
    41   19  144 1    
    42   20   21 2    
    43   20   22 1    
    44   22   23 1    
    45   22   24 1    
    46   22  145 1    
    47   23  146 1    
    48   23  147 1    
    49   23  148 1    
    50   24   25 am   BACKBONE|DICT|INTERRES
    51   24  149 1    
    52   25   26 2    
    53   25   27 1    
    54   27   28 1    
    55   27   29 1    
    56   27  150 1    
    57   28  151 1    
    58   28  152 1    
    59   28  153 1    
    60   29   30 am   BACKBONE|DICT|INTERRES
    61   29  154 1    
    62   30   31 2    
    63   30   32 1    
    64   32   33 1    
    65   32   34 1    
    66   32  155 1    
    67   33  156 1    
    68   33  157 1    
    69   33  158 1    
    70   34   35 am   BACKBONE|DICT|INTERRES
    71   34  159 1    
    72   35   36 2    
    73   35   37 1    
    74   37   38 1    
    75   37   39 1    
    76   37  160 1    
    77   38  161 1    
    78   38  162 1    
    79   38  163 1    
    80   39   40 am   BACKBONE|DICT|INTERRES
    81   39  164 1    
    82   40   41 2    
    83   40   42 1    
    84   42   43 1    
    85   42   44 1    
    86   42  165 1    
    87   43  166 1    
    88   43  167 1    
    89   43  168 1    
    90   44   45 am   BACKBONE|DICT|INTERRES
    91   44  169 1    
    92   45   46 2    
    93   45   47 1    
    94   47   48 1    
    95   47   49 1    
    96   47  170 1    
    97   48  171 1    
    98   48  172 1    
    99   48  173 1    
   100   49   50 am   BACKBONE|DICT|INTERRES
   101   49  174 1    
   102   50   51 2    
   103   50   52 1    
   104   52   53 1    
   105   52   54 1    
   106   52  175 1    
   107   53  176 1    
   108   53  177 1    
   109   53  178 1    
   110   54   55 am   BACKBONE|DICT|INTERRES
   111   54  179 1    
   112   55   56 2    
   113   55   57 1    
   114   57   58 1    
   115   57   59 1    
   116   57  180 1    
   117   58  181 1    
   118   58  182 1    
   119   58  183 1    
   120   59   60 am   BACKBONE|DICT|INTERRES
   121   59  184 1    
   122   60   61 2    
   123   60   62 1    
   124   62   63 1    
   125   62   64 1    
   126   62  185 1    
   127   63  186 1    
   128   63  187 1    
   129   63  188 1    
   130   64   65 am   BACKBONE|DICT|INTERRES
   131   64  189 1    
   132   65   66 2    
   133   67   68 2    
   134   67   69 am   BACKBONE|DICT|INTERRES
   135   69   70 1    
   136   69  190 1    
   137   70   71 1    
   138   70   72 1    
   139   70  191 1    
   140   71  192 1    
   141   71  193 1    
   142   71  194 1    
   143   72   73 2    
   144   72   74 am   BACKBONE|DICT|INTERRES
   145   74   75 1    
   146   74  195 1    
   147   75   76 1    
   148   75   77 1    
   149   75  196 1    
   150   76  197 1    
   151   76  198 1    
   152   76  199 1    
   153   77   78 2    
   154   77   79 am   BACKBONE|DICT|INTERRES
   155   79   80 1    
   156   79  200 1    
   157   80   81 1    
   158   80   82 1    
   159   80  201 1    
   160   81  202 1    
   161   81  203 1    
   162   81  204 1    
   163   82   83 2    
   164   82   84 am   BACKBONE|DICT|INTERRES
   165   84   85 1    
   166   84  205 1    
   167   85   86 1    
   168   85   87 1    
   169   85  206 1    
   170   86  207 1    
   171   86  208 1    
   172   86  209 1    
   173   87   88 2    
   174   87   89 am   BACKBONE|DICT|INTERRES
   175   89   90 1    
   176   89  210 1    
   177   90   91 1    
   178   90   92 1    
   179   90  211 1    
   180   91  212 1    
   181   91  213 1    
   182   91  214 1    
   183   92   93 2    
   184   92   94 am   BACKBONE|DICT|INTERRES
   185   94   95 1    
   186   94  215 1    
   187   95   96 1    
   188   95   97 1    
   189   95  216 1    
   190   96  217 1    
   191   96  218 1    
   192   96  219 1    
   193   97   98 2    
   194   97   99 am   BACKBONE|DICT|INTERRES
   195   99  100 1    
   196   99  220 1    
   197  100  101 1    
   198  100  102 1    
   199  100  221 1    
   200  101  222 1    
   201  101  223 1    
   202  101  224 1    
   203  102  103 2    
   204  102  104 am   BACKBONE|DICT|INTERRES
   205  104  105 1    
   206  104  225 1    
   207  105  106 1    
   208  105  107 1    
   209  105  226 1    
   210  106  227 1    
   211  106  228 1    
   212  106  229 1    
   213  107  108 2    
   214  107  109 am   BACKBONE|DICT|INTERRES
   215  109  110 1    
   216  109  230 1    
   217  110  111 1    
   218  110  112 1    
   219  110  231 1    
   220  111  232 1    
   221  111  233 1    
   222  111  234 1    
   223  112  113 2    
   224  112  114 am   BACKBONE|DICT|INTERRES
   225  114  115 1    
   226  114  235 1    
   227  115  116 1    
   228  115  117 1    
   229  115  236 1    
   230  116  237 1    
   231  116  238 1    
   232  116  239 1    
   233  117  118 2    
   234  117  119 am   BACKBONE|DICT|INTERRES
   235  119  120 1    
   236  119  240 1    
   237  120  121 1    
   238  120  124 1    
   239  120  241 1    
   240  121  122 am   BACKBONE|DICT|INTERRES
   241  121  123 2    
   242  122  242 1    
   243  122  243 1    
   244  124  125 1    
   245  124  244 1    
   246  124  245 1    
   247  125  126 1    
   248  126  246 1    
   249  126  247 1    
@<TRIPOS>SUBSTRUCTURE
     1 UNK         1 GROUP             0       ****    0 ROOT    
