@<TRIPOS>MOLECULE
3R540
247   249    1
SMALL
USER_CHARGES


@<TRIPOS>ATOM
      1 CA          5.9897  -11.2552  -45.2123 C.3       0 UNK        -0.1800 
      2 C           4.8553  -12.2673  -45.1903 C.2       0 UNK         0.5000 
      3 O           4.6148  -12.9162  -44.1704 O.2       0 UNK        -0.5000 
      4 N           4.1534  -12.4070  -46.3196 N.am      1 UNK        -0.5000 
      5 CA          3.0253  -13.3266  -46.4931 C.3       1 UNK         0.1400 
      6 C6          2.7049  -13.5494  -47.9921 C.3       23 UNK        -0.0398 
      7 S7          2.0748  -15.2240  -48.3093 S.3       23 UNK        -0.2404 
      8 C8          1.4254  -15.0464  -49.9994 C.3       23 UNK        -0.0205 
      9 C9          0.3561  -16.0919  -50.2624 C.ar      23 UNK        -0.0193 
     10 C10        -0.9946  -15.7498  -50.1792 C.ar      23 UNK        -0.1150 
     11 C11        -1.9861  -16.7190  -50.3484 C.ar      23 UNK        -0.0193 
     12 C12        -1.6162  -18.0443  -50.6016 C.ar      23 UNK        -0.1150 
     13 C13        -0.2650  -18.3993  -50.6929 C.ar      23 UNK        -0.0193 
     14 C14         0.7143  -17.4116  -50.5434 C.ar      23 UNK        -0.1150 
     15 C15         0.1314  -19.8540  -50.9260 C.3       23 UNK        -0.0205 
     16 S16         1.4268  -20.4568  -49.7814 S.3       23 UNK        -0.2404 
     17 C17         0.7084  -20.0962  -48.1390 C.3       23 UNK        -0.0398 
     18 CA          0.0470  -21.3168  -47.4575 C.3       11 UNK         0.1400 
     19 N          -0.2709  -21.0331  -46.0574 N.am      11 UNK        -0.5000 
     20 C          -0.7823  -21.9050  -45.1775 C.2       10 UNK         0.5000 
     21 O          -0.9869  -23.0925  -45.4217 O.2       10 UNK        -0.5000 
     22 CA         -1.1869  -21.3385  -43.8076 C.3       10 UNK         0.1400 
     23 CB          0.0285  -21.2389  -42.8753 C.3       10 UNK        -0.1800 
     24 N          -1.8302  -20.0303  -43.9323 N.am      10 UNK        -0.5000 
     25 C          -3.0436  -19.8378  -44.4691 C.2       9 UNK         0.5000 
     26 O          -3.7592  -20.7479  -44.8887 O.2       9 UNK        -0.5000 
     27 CA         -3.5203  -18.3791  -44.5882 C.3       9 UNK         0.1400 
     28 CB         -4.0919  -17.8833  -43.2516 C.3       9 UNK        -0.1800 
     29 N          -2.4618  -17.4702  -45.0320 N.am      9 UNK        -0.5000 
     30 C          -1.9028  -17.5053  -46.2496 C.2       8 UNK         0.5000 
     31 O          -2.2183  -18.3147  -47.1217 O.2       8 UNK        -0.5000 
     32 CA         -0.7800  -16.4864  -46.5233 C.3       8 UNK         0.1400 
     33 CB         -1.3813  -15.1024  -46.8184 C.3       8 UNK        -0.1800 
     34 N           0.1966  -16.3446  -45.4386 N.am      8 UNK        -0.5000 
     35 C           0.8554  -17.3339  -44.8228 C.2       7 UNK         0.5000 
     36 O           0.7146  -18.5276  -45.0925 O.2       7 UNK        -0.5000 
     37 CA          1.7811  -16.8956  -43.6728 C.3       7 UNK         0.1400 
     38 CB          1.8594  -17.9453  -42.5474 C.3       7 UNK        -0.1800 
     39 N           3.1307  -16.5030  -44.0916 N.am      7 UNK        -0.5000 
     40 C           4.0474  -17.2400  -44.7414 C.2       6 UNK         0.5000 
     41 O           3.8349  -18.3539  -45.2185 O.2       6 UNK        -0.5000 
     42 CA          5.4760  -16.6606  -44.8164 C.3       6 UNK         0.1400 
     43 CB          5.8056  -16.1042  -46.2112 C.3       6 UNK        -0.1800 
     44 N           5.7075  -15.6282  -43.8000 N.am      6 UNK        -0.5000 
     45 C           6.2019  -15.8726  -42.5771 C.2       5 UNK         0.5000 
     46 O           6.6110  -16.9730  -42.2054 O.2       5 UNK        -0.5000 
     47 CA          6.1895  -14.6944  -41.5898 C.3       5 UNK         0.1400 
     48 CB          7.2249  -13.6267  -41.9765 C.3       5 UNK        -0.1800 
     49 N           4.8543  -14.1003  -41.5394 N.am      5 UNK        -0.5000 
     50 C           3.8577  -14.5555  -40.7671 C.2       4 UNK         0.5000 
     51 O           4.0007  -15.4578  -39.9408 O.2       4 UNK        -0.5000 
     52 CA          2.4600  -13.9370  -40.9793 C.3       4 UNK         0.1400 
     53 CB          1.6045  -13.9173  -39.6949 C.3       4 UNK        -0.1800 
     54 N           2.4787  -12.6287  -41.6399 N.am      4 UNK        -0.5000 
     55 C           2.9010  -11.4604  -41.1336 C.2       3 UNK         0.5000 
     56 O           3.3603  -11.3301  -39.9986 O.2       3 UNK        -0.5000 
     57 CA          2.8115  -10.2235  -42.0522 C.3       3 UNK         0.1400 
     58 CB          4.2103   -9.6373  -42.3028 C.3       3 UNK        -0.1800 
     59 N           2.1776  -10.5029  -43.3449 N.am      3 UNK        -0.5000 
     60 C           0.8566  -10.5900  -43.5598 C.2       2 UNK         0.5000 
     61 O           0.0111  -10.4192  -42.6818 O.2       2 UNK        -0.5000 
     62 CA          0.4041  -10.9399  -44.9921 C.3       2 UNK         0.1400 
     63 CB         -0.0622   -9.6768  -45.7319 C.3       2 UNK        -0.1800 
     64 N           1.4591  -11.5867  -45.7772 N.am      2 UNK        -0.5000 
     65 C           1.7994  -12.8786  -45.6721 C.2       1 UNK         0.5000 
     66 O           1.2385  -13.6781  -44.9195 O.2       1 UNK        -0.5000 
     67 C          -1.1973  -21.8022  -48.2275 C.2       11 UNK         0.5000 
     68 O          -1.1414  -22.8547  -48.8627 O.2       11 UNK        -0.5000 
     69 N          -2.3053  -21.0534  -48.1221 N.am      12 UNK        -0.5000 
     70 CA         -3.5925  -21.3965  -48.7245 C.3       12 UNK         0.1400 
     71 CB         -4.5895  -20.2520  -48.4965 C.3       12 UNK        -0.1800 
     72 C          -4.1563  -22.7318  -48.2072 C.2       12 UNK         0.5000 
     73 O          -4.5962  -23.5506  -49.0134 O.2       12 UNK        -0.5000 
     74 N          -4.0962  -22.9488  -46.8855 N.am      13 UNK        -0.5000 
     75 CA         -4.5035  -24.1959  -46.2366 C.3       13 UNK         0.1400 
     76 CB         -4.4344  -24.0373  -44.7104 C.3       13 UNK        -0.1800 
     77 C          -3.6776  -25.4078  -46.7065 C.2       13 UNK         0.5000 
     78 O          -4.2617  -26.4240  -47.0884 O.2       13 UNK        -0.5000 
     79 N          -2.3441  -25.2580  -46.7090 N.am      14 UNK        -0.5000 
     80 CA         -1.3802  -26.2628  -47.1636 C.3       14 UNK         0.1400 
     81 CB          0.0480  -25.7814  -46.8679 C.3       14 UNK        -0.1800 
     82 C          -1.5316  -26.6186  -48.6524 C.2       14 UNK         0.5000 
     83 O          -1.3930  -27.7883  -49.0126 O.2       14 UNK        -0.5000 
     84 N          -1.8757  -25.6263  -49.4834 N.am      15 UNK        -0.5000 
     85 CA         -2.2108  -25.7665  -50.9017 C.3       15 UNK         0.1400 
     86 CB         -2.0258  -24.4031  -51.5892 C.3       15 UNK        -0.1800 
     87 C          -3.6233  -26.3553  -51.1240 C.2       15 UNK         0.5000 
     88 O          -4.4010  -25.8114  -51.9096 O.2       15 UNK        -0.5000 
     89 N          -3.9218  -27.4578  -50.4208 N.am      16 UNK        -0.5000 
     90 CA         -5.1370  -28.2757  -50.4710 C.3       16 UNK         0.1400 
     91 CB         -5.1161  -29.1619  -51.7321 C.3       16 UNK        -0.1800 
     92 C          -6.4426  -27.4676  -50.3150 C.2       16 UNK         0.5000 
     93 O          -7.3911  -27.6790  -51.0729 O.2       16 UNK        -0.5000 
     94 N          -6.4540  -26.5534  -49.3325 N.am      17 UNK        -0.5000 
     95 CA         -7.5362  -25.6112  -49.0254 C.3       17 UNK         0.1400 
     96 CB         -8.7787  -26.3526  -48.4893 C.3       17 UNK        -0.1800 
     97 C          -7.8457  -24.6730  -50.2121 C.2       17 UNK         0.5000 
     98 O          -8.9795  -24.6148  -50.6921 O.2       17 UNK        -0.5000 
     99 N          -6.8033  -23.9556  -50.6469 N.am      18 UNK        -0.5000 
    100 CA        -6.7697  -22.9574  -51.7137 C.3       18 UNK         0.1400 
    101 CB        -7.6066  -21.7188  -51.3333 C.3       18 UNK        -0.1800 
    102 C         -7.1193  -23.5257  -53.1028 C.2       18 UNK         0.5000 
    103 O         -7.9039  -22.9247  -53.8401 O.2       18 UNK        -0.5000 
    104 N         -6.5048  -24.6607  -53.4582 N.am      19 UNK        -0.5000 
    105 CA        -6.6153  -25.2967  -54.7709 C.3       19 UNK         0.1400 
    106 CB        -6.2023  -26.7726  -54.6503 C.3       19 UNK        -0.1800 
    107 C         -5.7723  -24.5337  -55.8125 C.2       19 UNK         0.5000 
    108 O         -4.6452  -24.9326  -56.1107 O.2       19 UNK        -0.5000 
    109 N         -6.3296  -23.4181  -56.3057 N.am      20 UNK        -0.5000 
    110 CA        -5.7300  -22.4539  -57.2392 C.3       20 UNK         0.1400 
    111 CB        -5.4282  -23.1090  -58.6038 C.3       20 UNK        -0.1800 
    112 C         -4.5171  -21.6996  -56.6481 C.2       20 UNK         0.5000 
    113 O         -3.6389  -21.2567  -57.3913 O.2       20 UNK        -0.5000 
    114 N         -4.5001  -21.5540  -55.3174 N.am      21 UNK        -0.5000 
    115 CA        -3.5147  -20.7783  -54.5664 C.3       21 UNK         0.1400 
    116 CB        -3.4735  -21.3117  -53.1245 C.3       21 UNK        -0.1800 
    117 C         -3.8719  -19.2806  -54.5653 C.2       21 UNK         0.5000 
    118 O         -4.9797  -18.9053  -54.9587 O.2       21 UNK        -0.5000 
    119 N         -2.9431  -18.4591  -54.0598 N.am      22 UNK        -0.5000 
    120 CA        -3.1244  -17.0152  -53.8197 C.3       22 UNK         0.1400 
    121 C         -3.1269  -16.1289  -55.1049 C.2       22 UNK         0.5000 
    122 N         -2.7062  -16.6371  -56.2570 N.am      22 UNK        -0.7600 
    123 O         -3.4870  -14.9559  -55.0610 O.2       22 UNK        -0.5000 
    124 C124       -4.3281  -16.7334  -52.8692 C.3       23 UNK        -0.0398 
    125 S125       -4.0249  -15.3895  -51.6762 S.3       23 UNK        -0.2404 
    126 C126       -3.4500  -16.3238  -50.2227 C.3       23 UNK        -0.0205 
    127 H127        6.6066  -11.3862  -46.1013 H         1 UNK         0.0600 
    128 H128        6.6293  -11.3676  -44.3378 H         1 UNK         0.0600 
    129 H129        5.5912  -10.2408  -45.2132 H         1 UNK         0.0600 
    130 H130        4.4035  -11.8498  -47.1246 H         1 UNK         0.3000 
    131 H131        3.3296  -14.2820  -46.0656 H         1 UNK         0.0600 
    132 H132        2.0042  -12.8025  -48.3697 H         1 UNK         0.0800 
    133 H133        3.6089  -13.4442  -48.5940 H         1 UNK         0.0800 
    134 H134        1.0117  -14.0470  -50.1411 H         1 UNK         0.0800 
    135 H135        2.2404  -15.1513  -50.7170 H         1 UNK         0.0800 
    136 H136       -1.2785  -14.7296  -49.9623 H         1 UNK         0.1150 
    137 H137       -2.3808  -18.8001  -50.7123 H         1 UNK         0.1150 
    138 H138        1.7605  -17.6774  -50.6005 H         1 UNK         0.1150 
    139 H139       -0.7381  -20.5075  -50.8444 H         1 UNK         0.0800 
    140 H140        0.4951  -19.9561  -51.9490 H         1 UNK         0.0800 
    141 H141        0.0114  -19.2615  -48.2007 H         1 UNK         0.0800 
    142 H142        1.5280  -19.7373  -47.5143 H         1 UNK         0.0800 
    143 H143        0.7699  -22.1352  -47.4547 H         1 UNK         0.0600 
    144 H144       -0.0875  -20.0840  -45.7389 H         1 UNK         0.3000 
    145 H145       -1.9040  -22.0271  -43.3557 H         1 UNK         0.0600 
    146 H146       -0.2467  -20.8259  -41.9048 H         1 UNK         0.0600 
    147 H147        0.4622  -22.2240  -42.6994 H         1 UNK         0.0600 
    148 H148        0.8111  -20.6117  -43.3011 H         1 UNK         0.0600 
    149 H149       -1.2798  -19.2253  -43.6736 H         1 UNK         0.3000 
    150 H150       -4.3208  -18.3530  -45.3309 H         1 UNK         0.0600 
    151 H151       -4.8944  -18.5358  -42.9050 H         1 UNK         0.0600 
    152 H152       -4.5094  -16.8810  -43.3493 H         1 UNK         0.0600 
    153 H153       -3.3307  -17.8558  -42.4710 H         1 UNK         0.0600 
    154 H154       -2.1427  -16.7769  -44.3719 H         1 UNK         0.3000 
    155 H155       -0.2442  -16.8323  -47.4084 H         1 UNK         0.0600 
    156 H156       -2.1676  -15.1640  -47.5692 H         1 UNK         0.0600 
    157 H157       -0.6258  -14.4148  -47.1973 H         1 UNK         0.0600 
    158 H158       -1.8198  -14.6550  -45.9257 H         1 UNK         0.0600 
    159 H159        0.4203  -15.3894  -45.1721 H         1 UNK         0.3000 
    160 H160        1.3208  -16.0073  -43.2430 H         1 UNK         0.0600 
    161 H161        2.3677  -18.8526  -42.8741 H         1 UNK         0.0600 
    162 H162        0.8637  -18.2293  -42.2051 H         1 UNK         0.0600 
    163 H163        2.4000  -17.5554  -41.6847 H         1 UNK         0.0600 
    164 H164        3.4260  -15.5902  -43.7813 H         1 UNK         0.3000 
    165 H165        6.1550  -17.4984  -44.6436 H         1 UNK         0.0600 
    166 H166        6.8736  -15.9072  -46.3043 H         1 UNK         0.0600 
    167 H167        5.5397  -16.8170  -46.9929 H         1 UNK         0.0600 
    168 H168        5.2858  -15.1743  -46.4241 H         1 UNK         0.0600 
    169 H169        5.3985  -14.6856  -44.0161 H         1 UNK         0.3000 
    170 H170        6.4575  -15.0726  -40.6008 H         1 UNK         0.0600 
    171 H171        7.0578  -13.2395  -42.9804 H         1 UNK         0.0600 
    172 H172        7.1996  -12.7849  -41.2843 H         1 UNK         0.0600 
    173 H173        8.2339  -14.0397  -41.9511 H         1 UNK         0.0600 
    174 H174        4.6491  -13.3929  -42.2373 H         1 UNK         0.3000 
    175 H175        1.9535  -14.5988  -41.6772 H         1 UNK         0.0600 
    176 H176        0.6272  -13.4707  -39.8781 H         1 UNK         0.0600 
    177 H177        2.0857  -13.3579  -38.8925 H         1 UNK         0.0600 
    178 H178        1.4323  -14.9288  -39.3253 H         1 UNK         0.0600 
    179 H179        2.1451  -12.6201  -42.5938 H         1 UNK         0.3000 
    180 H180        2.2178   -9.4711  -41.5288 H         1 UNK         0.0600 
    181 H181        4.1716   -8.7877  -42.9848 H         1 UNK         0.0600 
    182 H182        4.8876  -10.3803  -42.7223 H         1 UNK         0.0600 
    183 H183        4.6560   -9.2841  -41.3721 H         1 UNK         0.0600 
    184 H184        2.7976  -10.6688  -44.1225 H         1 UNK         0.3000 
    185 H185       -0.4456  -11.6218  -44.9131 H         1 UNK         0.0600 
    186 H186       -0.8703   -9.1827  -45.1907 H         1 UNK         0.0600 
    187 H187        0.7466   -8.9539  -45.8457 H         1 UNK         0.0600 
    188 H188       -0.4395   -9.9189  -46.7257 H         1 UNK         0.0600 
    189 H189        1.9805  -10.9938  -46.4066 H         1 UNK         0.3000 
    190 H190       -2.2654  -20.1778  -47.6063 H         1 UNK         0.3000 
    191 H191       -3.4354  -21.4993  -49.8003 H         1 UNK         0.0600 
    192 H192       -5.5537  -20.4742  -48.9534 H         1 UNK         0.0600 
    193 H193       -4.7609  -20.0725  -47.4346 H         1 UNK         0.0600 
    194 H194       -4.2268  -19.3232  -48.9351 H         1 UNK         0.0600 
    195 H195       -3.7518  -22.2104  -46.2797 H         1 UNK         0.3000 
    196 H196       -5.5449  -24.3814  -46.5049 H         1 UNK         0.0600 
    197 H197       -4.7518  -24.9517  -44.2079 H         1 UNK         0.0600 
    198 H198       -5.0881  -23.2346  -44.3685 H         1 UNK         0.0600 
    199 H199       -3.4235  -23.8103  -44.3721 H         1 UNK         0.0600 
    200 H200       -1.9483  -24.3876  -46.3601 H         1 UNK         0.3000 
    201 H201       -1.5584  -27.1733  -46.5881 H         1 UNK         0.0600 
    202 H202        0.1956  -25.6190  -45.8001 H         1 UNK         0.0600 
    203 H203        0.2706  -24.8458  -47.3825 H         1 UNK         0.0600 
    204 H204        0.7850  -26.5182  -47.1896 H         1 UNK         0.0600 
    205 H205       -1.9308  -24.6843  -49.1078 H         1 UNK         0.3000 
    206 H206       -1.5035  -26.4628  -51.3563 H         1 UNK         0.0600 
    207 H207       -1.0097  -24.0299  -51.4603 H         1 UNK         0.0600 
    208 H208       -2.2107  -24.4747  -52.6616 H         1 UNK         0.0600 
    209 H209       -2.7088  -23.6582  -51.1797 H         1 UNK         0.0600 
    210 H210       -3.1962  -27.7965  -49.7970 H         1 UNK         0.3000 
    211 H211       -5.0933  -28.9387  -49.6058 H         1 UNK         0.0600 
    212 H212       -5.1323  -28.5651  -52.6425 H         1 UNK         0.0600 
    213 H213       -5.9763  -29.8317  -51.7600 H         1 UNK         0.0600 
    214 H214       -4.2220  -29.7846  -51.7590 H         1 UNK         0.0600 
    215 H215       -5.6162  -26.4576  -48.7685 H         1 UNK         0.3000 
    216 H216       -7.1677  -24.9738  -48.2209 H         1 UNK         0.0600 
    217 H217       -9.5425  -25.6449  -48.1648 H         1 UNK         0.0600 
    218 H218       -8.5258  -26.9736  -47.6300 H         1 UNK         0.0600 
    219 H219       -9.2309  -26.9946  -49.2456 H         1 UNK         0.0600 
    220 H220       -5.9193  -24.0711  -50.1537 H         1 UNK         0.3000 
    221 H221       -5.7288  -22.6430  -51.7717 H         1 UNK         0.0600 
    222 H222       -8.6730  -21.9445  -51.3050 H         1 UNK         0.0600 
    223 H223       -7.3210  -21.3340  -50.3550 H         1 UNK         0.0600 
    224 H224       -7.4613  -20.9132  -52.0541 H         1 UNK         0.0600 
    225 H225       -5.8340  -25.0800  -52.8153 H         1 UNK         0.3000 
    226 H226       -7.6591  -25.2726  -55.0914 H         1 UNK         0.0600 
    227 H227       -6.8315  -27.2979  -53.9316 H         1 UNK         0.0600 
    228 H228       -6.3014  -27.2851  -55.6078 H         1 UNK         0.0600 
    229 H229       -5.1656  -26.8755  -54.3282 H         1 UNK         0.0600 
    230 H230       -7.2311  -23.1516  -55.9259 H         1 UNK         0.3000 
    231 H231       -6.4929  -21.6928  -57.4090 H         1 UNK         0.0600 
    232 H232       -4.6104  -23.8271  -58.5388 H         1 UNK         0.0600 
    233 H233       -5.1434  -22.3590  -59.3425 H         1 UNK         0.0600 
    234 H234       -6.3028  -23.6296  -58.9938 H         1 UNK         0.0600 
    235 H235       -5.2897  -21.9048  -54.7981 H         1 UNK         0.3000 
    236 H236       -2.5313  -20.9106  -55.0225 H         1 UNK         0.0600 
    237 H237       -3.4316  -22.3999  -53.1086 H         1 UNK         0.0600 
    238 H238       -2.5945  -20.9445  -52.5942 H         1 UNK         0.0600 
    239 H239       -4.3490  -20.9985  -52.5553 H         1 UNK         0.0600 
    240 H240       -2.0519  -18.8386  -53.7748 H         1 UNK         0.3000 
    241 H241       -2.2134  -16.7221  -53.2972 H         1 UNK         0.0600 
    242 H242       -2.4041  -17.5964  -56.3154 H         1 UNK         0.3800 
    243 H243       -2.7011  -16.0583  -57.0824 H         1 UNK         0.3800 
    244 H244       -5.2283  -16.4991  -53.4400 H         1 UNK         0.0800 
    245 H245       -4.5836  -17.6263  -52.2976 H         1 UNK         0.0800 
    246 H246       -3.5786  -15.6988  -49.3392 H         1 UNK         0.0800 
    247 H247       -4.0812  -17.1980  -50.0612 H         1 UNK         0.0800 
@<TRIPOS>BOND
     1    1    2 1    
     2    1  127 1    
     3    1  128 1    
     4    1  129 1    
     5    2    3 2    
     6    2    4 am   BACKBONE|DICT|INTERRES
     7    4    5 1    
     8    4  130 1    
     9    5    6 1    
    10    5   65 1    
    11    5  131 1    
    12    6    7 1    
    13    6  132 1    
    14    6  133 1    
    15    7    8 1    
    16    8    9 1    
    17    8  134 1    
    18    8  135 1    
    19    9   10 ar   
    20    9   14 ar   
    21   10   11 ar   
    22   10  136 1    
    23   11   12 ar   
    24   11  126 1    
    25   12   13 ar   
    26   12  137 1    
    27   13   14 ar   
    28   13   15 1    
    29   14  138 1    
    30   15   16 1    
    31   15  139 1    
    32   15  140 1    
    33   16   17 1    
    34   17   18 1    
    35   17  141 1    
    36   17  142 1    
    37   18   19 1    
    38   18   67 1    
    39   18  143 1    
    40   19   20 am   BACKBONE|DICT|INTERRES
    41   19  144 1    
    42   20   21 2    
    43   20   22 1    
    44   22   23 1    
    45   22   24 1    
    46   22  145 1    
    47   23  146 1    
    48   23  147 1    
    49   23  148 1    
    50   24   25 am   BACKBONE|DICT|INTERRES
    51   24  149 1    
    52   25   26 2    
    53   25   27 1    
    54   27   28 1    
    55   27   29 1    
    56   27  150 1    
    57   28  151 1    
    58   28  152 1    
    59   28  153 1    
    60   29   30 am   BACKBONE|DICT|INTERRES
    61   29  154 1    
    62   30   31 2    
    63   30   32 1    
    64   32   33 1    
    65   32   34 1    
    66   32  155 1    
    67   33  156 1    
    68   33  157 1    
    69   33  158 1    
    70   34   35 am   BACKBONE|DICT|INTERRES
    71   34  159 1    
    72   35   36 2    
    73   35   37 1    
    74   37   38 1    
    75   37   39 1    
    76   37  160 1    
    77   38  161 1    
    78   38  162 1    
    79   38  163 1    
    80   39   40 am   BACKBONE|DICT|INTERRES
    81   39  164 1    
    82   40   41 2    
    83   40   42 1    
    84   42   43 1    
    85   42   44 1    
    86   42  165 1    
    87   43  166 1    
    88   43  167 1    
    89   43  168 1    
    90   44   45 am   BACKBONE|DICT|INTERRES
    91   44  169 1    
    92   45   46 2    
    93   45   47 1    
    94   47   48 1    
    95   47   49 1    
    96   47  170 1    
    97   48  171 1    
    98   48  172 1    
    99   48  173 1    
   100   49   50 am   BACKBONE|DICT|INTERRES
   101   49  174 1    
   102   50   51 2    
   103   50   52 1    
   104   52   53 1    
   105   52   54 1    
   106   52  175 1    
   107   53  176 1    
   108   53  177 1    
   109   53  178 1    
   110   54   55 am   BACKBONE|DICT|INTERRES
   111   54  179 1    
   112   55   56 2    
   113   55   57 1    
   114   57   58 1    
   115   57   59 1    
   116   57  180 1    
   117   58  181 1    
   118   58  182 1    
   119   58  183 1    
   120   59   60 am   BACKBONE|DICT|INTERRES
   121   59  184 1    
   122   60   61 2    
   123   60   62 1    
   124   62   63 1    
   125   62   64 1    
   126   62  185 1    
   127   63  186 1    
   128   63  187 1    
   129   63  188 1    
   130   64   65 am   BACKBONE|DICT|INTERRES
   131   64  189 1    
   132   65   66 2    
   133   67   68 2    
   134   67   69 am   BACKBONE|DICT|INTERRES
   135   69   70 1    
   136   69  190 1    
   137   70   71 1    
   138   70   72 1    
   139   70  191 1    
   140   71  192 1    
   141   71  193 1    
   142   71  194 1    
   143   72   73 2    
   144   72   74 am   BACKBONE|DICT|INTERRES
   145   74   75 1    
   146   74  195 1    
   147   75   76 1    
   148   75   77 1    
   149   75  196 1    
   150   76  197 1    
   151   76  198 1    
   152   76  199 1    
   153   77   78 2    
   154   77   79 am   BACKBONE|DICT|INTERRES
   155   79   80 1    
   156   79  200 1    
   157   80   81 1    
   158   80   82 1    
   159   80  201 1    
   160   81  202 1    
   161   81  203 1    
   162   81  204 1    
   163   82   83 2    
   164   82   84 am   BACKBONE|DICT|INTERRES
   165   84   85 1    
   166   84  205 1    
   167   85   86 1    
   168   85   87 1    
   169   85  206 1    
   170   86  207 1    
   171   86  208 1    
   172   86  209 1    
   173   87   88 2    
   174   87   89 am   BACKBONE|DICT|INTERRES
   175   89   90 1    
   176   89  210 1    
   177   90   91 1    
   178   90   92 1    
   179   90  211 1    
   180   91  212 1    
   181   91  213 1    
   182   91  214 1    
   183   92   93 2    
   184   92   94 am   BACKBONE|DICT|INTERRES
   185   94   95 1    
   186   94  215 1    
   187   95   96 1    
   188   95   97 1    
   189   95  216 1    
   190   96  217 1    
   191   96  218 1    
   192   96  219 1    
   193   97   98 2    
   194   97   99 am   BACKBONE|DICT|INTERRES
   195   99  100 1    
   196   99  220 1    
   197  100  101 1    
   198  100  102 1    
   199  100  221 1    
   200  101  222 1    
   201  101  223 1    
   202  101  224 1    
   203  102  103 2    
   204  102  104 am   BACKBONE|DICT|INTERRES
   205  104  105 1    
   206  104  225 1    
   207  105  106 1    
   208  105  107 1    
   209  105  226 1    
   210  106  227 1    
   211  106  228 1    
   212  106  229 1    
   213  107  108 2    
   214  107  109 am   BACKBONE|DICT|INTERRES
   215  109  110 1    
   216  109  230 1    
   217  110  111 1    
   218  110  112 1    
   219  110  231 1    
   220  111  232 1    
   221  111  233 1    
   222  111  234 1    
   223  112  113 2    
   224  112  114 am   BACKBONE|DICT|INTERRES
   225  114  115 1    
   226  114  235 1    
   227  115  116 1    
   228  115  117 1    
   229  115  236 1    
   230  116  237 1    
   231  116  238 1    
   232  116  239 1    
   233  117  118 2    
   234  117  119 am   BACKBONE|DICT|INTERRES
   235  119  120 1    
   236  119  240 1    
   237  120  121 1    
   238  120  124 1    
   239  120  241 1    
   240  121  122 am   BACKBONE|DICT|INTERRES
   241  121  123 2    
   242  122  242 1    
   243  122  243 1    
   244  124  125 1    
   245  124  244 1    
   246  124  245 1    
   247  125  126 1    
   248  126  246 1    
   249  126  247 1    
@<TRIPOS>SUBSTRUCTURE
     1 UNK         1 GROUP             0       ****    0 ROOT    
