@<TRIPOS>MOLECULE
3R540
247   249    1
SMALL
USER_CHARGES


@<TRIPOS>ATOM
      1 CA         -5.1437  -14.5261  -50.7244 C.3       0 UNK        -0.1800 
      2 C          -4.0458  -14.3210  -49.6927 C.2       0 UNK         0.5000 
      3 O          -4.0473  -13.3106  -48.9899 O.2       0 UNK        -0.5000 
      4 N          -3.1187  -15.2820  -49.5838 N.am      1 UNK        -0.5000 
      5 CA         -2.0119  -15.2829  -48.6132 C.3       1 UNK         0.1400 
      6 C6         -1.0597  -16.4890  -48.7937 C.3       23 UNK        -0.0398 
      7 S7         -0.2114  -16.4906  -50.4078 S.3       23 UNK        -0.2404 
      8 C8          1.5242  -16.7834  -49.9324 C.3       23 UNK        -0.0205 
      9 C9          2.0762  -18.0487  -50.5701 C.ar      23 UNK        -0.0193 
     10 C10         2.8959  -17.9618  -51.6974 C.ar      23 UNK        -0.1150 
     11 C11         3.4341  -19.1132  -52.2768 C.ar      23 UNK        -0.0193 
     12 C12         3.1452  -20.3618  -51.7187 C.ar      23 UNK        -0.1150 
     13 C13         2.3306  -20.4685  -50.5854 C.ar      23 UNK        -0.0193 
     14 C14         1.7933  -19.3041  -50.0210 C.ar      23 UNK        -0.1150 
     15 C15         2.0295  -21.8495  -50.0061 C.3       23 UNK        -0.0205 
     16 S16         2.2173  -21.9386  -48.1932 S.3       23 UNK        -0.2404 
     17 C17         0.4902  -21.7627  -47.6236 C.3       23 UNK        -0.0398 
     18 CA         -0.0782  -23.0987  -47.0859 C.3       11 UNK         0.1400 
     19 N           0.7049  -23.6240  -45.9630 N.am      11 UNK        -0.5000 
     20 C           0.6377  -24.8857  -45.5147 C.2       10 UNK         0.5000 
     21 O          -0.0965  -25.7425  -46.0048 O.2       10 UNK        -0.5000 
     22 CA          1.4900  -25.2364  -44.2784 C.3       10 UNK         0.1400 
     23 CB          2.8986  -25.6737  -44.7055 C.3       10 UNK        -0.1800 
     24 N           1.5993  -24.1331  -43.3224 N.am      10 UNK        -0.5000 
     25 C           0.5643  -23.5350  -42.7161 C.2       9 UNK         0.5000 
     26 O          -0.5993  -23.9174  -42.8313 O.2       9 UNK        -0.5000 
     27 CA          0.8598  -22.2671  -41.8909 C.3       9 UNK         0.1400 
     28 CB          0.8655  -22.5965  -40.3910 C.3       9 UNK        -0.1800 
     29 N           2.1135  -21.5864  -42.2367 N.am      9 UNK        -0.5000 
     30 C           2.4304  -21.0840  -43.4382 C.2       8 UNK         0.5000 
     31 O           1.7145  -21.1848  -44.4393 O.2       8 UNK        -0.5000 
     32 CA          3.8023  -20.4048  -43.5366 C.3       8 UNK         0.1400 
     33 CB          4.9335  -21.4487  -43.5373 C.3       8 UNK        -0.1800 
     34 N           3.8711  -19.6225  -44.7645 N.am      8 UNK        -0.5000 
     35 C           4.5600  -18.4879  -44.9241 C.2       7 UNK         0.5000 
     36 O           5.2239  -17.9626  -44.0280 O.2       7 UNK        -0.5000 
     37 CA          4.5447  -17.8308  -46.3207 C.3       7 UNK         0.1400 
     38 CB          3.7968  -18.6389  -47.4003 C.3       7 UNK        -0.1800 
     39 N           4.0644  -16.4464  -46.2823 N.am      7 UNK        -0.5000 
     40 C           2.8700  -16.0134  -45.8554 C.2       6 UNK         0.5000 
     41 O           1.9606  -16.7470  -45.4610 O.2       6 UNK        -0.5000 
     42 CA          2.6461  -14.4917  -45.9330 C.3       6 UNK         0.1400 
     43 CB          1.9627  -14.1100  -47.2557 C.3       6 UNK        -0.1800 
     44 N           1.8330  -13.9919  -44.8270 N.am      6 UNK        -0.5000 
     45 C           2.2246  -13.9187  -43.5473 C.2       5 UNK         0.5000 
     46 O           3.3402  -14.2719  -43.1613 O.2       5 UNK        -0.5000 
     47 CA          1.2196  -13.3072  -42.5452 C.3       5 UNK         0.1400 
     48 CB          1.9248  -12.5948  -41.3764 C.3       5 UNK        -0.1800 
     49 N           0.3324  -12.3485  -43.2106 N.am      5 UNK        -0.5000 
     50 C          -0.9194  -12.6009  -43.6079 C.2       4 UNK         0.5000 
     51 O          -1.5143  -13.6498  -43.3500 O.2       4 UNK        -0.5000 
     52 CA         -1.5984  -11.5010  -44.4467 C.3       4 UNK         0.1400 
     53 CB         -0.7121  -11.0452  -45.6226 C.3       4 UNK        -0.1800 
     54 N          -2.8489  -12.0105  -44.9961 N.am      4 UNK        -0.5000 
     55 C          -4.0569  -11.4479  -44.8751 C.2       3 UNK         0.5000 
     56 O          -4.2551  -10.3739  -44.3049 O.2       3 UNK        -0.5000 
     57 CA         -5.2521  -12.2005  -45.4999 C.3       3 UNK         0.1400 
     58 CB         -5.7775  -11.4514  -46.7344 C.3       3 UNK        -0.1800 
     59 N          -4.9222  -13.5768  -45.8797 N.am      3 UNK        -0.5000 
     60 C          -4.8024  -14.5899  -45.0086 C.2       2 UNK         0.5000 
     61 O          -5.0813  -14.4879  -43.8133 O.2       2 UNK        -0.5000 
     62 CA         -4.2737  -15.9381  -45.5405 C.3       2 UNK         0.1400 
     63 CB         -5.4022  -16.9812  -45.5813 C.3       2 UNK        -0.1800 
     64 N          -3.6428  -15.8669  -46.8612 N.am      2 UNK        -0.5000 
     65 C          -2.4993  -15.2272  -47.1488 C.2       1 UNK         0.5000 
     66 O          -1.8487  -14.5870  -46.3237 O.2       1 UNK        -0.5000 
     67 C          -1.5689  -22.9531  -46.7167 C.2       11 UNK         0.5000 
     68 O          -2.4275  -23.1244  -47.5837 O.2       11 UNK        -0.5000 
     69 N          -1.8553  -22.6562  -45.4412 N.am      12 UNK        -0.5000 
     70 CA         -3.2093  -22.5978  -44.8923 C.3       12 UNK         0.1400 
     71 CB         -3.2191  -21.7491  -43.6124 C.3       12 UNK        -0.1800 
     72 C          -3.7798  -24.0027  -44.6426 C.2       12 UNK         0.5000 
     73 O          -4.9436  -24.2422  -44.9609 O.2       12 UNK        -0.5000 
     74 N          -2.9435  -24.9207  -44.1368 N.am      13 UNK        -0.5000 
     75 CA         -3.2749  -26.3338  -43.9293 C.3       13 UNK         0.1400 
     76 CB         -2.1257  -27.0240  -43.1800 C.3       13 UNK        -0.1800 
     77 C          -3.5923  -27.0737  -45.2437 C.2       13 UNK         0.5000 
     78 O          -4.5076  -27.8966  -45.2750 O.2       13 UNK        -0.5000 
     79 N          -2.8620  -26.7308  -46.3138 N.am      14 UNK        -0.5000 
     80 CA         -3.1000  -27.1964  -47.6819 C.3       14 UNK         0.1400 
     81 CB         -1.8331  -26.9364  -48.5133 C.3       14 UNK        -0.1800 
     82 C          -4.3195  -26.5346  -48.3588 C.2       14 UNK         0.5000 
     83 O          -4.7228  -26.9859  -49.4310 O.2       14 UNK        -0.5000 
     84 N          -4.8569  -25.4655  -47.7494 N.am      15 UNK        -0.5000 
     85 CA         -5.9414  -24.5992  -48.2294 C.3       15 UNK         0.1400 
     86 CB         -7.2611  -25.3841  -48.3758 C.3       15 UNK        -0.1800 
     87 C          -5.5801  -23.7965  -49.4982 C.2       15 UNK         0.5000 
     88 O          -6.4721  -23.2848  -50.1759 O.2       15 UNK        -0.5000 
     89 N          -4.2778  -23.6699  -49.7836 N.am      16 UNK        -0.5000 
     90 CA         -3.7320  -22.9014  -50.8990 C.3       16 UNK         0.1400 
     91 CB         -2.2885  -23.3593  -51.1614 C.3       16 UNK        -0.1800 
     92 C          -3.7815  -21.3921  -50.6151 C.2       16 UNK         0.5000 
     93 O          -4.0607  -20.6090  -51.5228 O.2       16 UNK        -0.5000 
     94 N          -3.5487  -21.0187  -49.3470 N.am      17 UNK        -0.5000 
     95 CA         -3.5036  -19.6373  -48.8590 C.3       17 UNK         0.1400 
     96 CB         -2.9467  -19.6209  -47.4272 C.3       17 UNK        -0.1800 
     97 C          -4.8401  -18.8744  -48.9255 C.2       17 UNK         0.5000 
     98 O          -4.8448  -17.6611  -48.7221 O.2       17 UNK        -0.5000 
     99 N          -5.9415  -19.5740  -49.2272 N.am      18 UNK        -0.5000 
    100 CA        -7.2387  -18.9793  -49.5530 C.3       18 UNK         0.1400 
    101 CB        -8.2964  -20.0932  -49.5805 C.3       18 UNK        -0.1800 
    102 C         -7.2290  -18.2047  -50.8901 C.2       18 UNK         0.5000 
    103 O         -8.1145  -17.3784  -51.1136 O.2       18 UNK        -0.5000 
    104 N         -6.2343  -18.4788  -51.7430 N.am      19 UNK        -0.5000 
    105 CA        -5.9604  -17.7925  -52.9986 C.3       19 UNK         0.1400 
    106 CB        -6.2822  -18.7559  -54.1577 C.3       19 UNK        -0.1800 
    107 C         -4.4931  -17.3188  -53.0076 C.2       19 UNK         0.5000 
    108 O         -3.8597  -17.2292  -51.9520 O.2       19 UNK        -0.5000 
    109 N         -3.9725  -17.0209  -54.2063 N.am      20 UNK        -0.5000 
    110 CA        -2.5881  -16.5980  -54.4494 C.3       20 UNK         0.1400 
    111 CB        -2.4706  -16.1062  -55.9007 C.3       20 UNK        -0.1800 
    112 C         -1.5340  -17.6888  -54.1622 C.2       20 UNK         0.5000 
    113 O         -0.3513  -17.3651  -54.0646 O.2       20 UNK        -0.5000 
    114 N         -1.9826  -18.9480  -54.0440 N.am      21 UNK        -0.5000 
    115 CA        -1.2819  -20.1477  -53.5687 C.3       21 UNK         0.1400 
    116 CB        -0.7624  -19.9259  -52.1411 C.3       21 UNK        -0.1800 
    117 C         -0.1611  -20.6956  -54.4744 C.2       21 UNK         0.5000 
    118 O          0.1164  -21.8942  -54.4136 O.2       21 UNK        -0.5000 
    119 N          0.4453  -19.8477  -55.3055 N.am      22 UNK        -0.5000 
    120 CA         1.5035  -20.1908  -56.2586 C.3       22 UNK         0.1400 
    121 C          1.4234  -19.3216  -57.5450 C.2       22 UNK         0.5000 
    122 N          2.1917  -19.6543  -58.5741 N.am      22 UNK        -0.7600 
    123 O          0.6704  -18.3528  -57.6308 O.2       22 UNK        -0.5000 
    124 C124        2.9080  -20.1986  -55.5932 C.3       23 UNK        -0.0398 
    125 S125        3.4745  -18.5620  -55.0050 S.3       23 UNK        -0.2404 
    126 C126        4.3635  -18.9929  -53.4759 C.3       23 UNK        -0.0205 
    127 H127       -5.9343  -13.7859  -50.6009 H         1 UNK         0.0600 
    128 H128       -5.5891  -15.5150  -50.6156 H         1 UNK         0.0600 
    129 H129       -4.7399  -14.4318  -51.7322 H         1 UNK         0.0600 
    130 H130       -3.1850  -16.0909  -50.1930 H         1 UNK         0.3000 
    131 H131       -1.4366  -14.3708  -48.7858 H         1 UNK         0.0600 
    132 H132       -1.6059  -17.4234  -48.7013 H         1 UNK         0.0800 
    133 H133       -0.3201  -16.5035  -47.9921 H         1 UNK         0.0800 
    134 H134        2.1150  -15.9187  -50.2376 H         1 UNK         0.0800 
    135 H135        1.6426  -16.8547  -48.8514 H         1 UNK         0.0800 
    136 H136        3.1209  -16.9952  -52.1257 H         1 UNK         0.1150 
    137 H137        3.5634  -21.2530  -52.1649 H         1 UNK         0.1150 
    138 H138        1.1563  -19.3685  -49.1514 H         1 UNK         0.1150 
    139 H139        1.0288  -22.1626  -50.3038 H         1 UNK         0.0800 
    140 H140        2.7100  -22.5860  -50.4360 H         1 UNK         0.0800 
    141 H141       -0.1249  -21.3847  -48.4421 H         1 UNK         0.0800 
    142 H142        0.4664  -20.9946  -46.8486 H         1 UNK         0.0800 
    143 H143       -0.0274  -23.8290  -47.8967 H         1 UNK         0.0600 
    144 H144        1.3018  -22.9569  -45.4866 H         1 UNK         0.3000 
    145 H145        1.0101  -26.0732  -43.7680 H         1 UNK         0.0600 
    146 H146        3.4878  -26.0005  -43.8485 H         1 UNK         0.0600 
    147 H147        2.8522  -26.5099  -45.4045 H         1 UNK         0.0600 
    148 H148        3.4399  -24.8641  -45.1973 H         1 UNK         0.0600 
    149 H149        2.5217  -23.7540  -43.1705 H         1 UNK         0.3000 
    150 H150        0.0448  -21.5664  -42.0832 H         1 UNK         0.0600 
    151 H151        1.6820  -23.2712  -40.1307 H         1 UNK         0.0600 
    152 H152       -0.0666  -23.0787  -40.0925 H         1 UNK         0.0600 
    153 H153        0.9686  -21.6940  -39.7882 H         1 UNK         0.0600 
    154 H154        2.7728  -21.4732  -41.4800 H         1 UNK         0.3000 
    155 H155        3.9109  -19.7464  -42.6721 H         1 UNK         0.0600 
    156 H156        4.8460  -22.1338  -44.3818 H         1 UNK         0.0600 
    157 H157        4.9238  -22.0464  -42.6252 H         1 UNK         0.0600 
    158 H158        5.9111  -20.9700  -43.5968 H         1 UNK         0.0600 
    159 H159        3.2787  -19.9601  -45.5126 H         1 UNK         0.3000 
    160 H160        5.5897  -17.7785  -46.6297 H         1 UNK         0.0600 
    161 H161        2.7309  -18.7278  -47.1884 H         1 UNK         0.0600 
    162 H162        4.2049  -19.6456  -47.4964 H         1 UNK         0.0600 
    163 H163        3.9061  -18.1633  -48.3741 H         1 UNK         0.0600 
    164 H164        4.7450  -15.7552  -46.5644 H         1 UNK         0.3000 
    165 H165        3.6159  -13.9913  -45.8896 H         1 UNK         0.0600 
    166 H166        1.8560  -13.0289  -47.3470 H         1 UNK         0.0600 
    167 H167        2.5464  -14.4506  -48.1116 H         1 UNK         0.0600 
    168 H168        0.9688  -14.5508  -47.3362 H         1 UNK         0.0600 
    169 H169        0.8817  -13.7388  -45.0484 H         1 UNK         0.3000 
    170 H170        0.6427  -14.1361  -42.1304 H         1 UNK         0.0600 
    171 H171        2.5435  -13.2894  -40.8069 H         1 UNK         0.0600 
    172 H172        2.5704  -11.7887  -41.7270 H         1 UNK         0.0600 
    173 H173        1.2008  -12.1671  -40.6827 H         1 UNK         0.0600 
    174 H174        0.7553  -11.4685  -43.4705 H         1 UNK         0.3000 
    175 H175       -1.7834  -10.6524  -43.7853 H         1 UNK         0.0600 
    176 H176        0.2073  -10.5720  -45.2770 H         1 UNK         0.0600 
    177 H177       -0.4347  -11.8830  -46.2642 H         1 UNK         0.0600 
    178 H178       -1.2311  -10.3132  -46.2418 H         1 UNK         0.0600 
    179 H179       -2.7777  -12.9314  -45.4164 H         1 UNK         0.3000 
    180 H180       -6.0509  -12.2250  -44.7557 H         1 UNK         0.0600 
    181 H181       -5.0010  -11.3264  -47.4895 H         1 UNK         0.0600 
    182 H182       -6.1314  -10.4558  -46.4640 H         1 UNK         0.0600 
    183 H183       -6.6130  -11.9796  -47.1942 H         1 UNK         0.0600 
    184 H184       -4.6633  -13.7279  -46.8474 H         1 UNK         0.3000 
    185 H185       -3.5177  -16.2829  -44.8321 H         1 UNK         0.0600 
    186 H186       -5.8962  -17.0664  -44.6126 H         1 UNK         0.0600 
    187 H187       -6.1634  -16.7189  -46.3172 H         1 UNK         0.0600 
    188 H188       -5.0187  -17.9695  -45.8334 H         1 UNK         0.0600 
    189 H189       -4.1172  -16.3679  -47.6108 H         1 UNK         0.3000 
    190 H190       -1.0948  -22.5673  -44.7827 H         1 UNK         0.3000 
    191 H191       -3.8624  -22.1123  -45.6189 H         1 UNK         0.0600 
    192 H192       -2.8542  -20.7405  -43.8073 H         1 UNK         0.0600 
    193 H193       -4.2309  -21.6575  -43.2158 H         1 UNK         0.0600 
    194 H194       -2.5999  -22.1841  -42.8281 H         1 UNK         0.0600 
    195 H195       -2.0191  -24.6214  -43.8372 H         1 UNK         0.3000 
    196 H196       -4.1662  -26.3758  -43.3000 H         1 UNK         0.0600 
    197 H197       -2.3763  -28.0607  -42.9523 H         1 UNK         0.0600 
    198 H198       -1.9130  -26.5242  -42.2347 H         1 UNK         0.0600 
    199 H199       -1.2091  -27.0307  -43.7695 H         1 UNK         0.0600 
    200 H200       -2.0667  -26.1141  -46.1805 H         1 UNK         0.3000 
    201 H201       -3.2811  -28.2729  -47.6574 H         1 UNK         0.0600 
    202 H202       -1.9514  -27.2956  -49.5364 H         1 UNK         0.0600 
    203 H203       -0.9706  -27.4501  -48.0884 H         1 UNK         0.0600 
    204 H204       -1.5976  -25.8725  -48.5637 H         1 UNK         0.0600 
    205 H205       -4.4680  -25.1935  -46.8554 H         1 UNK         0.3000 
    206 H206       -6.0930  -23.8548  -47.4470 H         1 UNK         0.0600 
    207 H207       -7.4925  -25.9378  -47.4658 H         1 UNK         0.0600 
    208 H208       -8.0975  -24.7105  -48.5653 H         1 UNK         0.0600 
    209 H209       -7.2230  -26.0945  -49.2018 H         1 UNK         0.0600 
    210 H210       -3.6089  -24.0416  -49.1208 H         1 UNK         0.3000 
    211 H211       -4.3277  -23.1024  -51.7919 H         1 UNK         0.0600 
    212 H212       -1.6331  -23.1422  -50.3170 H         1 UNK         0.0600 
    213 H213       -1.8731  -22.8614  -52.0375 H         1 UNK         0.0600 
    214 H214       -2.2446  -24.4321  -51.3502 H         1 UNK         0.0600 
    215 H215       -3.3250  -21.7459  -48.6748 H         1 UNK         0.3000 
    216 H216       -2.8131  -19.0988  -49.5083 H         1 UNK         0.0600 
    217 H217       -2.8609  -18.6047  -47.0431 H         1 UNK         0.0600 
    218 H218       -1.9522  -20.0607  -47.3819 H         1 UNK         0.0600 
    219 H219       -3.5949  -20.1661  -46.7434 H         1 UNK         0.0600 
    220 H220       -5.8478  -20.5667  -49.3846 H         1 UNK         0.3000 
    221 H221       -7.5001  -18.2721  -48.7630 H         1 UNK         0.0600 
    222 H222       -8.0774  -20.8355  -50.3494 H         1 UNK         0.0600 
    223 H223       -8.3516  -20.6098  -48.6221 H         1 UNK         0.0600 
    224 H224       -9.2872  -19.6871  -49.7882 H         1 UNK         0.0600 
    225 H225       -5.5155  -19.1371  -51.4589 H         1 UNK         0.3000 
    226 H226       -6.5842  -16.9015  -53.0915 H         1 UNK         0.0600 
    227 H227       -6.2022  -18.2636  -55.1271 H         1 UNK         0.0600 
    228 H228       -5.6119  -19.6167  -54.1613 H         1 UNK         0.0600 
    229 H229       -7.3023  -19.1328  -54.0792 H         1 UNK         0.0600 
    230 H230       -4.5585  -17.1107  -55.0235 H         1 UNK         0.3000 
    231 H231       -2.3715  -15.7600  -53.7834 H         1 UNK         0.0600 
    232 H232       -2.6915  -16.9016  -56.6137 H         1 UNK         0.0600 
    233 H233       -1.4617  -15.7491  -56.1125 H         1 UNK         0.0600 
    234 H234       -3.1534  -15.2788  -56.0949 H         1 UNK         0.0600 
    235 H235       -2.9728  -19.0784  -54.1882 H         1 UNK         0.3000 
    236 H236       -2.0463  -20.9242  -53.5238 H         1 UNK         0.0600 
    237 H237       -1.5387  -19.5319  -51.4873 H         1 UNK         0.0600 
    238 H238       -0.4006  -20.8560  -51.7053 H         1 UNK         0.0600 
    239 H239        0.0612  -19.2143  -52.1383 H         1 UNK         0.0600 
    240 H240        0.1929  -18.8653  -55.2687 H         1 UNK         0.3000 
    241 H241        1.3016  -21.2062  -56.6050 H         1 UNK         0.0600 
    242 H242        2.1478  -19.0982  -59.4142 H         1 UNK         0.3800 
    243 H243        2.8131  -20.4476  -58.5411 H         1 UNK         0.3800 
    244 H244        3.6547  -20.5863  -56.2872 H         1 UNK         0.0800 
    245 H245        2.9013  -20.8960  -54.7547 H         1 UNK         0.0800 
    246 H246        4.9335  -19.9112  -53.6253 H         1 UNK         0.0800 
    247 H247        5.0989  -18.2133  -53.2723 H         1 UNK         0.0800 
@<TRIPOS>BOND
     1    1    2 1    
     2    1  127 1    
     3    1  128 1    
     4    1  129 1    
     5    2    3 2    
     6    2    4 am   BACKBONE|DICT|INTERRES
     7    4    5 1    
     8    4  130 1    
     9    5    6 1    
    10    5   65 1    
    11    5  131 1    
    12    6    7 1    
    13    6  132 1    
    14    6  133 1    
    15    7    8 1    
    16    8    9 1    
    17    8  134 1    
    18    8  135 1    
    19    9   10 ar   
    20    9   14 ar   
    21   10   11 ar   
    22   10  136 1    
    23   11   12 ar   
    24   11  126 1    
    25   12   13 ar   
    26   12  137 1    
    27   13   14 ar   
    28   13   15 1    
    29   14  138 1    
    30   15   16 1    
    31   15  139 1    
    32   15  140 1    
    33   16   17 1    
    34   17   18 1    
    35   17  141 1    
    36   17  142 1    
    37   18   19 1    
    38   18   67 1    
    39   18  143 1    
    40   19   20 am   BACKBONE|DICT|INTERRES
    41   19  144 1    
    42   20   21 2    
    43   20   22 1    
    44   22   23 1    
    45   22   24 1    
    46   22  145 1    
    47   23  146 1    
    48   23  147 1    
    49   23  148 1    
    50   24   25 am   BACKBONE|DICT|INTERRES
    51   24  149 1    
    52   25   26 2    
    53   25   27 1    
    54   27   28 1    
    55   27   29 1    
    56   27  150 1    
    57   28  151 1    
    58   28  152 1    
    59   28  153 1    
    60   29   30 am   BACKBONE|DICT|INTERRES
    61   29  154 1    
    62   30   31 2    
    63   30   32 1    
    64   32   33 1    
    65   32   34 1    
    66   32  155 1    
    67   33  156 1    
    68   33  157 1    
    69   33  158 1    
    70   34   35 am   BACKBONE|DICT|INTERRES
    71   34  159 1    
    72   35   36 2    
    73   35   37 1    
    74   37   38 1    
    75   37   39 1    
    76   37  160 1    
    77   38  161 1    
    78   38  162 1    
    79   38  163 1    
    80   39   40 am   BACKBONE|DICT|INTERRES
    81   39  164 1    
    82   40   41 2    
    83   40   42 1    
    84   42   43 1    
    85   42   44 1    
    86   42  165 1    
    87   43  166 1    
    88   43  167 1    
    89   43  168 1    
    90   44   45 am   BACKBONE|DICT|INTERRES
    91   44  169 1    
    92   45   46 2    
    93   45   47 1    
    94   47   48 1    
    95   47   49 1    
    96   47  170 1    
    97   48  171 1    
    98   48  172 1    
    99   48  173 1    
   100   49   50 am   BACKBONE|DICT|INTERRES
   101   49  174 1    
   102   50   51 2    
   103   50   52 1    
   104   52   53 1    
   105   52   54 1    
   106   52  175 1    
   107   53  176 1    
   108   53  177 1    
   109   53  178 1    
   110   54   55 am   BACKBONE|DICT|INTERRES
   111   54  179 1    
   112   55   56 2    
   113   55   57 1    
   114   57   58 1    
   115   57   59 1    
   116   57  180 1    
   117   58  181 1    
   118   58  182 1    
   119   58  183 1    
   120   59   60 am   BACKBONE|DICT|INTERRES
   121   59  184 1    
   122   60   61 2    
   123   60   62 1    
   124   62   63 1    
   125   62   64 1    
   126   62  185 1    
   127   63  186 1    
   128   63  187 1    
   129   63  188 1    
   130   64   65 am   BACKBONE|DICT|INTERRES
   131   64  189 1    
   132   65   66 2    
   133   67   68 2    
   134   67   69 am   BACKBONE|DICT|INTERRES
   135   69   70 1    
   136   69  190 1    
   137   70   71 1    
   138   70   72 1    
   139   70  191 1    
   140   71  192 1    
   141   71  193 1    
   142   71  194 1    
   143   72   73 2    
   144   72   74 am   BACKBONE|DICT|INTERRES
   145   74   75 1    
   146   74  195 1    
   147   75   76 1    
   148   75   77 1    
   149   75  196 1    
   150   76  197 1    
   151   76  198 1    
   152   76  199 1    
   153   77   78 2    
   154   77   79 am   BACKBONE|DICT|INTERRES
   155   79   80 1    
   156   79  200 1    
   157   80   81 1    
   158   80   82 1    
   159   80  201 1    
   160   81  202 1    
   161   81  203 1    
   162   81  204 1    
   163   82   83 2    
   164   82   84 am   BACKBONE|DICT|INTERRES
   165   84   85 1    
   166   84  205 1    
   167   85   86 1    
   168   85   87 1    
   169   85  206 1    
   170   86  207 1    
   171   86  208 1    
   172   86  209 1    
   173   87   88 2    
   174   87   89 am   BACKBONE|DICT|INTERRES
   175   89   90 1    
   176   89  210 1    
   177   90   91 1    
   178   90   92 1    
   179   90  211 1    
   180   91  212 1    
   181   91  213 1    
   182   91  214 1    
   183   92   93 2    
   184   92   94 am   BACKBONE|DICT|INTERRES
   185   94   95 1    
   186   94  215 1    
   187   95   96 1    
   188   95   97 1    
   189   95  216 1    
   190   96  217 1    
   191   96  218 1    
   192   96  219 1    
   193   97   98 2    
   194   97   99 am   BACKBONE|DICT|INTERRES
   195   99  100 1    
   196   99  220 1    
   197  100  101 1    
   198  100  102 1    
   199  100  221 1    
   200  101  222 1    
   201  101  223 1    
   202  101  224 1    
   203  102  103 2    
   204  102  104 am   BACKBONE|DICT|INTERRES
   205  104  105 1    
   206  104  225 1    
   207  105  106 1    
   208  105  107 1    
   209  105  226 1    
   210  106  227 1    
   211  106  228 1    
   212  106  229 1    
   213  107  108 2    
   214  107  109 am   BACKBONE|DICT|INTERRES
   215  109  110 1    
   216  109  230 1    
   217  110  111 1    
   218  110  112 1    
   219  110  231 1    
   220  111  232 1    
   221  111  233 1    
   222  111  234 1    
   223  112  113 2    
   224  112  114 am   BACKBONE|DICT|INTERRES
   225  114  115 1    
   226  114  235 1    
   227  115  116 1    
   228  115  117 1    
   229  115  236 1    
   230  116  237 1    
   231  116  238 1    
   232  116  239 1    
   233  117  118 2    
   234  117  119 am   BACKBONE|DICT|INTERRES
   235  119  120 1    
   236  119  240 1    
   237  120  121 1    
   238  120  124 1    
   239  120  241 1    
   240  121  122 am   BACKBONE|DICT|INTERRES
   241  121  123 2    
   242  122  242 1    
   243  122  243 1    
   244  124  125 1    
   245  124  244 1    
   246  124  245 1    
   247  125  126 1    
   248  126  246 1    
   249  126  247 1    
@<TRIPOS>SUBSTRUCTURE
     1 UNK         1 GROUP             0       ****    0 ROOT    
