@<TRIPOS>MOLECULE
3R540
247   249    1
SMALL
USER_CHARGES


@<TRIPOS>ATOM
      1 CA          6.3248  -13.3630  -49.8882 C.3       0 UNK        -0.1800 
      2 C           5.7424  -13.5713  -48.4975 C.2       0 UNK         0.5000 
      3 O           6.4461  -14.0381  -47.6019 O.2       0 UNK        -0.5000 
      4 N           4.4613  -13.2261  -48.3156 N.am      1 UNK        -0.5000 
      5 CA          3.7329  -13.3605  -47.0477 C.3       1 UNK         0.1400 
      6 C6          2.1960  -13.3670  -47.2560 C.3       23 UNK        -0.0398 
      7 S7          1.6024  -14.9246  -47.9893 S.3       23 UNK        -0.2404 
      8 C8          1.6048  -14.5327  -49.7703 C.3       23 UNK        -0.0205 
      9 C9          1.2925  -15.7435  -50.6423 C.ar      23 UNK        -0.0193 
     10 C10         0.4345  -15.6152  -51.7387 C.ar      23 UNK        -0.1150 
     11 C11         0.1707  -16.7098  -52.5676 C.ar      23 UNK        -0.0193 
     12 C12         0.7503  -17.9496  -52.2774 C.ar      23 UNK        -0.1150 
     13 C13         1.6117  -18.0938  -51.1856 C.ar      23 UNK        -0.0193 
     14 C14         1.8931  -16.9811  -50.3888 C.ar      23 UNK        -0.1150 
     15 C15         2.2751  -19.4348  -50.8920 C.3       23 UNK        -0.0205 
     16 S16         2.0609  -19.9685  -49.1597 S.3       23 UNK        -0.2404 
     17 C17         0.3034  -20.4495  -49.1331 C.3       23 UNK        -0.0398 
     18 CA          0.0813  -21.7381  -48.3095 C.3       11 UNK         0.1400 
     19 N           0.3040  -21.5465  -46.8733 N.am      11 UNK        -0.5000 
     20 C           0.3882  -22.5503  -45.9887 C.2       10 UNK         0.5000 
     21 O           0.3502  -23.7406  -46.3027 O.2       10 UNK        -0.5000 
     22 CA          0.4647  -22.1642  -44.5006 C.3       10 UNK         0.1400 
     23 CB          1.8952  -21.7717  -44.1029 C.3       10 UNK        -0.1800 
     24 N          -0.4667  -21.0882  -44.1562 N.am      10 UNK        -0.5000 
     25 C          -1.8013  -21.1985  -44.2270 C.2       9 UNK         0.5000 
     26 O          -2.3807  -22.2409  -44.5288 O.2       9 UNK        -0.5000 
     27 CA         -2.6316  -19.9300  -43.9609 C.3       9 UNK         0.1400 
     28 CB         -2.8479  -19.7284  -42.4544 C.3       9 UNK        -0.1800 
     29 N          -2.0380  -18.7259  -44.5424 N.am      9 UNK        -0.5000 
     30 C          -1.8512  -18.5191  -45.8543 C.2       8 UNK         0.5000 
     31 O          -2.2001  -19.3123  -46.7277 O.2       8 UNK        -0.5000 
     32 CA         -1.0944  -17.2392  -46.2537 C.3       8 UNK         0.1400 
     33 CB         -2.0273  -16.0198  -46.2670 C.3       8 UNK        -0.1800 
     34 N           0.0439  -16.9779  -45.3739 N.am      8 UNK        -0.5000 
     35 C           1.1215  -17.7703  -45.2874 C.2       7 UNK         0.5000 
     36 O           1.2792  -18.7887  -45.9606 O.2       7 UNK        -0.5000 
     37 CA          2.1628  -17.3933  -44.2202 C.3       7 UNK         0.1400 
     38 CB          3.0677  -16.2533  -44.7066 C.3       7 UNK        -0.1800 
     39 N           1.5313  -17.0122  -42.9570 N.am      7 UNK        -0.5000 
     40 C           0.8897  -17.8707  -42.1514 C.2       6 UNK         0.5000 
     41 O           0.7966  -19.0768  -42.3757 O.2       6 UNK        -0.5000 
     42 CA          0.2061  -17.2790  -40.9049 C.3       6 UNK         0.1400 
     43 CB          1.1969  -17.1999  -39.7342 C.3       6 UNK        -0.1800 
     44 N          -0.3719  -15.9546  -41.1374 N.am      6 UNK        -0.5000 
     45 C          -1.3635  -15.6887  -42.0002 C.2       5 UNK         0.5000 
     46 O          -1.9124  -16.5435  -42.6932 O.2       5 UNK        -0.5000 
     47 CA         -1.7880  -14.2151  -42.1393 C.3       5 UNK         0.1400 
     48 CB         -2.9611  -13.9022  -41.1990 C.3       5 UNK        -0.1800 
     49 N          -0.6934  -13.2767  -41.8779 N.am      5 UNK        -0.5000 
     50 C           0.3899  -13.1482  -42.6536 C.2       4 UNK         0.5000 
     51 O           0.5780  -13.8046  -43.6811 O.2       4 UNK        -0.5000 
     52 CA          1.4560  -12.1490  -42.1798 C.3       4 UNK         0.1400 
     53 CB          2.7443  -12.8836  -41.7752 C.3       4 UNK        -0.1800 
     54 N           1.7434  -11.1857  -43.2397 N.am      4 UNK        -0.5000 
     55 C           0.9960  -10.0981  -43.4830 C.2       3 UNK         0.5000 
     56 O           0.0272   -9.7872  -42.7873 O.2       3 UNK        -0.5000 
     57 CA          1.3464   -9.2192  -44.7068 C.3       3 UNK         0.1400 
     58 CB          1.2325   -7.7113  -44.3983 C.3       3 UNK        -0.1800 
     59 N           2.6307   -9.5328  -45.3432 N.am      3 UNK        -0.5000 
     60 C           3.8668   -9.3828  -44.8422 C.2       2 UNK         0.5000 
     61 O           4.1102   -8.8721  -43.7479 O.2       2 UNK        -0.5000 
     62 CA          5.0151   -9.9388  -45.7180 C.3       2 UNK         0.1400 
     63 CB          6.2930  -10.2361  -44.9061 C.3       2 UNK        -0.1800 
     64 N           4.6247  -11.1195  -46.5064 N.am      2 UNK        -0.5000 
     65 C           4.1255  -12.2724  -46.0287 C.2       1 UNK         0.5000 
     66 O           3.9323  -12.4833  -44.8327 O.2       1 UNK        -0.5000 
     67 C          -1.3023  -22.3549  -48.5968 C.2       11 UNK         0.5000 
     68 O          -1.3901  -23.2465  -49.4377 O.2       11 UNK        -0.5000 
     69 N          -2.3506  -21.9138  -47.8857 N.am      12 UNK        -0.5000 
     70 CA         -3.7007  -22.4789  -47.9706 C.3       12 UNK         0.1400 
     71 CB         -4.6890  -21.6094  -47.1823 C.3       12 UNK        -0.1800 
     72 C          -3.7636  -23.9477  -47.5179 C.2       12 UNK         0.5000 
     73 O          -4.4130  -24.7559  -48.1802 O.2       12 UNK        -0.5000 
     74 N          -3.0519  -24.2831  -46.4334 N.am      13 UNK        -0.5000 
     75 CA         -2.8896  -25.6517  -45.9422 C.3       13 UNK         0.1400 
     76 CB         -2.1774  -25.6374  -44.5815 C.3       13 UNK        -0.1800 
     77 C          -2.1488  -26.5506  -46.9494 C.2       13 UNK         0.5000 
     78 O          -2.6093  -27.6601  -47.2209 O.2       13 UNK        -0.5000 
     79 N          -1.0537  -26.0376  -47.5302 N.am      14 UNK        -0.5000 
     80 CA         -0.2848  -26.6989  -48.5897 C.3       14 UNK         0.1400 
     81 CB          0.9955  -25.8983  -48.8705 C.3       14 UNK        -0.1800 
     82 C          -1.0950  -26.9074  -49.8855 C.2       14 UNK         0.5000 
     83 O          -0.9369  -27.9350  -50.5446 O.2       14 UNK        -0.5000 
     84 N          -1.9807  -25.9526  -50.1977 N.am      15 UNK        -0.5000 
     85 CA         -2.9318  -25.9926  -51.3095 C.3       15 UNK         0.1400 
     86 CB         -3.2961  -24.5498  -51.7005 C.3       15 UNK        -0.1800 
     87 C          -4.1966  -26.8318  -51.0154 C.2       15 UNK         0.5000 
     88 O          -5.1145  -26.8281  -51.8354 O.2       15 UNK        -0.5000 
     89 N          -4.2361  -27.5305  -49.8701 N.am      16 UNK        -0.5000 
     90 CA         -5.2973  -28.4337  -49.4129 C.3       16 UNK         0.1400 
     91 CB         -5.4187  -29.6581  -50.3448 C.3       16 UNK        -0.1800 
     92 C          -6.6401  -27.7148  -49.1688 C.2       16 UNK         0.5000 
     93 O          -7.6926  -28.2006  -49.5864 O.2       16 UNK        -0.5000 
     94 N          -6.5632  -26.5656  -48.4842 N.am      17 UNK        -0.5000 
     95 CA         -7.6582  -25.6815  -48.0690 C.3       17 UNK         0.1400 
     96 CB         -8.7168  -26.4260  -47.2279 C.3       17 UNK        -0.1800 
     97 C          -8.2712  -24.8538  -49.2165 C.2       17 UNK         0.5000 
     98 O          -9.3256  -24.2435  -49.0283 O.2       17 UNK        -0.5000 
     99 N          -7.5858  -24.7978  -50.3658 N.am      18 UNK        -0.5000 
    100 CA        -7.8476  -23.8355  -51.4355 C.3       18 UNK         0.1400 
    101 CB        -7.2461  -24.3713  -52.7439 C.3       18 UNK        -0.1800 
    102 C         -7.2590  -22.4550  -51.0794 C.2       18 UNK         0.5000 
    103 O         -6.5349  -22.3227  -50.0882 O.2       18 UNK        -0.5000 
    104 N         -7.5515  -21.4464  -51.9106 N.am      19 UNK        -0.5000 
    105 CA        -7.1100  -20.0538  -51.7658 C.3       19 UNK         0.1400 
    106 CB        -8.0101  -19.1612  -52.6394 C.3       19 UNK        -0.1800 
    107 C         -5.6062  -19.8540  -52.0681 C.2       19 UNK         0.5000 
    108 O         -5.2470  -19.0835  -52.9603 O.2       19 UNK        -0.5000 
    109 N         -4.7569  -20.5906  -51.3379 N.am      20 UNK        -0.5000 
    110 CA        -3.2879  -20.5653  -51.3356 C.3       20 UNK         0.1400 
    111 CB        -2.7859  -19.2689  -50.6649 C.3       20 UNK        -0.1800 
    112 C         -2.6143  -20.8699  -52.6921 C.2       20 UNK         0.5000 
    113 O         -1.4181  -20.6256  -52.8484 O.2       20 UNK        -0.5000 
    114 N         -3.3940  -21.4185  -53.6371 N.am      21 UNK        -0.5000 
    115 CA        -3.0511  -21.6949  -55.0361 C.3       21 UNK         0.1400 
    116 CB        -1.9798  -22.8018  -55.1298 C.3       21 UNK        -0.1800 
    117 C         -2.6816  -20.4261  -55.8396 C.2       21 UNK         0.5000 
    118 O         -1.9580  -20.5209  -56.8331 O.2       21 UNK        -0.5000 
    119 N         -3.1765  -19.2617  -55.3984 N.am      22 UNK        -0.5000 
    120 CA        -2.9173  -17.9540  -56.0151 C.3       22 UNK         0.1400 
    121 C         -3.6609  -17.7683  -57.3670 C.2       22 UNK         0.5000 
    122 N         -3.0929  -17.0081  -58.2936 N.am      22 UNK        -0.7600 
    123 O         -4.7638  -18.2714  -57.5720 O.2       22 UNK        -0.5000 
    124 C124       -3.2373  -16.7812  -55.0510 C.3       23 UNK        -0.0398 
    125 S125       -2.4475  -16.9280  -53.4113 S.3       23 UNK        -0.2404 
    126 C126       -0.7145  -16.5463  -53.7938 C.3       23 UNK        -0.0205 
    127 H127        7.1690  -12.6750  -49.8424 H         1 UNK         0.0600 
    128 H128        5.5885  -12.9527  -50.5798 H         1 UNK         0.0600 
    129 H129        6.6780  -14.3116  -50.2924 H         1 UNK         0.0600 
    130 H130        3.9385  -12.8446  -49.0900 H         1 UNK         0.3000 
    131 H131        4.0186  -14.3125  -46.5974 H         1 UNK         0.0600 
    132 H132        1.6758  -13.2685  -46.3004 H         1 UNK         0.0800 
    133 H133        1.8726  -12.5194  -47.8623 H         1 UNK         0.0800 
    134 H134        2.5819  -14.1521  -50.0646 H         1 UNK         0.0800 
    135 H135        0.8850  -13.7331  -49.9523 H         1 UNK         0.0800 
    136 H136       -0.0175  -14.6583  -51.9596 H         1 UNK         0.1150 
    137 H137        0.5388  -18.7984  -52.9128 H         1 UNK         0.1150 
    138 H138        2.5776  -17.0850  -49.5587 H         1 UNK         0.1150 
    139 H139        1.9015  -20.2126  -51.5600 H         1 UNK         0.0800 
    140 H140        3.3423  -19.3420  -51.0969 H         1 UNK         0.0800 
    141 H141       -0.0225  -20.6008  -50.1637 H         1 UNK         0.0800 
    142 H142       -0.2859  -19.6214  -48.7363 H         1 UNK         0.0800 
    143 H143        0.8152  -22.4720  -48.6498 H         1 UNK         0.0600 
    144 H144        0.3942  -20.5899  -46.5464 H         1 UNK         0.3000 
    145 H145        0.1847  -23.0438  -43.9173 H         1 UNK         0.0600 
    146 H146        1.9655  -21.5722  -43.0336 H         1 UNK         0.0600 
    147 H147        2.5968  -22.5751  -44.3308 H         1 UNK         0.0600 
    148 H148        2.2341  -20.8812  -44.6317 H         1 UNK         0.0600 
    149 H149       -0.0594  -20.2139  -43.8419 H         1 UNK         0.3000 
    150 H150       -3.6095  -20.0699  -44.4249 H         1 UNK         0.0600 
    151 H151       -3.3280  -20.6007  -42.0093 H         1 UNK         0.0600 
    152 H152       -3.4893  -18.8688  -42.2591 H         1 UNK         0.0600 
    153 H153       -1.9057  -19.5697  -41.9305 H         1 UNK         0.0600 
    154 H154       -1.7762  -17.9901  -43.8913 H         1 UNK         0.3000 
    155 H155       -0.7089  -17.3816  -47.2659 H         1 UNK         0.0600 
    156 H156       -2.4374  -15.8116  -45.2786 H         1 UNK         0.0600 
    157 H157       -1.5013  -15.1273  -46.6070 H         1 UNK         0.0600 
    158 H158       -2.8668  -16.1808  -46.9444 H         1 UNK         0.0600 
    159 H159       -0.0128  -16.1652  -44.7764 H         1 UNK         0.3000 
    160 H160        2.7893  -18.2698  -44.0409 H         1 UNK         0.0600 
    161 H161        2.5043  -15.3345  -44.8707 H         1 UNK         0.0600 
    162 H162        3.5505  -16.5177  -45.6482 H         1 UNK         0.0600 
    163 H163        3.8555  -16.0367  -43.9851 H         1 UNK         0.0600 
    164 H164        1.5257  -16.0290  -42.7276 H         1 UNK         0.3000 
    165 H165       -0.6051  -17.9519  -40.6204 H         1 UNK         0.0600 
    166 H166        0.7041  -16.8626  -38.8221 H         1 UNK         0.0600 
    167 H167        1.6313  -18.1783  -39.5242 H         1 UNK         0.0600 
    168 H168        2.0185  -16.5145  -39.9462 H         1 UNK         0.0600 
    169 H169        0.0164  -15.1896  -40.6064 H         1 UNK         0.3000 
    170 H170       -2.1245  -14.0662  -43.1676 H         1 UNK         0.0600 
    171 H171       -3.8010  -14.5724  -41.3870 H         1 UNK         0.0600 
    172 H172       -2.6796  -14.0145  -40.1512 H         1 UNK         0.0600 
    173 H173       -3.3216  -12.8835  -41.3435 H         1 UNK         0.0600 
    174 H174       -0.7841  -12.6943  -41.0576 H         1 UNK         0.3000 
    175 H175        1.0908  -11.6141  -41.3003 H         1 UNK         0.0600 
    176 H176        3.1230  -13.5168  -42.5780 H         1 UNK         0.0600 
    177 H177        3.5320  -12.1803  -41.5043 H         1 UNK         0.0600 
    178 H178        2.5693  -13.5263  -40.9118 H         1 UNK         0.0600 
    179 H179        2.5060  -11.4267  -43.8640 H         1 UNK         0.3000 
    180 H180        0.5875   -9.4515  -45.4551 H         1 UNK         0.0600 
    181 H181        0.2180   -7.4488  -44.0961 H         1 UNK         0.0600 
    182 H182        1.4726   -7.1093  -45.2746 H         1 UNK         0.0600 
    183 H183        1.8988   -7.4098  -43.5899 H         1 UNK         0.0600 
    184 H184        2.5602   -9.9653  -46.2530 H         1 UNK         0.3000 
    185 H185        5.2552   -9.1533  -46.4358 H         1 UNK         0.0600 
    186 H186        6.1118  -10.9721  -44.1221 H         1 UNK         0.0600 
    187 H187        7.0868  -10.6188  -45.5475 H         1 UNK         0.0600 
    188 H188        6.6723   -9.3332  -44.4262 H         1 UNK         0.0600 
    189 H189        4.7472  -11.0396  -47.5061 H         1 UNK         0.3000 
    190 H190       -2.2233  -21.1247  -47.2568 H         1 UNK         0.3000 
    191 H191       -4.0084  -22.4590  -49.0154 H         1 UNK         0.0600 
    192 H192       -4.4569  -21.5950  -46.1182 H         1 UNK         0.0600 
    193 H193       -5.7071  -21.9854  -47.2916 H         1 UNK         0.0600 
    194 H194       -4.6825  -20.5807  -47.5432 H         1 UNK         0.0600 
    195 H195       -2.5961  -23.5473  -45.8998 H         1 UNK         0.3000 
    196 H196       -3.8871  -26.0711  -45.7954 H         1 UNK         0.0600 
    197 H197       -2.0726  -26.6481  -44.1854 H         1 UNK         0.0600 
    198 H198       -2.7400  -25.0573  -43.8497 H         1 UNK         0.0600 
    199 H199       -1.1788  -25.2066  -44.6506 H         1 UNK         0.0600 
    200 H200       -0.7169  -25.1298  -47.2221 H         1 UNK         0.3000 
    201 H201        0.0060  -27.6846  -48.2207 H         1 UNK         0.0600 
    202 H202        1.6017  -25.7946  -47.9704 H         1 UNK         0.0600 
    203 H203        0.7718  -24.8976  -49.2398 H         1 UNK         0.0600 
    204 H204        1.6098  -26.3955  -49.6220 H         1 UNK         0.0600 
    205 H205       -1.9859  -25.1036  -49.6402 H         1 UNK         0.3000 
    206 H206       -2.4373  -26.4535  -52.1666 H         1 UNK         0.0600 
    207 H207       -2.4024  -23.9500  -51.8727 H         1 UNK         0.0600 
    208 H208       -3.8711  -24.5292  -52.6256 H         1 UNK         0.0600 
    209 H209       -3.8882  -24.0591  -50.9274 H         1 UNK         0.0600 
    210 H210       -3.4542  -27.4346  -49.2337 H         1 UNK         0.3000 
    211 H211       -4.9756  -28.8023  -48.4379 H         1 UNK         0.0600 
    212 H212       -5.7878  -29.3834  -51.3333 H         1 UNK         0.0600 
    213 H213       -6.1094  -30.3945  -49.9325 H         1 UNK         0.0600 
    214 H214       -4.4559  -30.1532  -50.4716 H         1 UNK         0.0600 
    215 H215       -5.6374  -26.1945  -48.2810 H         1 UNK         0.3000 
    216 H216       -7.1912  -24.9479  -47.4103 H         1 UNK         0.0600 
    217 H217       -9.4082  -25.7233  -46.7617 H         1 UNK         0.0600 
    218 H218       -8.2526  -27.0009  -46.4266 H         1 UNK         0.0600 
    219 H219       -9.3123  -27.1095  -47.8333 H         1 UNK         0.0600 
    220 H220       -6.7212  -25.3165  -50.4278 H         1 UNK         0.3000 
    221 H221       -8.9263  -23.7276  -51.5659 H         1 UNK         0.0600 
    222 H222       -6.1594  -24.4164  -52.6965 H         1 UNK         0.0600 
    223 H223       -7.6108  -25.3750  -52.9639 H         1 UNK         0.0600 
    224 H224       -7.5109  -23.7391  -53.5919 H         1 UNK         0.0600 
    225 H225       -8.1279  -21.6398  -52.7169 H         1 UNK         0.3000 
    226 H226       -7.2627  -19.7552  -50.7265 H         1 UNK         0.0600 
    227 H227       -9.0585  -19.2622  -52.3583 H         1 UNK         0.0600 
    228 H228       -7.7466  -18.1087  -52.5264 H         1 UNK         0.0600 
    229 H229       -7.9199  -19.4110  -53.6973 H         1 UNK         0.0600 
    230 H230       -5.1904  -21.2383  -50.6824 H         1 UNK         0.3000 
    231 H231       -2.9746  -21.3947  -50.7078 H         1 UNK         0.0600 
    232 H232       -1.7143  -19.1211  -50.7923 H         1 UNK         0.0600 
    233 H233       -2.9835  -19.2881  -49.5929 H         1 UNK         0.0600 
    234 H234       -3.2783  -18.3867  -51.0702 H         1 UNK         0.0600 
    235 H235       -4.3632  -21.5618  -53.3940 H         1 UNK         0.3000 
    236 H236       -3.9609  -22.0821  -55.4967 H         1 UNK         0.0600 
    237 H237       -1.8318  -23.1172  -56.1631 H         1 UNK         0.0600 
    238 H238       -1.0146  -22.4652  -54.7507 H         1 UNK         0.0600 
    239 H239       -2.2735  -23.6848  -54.5627 H         1 UNK         0.0600 
    240 H240       -3.7718  -19.2557  -54.5781 H         1 UNK         0.3000 
    241 H241       -1.8491  -17.9171  -56.2349 H         1 UNK         0.0600 
    242 H242       -3.5708  -16.8674  -59.1705 H         1 UNK         0.3800 
    243 H243       -2.1913  -16.5793  -58.1507 H         1 UNK         0.3800 
    244 H244       -2.9412  -15.8283  -55.4929 H         1 UNK         0.0800 
    245 H245       -4.3145  -16.7175  -54.8860 H         1 UNK         0.0800 
    246 H246       -0.6425  -15.5285  -54.1804 H         1 UNK         0.0800 
    247 H247       -0.3584  -17.2054  -54.5861 H         1 UNK         0.0800 
@<TRIPOS>BOND
     1    1    2 1    
     2    1  127 1    
     3    1  128 1    
     4    1  129 1    
     5    2    3 2    
     6    2    4 am   BACKBONE|DICT|INTERRES
     7    4    5 1    
     8    4  130 1    
     9    5    6 1    
    10    5   65 1    
    11    5  131 1    
    12    6    7 1    
    13    6  132 1    
    14    6  133 1    
    15    7    8 1    
    16    8    9 1    
    17    8  134 1    
    18    8  135 1    
    19    9   10 ar   
    20    9   14 ar   
    21   10   11 ar   
    22   10  136 1    
    23   11   12 ar   
    24   11  126 1    
    25   12   13 ar   
    26   12  137 1    
    27   13   14 ar   
    28   13   15 1    
    29   14  138 1    
    30   15   16 1    
    31   15  139 1    
    32   15  140 1    
    33   16   17 1    
    34   17   18 1    
    35   17  141 1    
    36   17  142 1    
    37   18   19 1    
    38   18   67 1    
    39   18  143 1    
    40   19   20 am   BACKBONE|DICT|INTERRES
    41   19  144 1    
    42   20   21 2    
    43   20   22 1    
    44   22   23 1    
    45   22   24 1    
    46   22  145 1    
    47   23  146 1    
    48   23  147 1    
    49   23  148 1    
    50   24   25 am   BACKBONE|DICT|INTERRES
    51   24  149 1    
    52   25   26 2    
    53   25   27 1    
    54   27   28 1    
    55   27   29 1    
    56   27  150 1    
    57   28  151 1    
    58   28  152 1    
    59   28  153 1    
    60   29   30 am   BACKBONE|DICT|INTERRES
    61   29  154 1    
    62   30   31 2    
    63   30   32 1    
    64   32   33 1    
    65   32   34 1    
    66   32  155 1    
    67   33  156 1    
    68   33  157 1    
    69   33  158 1    
    70   34   35 am   BACKBONE|DICT|INTERRES
    71   34  159 1    
    72   35   36 2    
    73   35   37 1    
    74   37   38 1    
    75   37   39 1    
    76   37  160 1    
    77   38  161 1    
    78   38  162 1    
    79   38  163 1    
    80   39   40 am   BACKBONE|DICT|INTERRES
    81   39  164 1    
    82   40   41 2    
    83   40   42 1    
    84   42   43 1    
    85   42   44 1    
    86   42  165 1    
    87   43  166 1    
    88   43  167 1    
    89   43  168 1    
    90   44   45 am   BACKBONE|DICT|INTERRES
    91   44  169 1    
    92   45   46 2    
    93   45   47 1    
    94   47   48 1    
    95   47   49 1    
    96   47  170 1    
    97   48  171 1    
    98   48  172 1    
    99   48  173 1    
   100   49   50 am   BACKBONE|DICT|INTERRES
   101   49  174 1    
   102   50   51 2    
   103   50   52 1    
   104   52   53 1    
   105   52   54 1    
   106   52  175 1    
   107   53  176 1    
   108   53  177 1    
   109   53  178 1    
   110   54   55 am   BACKBONE|DICT|INTERRES
   111   54  179 1    
   112   55   56 2    
   113   55   57 1    
   114   57   58 1    
   115   57   59 1    
   116   57  180 1    
   117   58  181 1    
   118   58  182 1    
   119   58  183 1    
   120   59   60 am   BACKBONE|DICT|INTERRES
   121   59  184 1    
   122   60   61 2    
   123   60   62 1    
   124   62   63 1    
   125   62   64 1    
   126   62  185 1    
   127   63  186 1    
   128   63  187 1    
   129   63  188 1    
   130   64   65 am   BACKBONE|DICT|INTERRES
   131   64  189 1    
   132   65   66 2    
   133   67   68 2    
   134   67   69 am   BACKBONE|DICT|INTERRES
   135   69   70 1    
   136   69  190 1    
   137   70   71 1    
   138   70   72 1    
   139   70  191 1    
   140   71  192 1    
   141   71  193 1    
   142   71  194 1    
   143   72   73 2    
   144   72   74 am   BACKBONE|DICT|INTERRES
   145   74   75 1    
   146   74  195 1    
   147   75   76 1    
   148   75   77 1    
   149   75  196 1    
   150   76  197 1    
   151   76  198 1    
   152   76  199 1    
   153   77   78 2    
   154   77   79 am   BACKBONE|DICT|INTERRES
   155   79   80 1    
   156   79  200 1    
   157   80   81 1    
   158   80   82 1    
   159   80  201 1    
   160   81  202 1    
   161   81  203 1    
   162   81  204 1    
   163   82   83 2    
   164   82   84 am   BACKBONE|DICT|INTERRES
   165   84   85 1    
   166   84  205 1    
   167   85   86 1    
   168   85   87 1    
   169   85  206 1    
   170   86  207 1    
   171   86  208 1    
   172   86  209 1    
   173   87   88 2    
   174   87   89 am   BACKBONE|DICT|INTERRES
   175   89   90 1    
   176   89  210 1    
   177   90   91 1    
   178   90   92 1    
   179   90  211 1    
   180   91  212 1    
   181   91  213 1    
   182   91  214 1    
   183   92   93 2    
   184   92   94 am   BACKBONE|DICT|INTERRES
   185   94   95 1    
   186   94  215 1    
   187   95   96 1    
   188   95   97 1    
   189   95  216 1    
   190   96  217 1    
   191   96  218 1    
   192   96  219 1    
   193   97   98 2    
   194   97   99 am   BACKBONE|DICT|INTERRES
   195   99  100 1    
   196   99  220 1    
   197  100  101 1    
   198  100  102 1    
   199  100  221 1    
   200  101  222 1    
   201  101  223 1    
   202  101  224 1    
   203  102  103 2    
   204  102  104 am   BACKBONE|DICT|INTERRES
   205  104  105 1    
   206  104  225 1    
   207  105  106 1    
   208  105  107 1    
   209  105  226 1    
   210  106  227 1    
   211  106  228 1    
   212  106  229 1    
   213  107  108 2    
   214  107  109 am   BACKBONE|DICT|INTERRES
   215  109  110 1    
   216  109  230 1    
   217  110  111 1    
   218  110  112 1    
   219  110  231 1    
   220  111  232 1    
   221  111  233 1    
   222  111  234 1    
   223  112  113 2    
   224  112  114 am   BACKBONE|DICT|INTERRES
   225  114  115 1    
   226  114  235 1    
   227  115  116 1    
   228  115  117 1    
   229  115  236 1    
   230  116  237 1    
   231  116  238 1    
   232  116  239 1    
   233  117  118 2    
   234  117  119 am   BACKBONE|DICT|INTERRES
   235  119  120 1    
   236  119  240 1    
   237  120  121 1    
   238  120  124 1    
   239  120  241 1    
   240  121  122 am   BACKBONE|DICT|INTERRES
   241  121  123 2    
   242  122  242 1    
   243  122  243 1    
   244  124  125 1    
   245  124  244 1    
   246  124  245 1    
   247  125  126 1    
   248  126  246 1    
   249  126  247 1    
@<TRIPOS>SUBSTRUCTURE
     1 UNK         1 GROUP             0       ****    0 ROOT    
