@<TRIPOS>MOLECULE
3R540
247   249    1
SMALL
USER_CHARGES


@<TRIPOS>ATOM
      1 CA          2.1185  -14.0834  -49.6664 C.3       0 UNK        -0.1800 
      2 C           1.6831  -13.8460  -48.2283 C.2       0 UNK         0.5000 
      3 O           2.4316  -14.1528  -47.3012 O.2       0 UNK        -0.5000 
      4 N           0.4797  -13.2894  -48.0350 N.am      1 UNK        -0.5000 
      5 CA         -0.1490  -13.0645  -46.7239 C.3       1 UNK         0.1400 
      6 C6         -1.6424  -12.6493  -46.8325 C.3       23 UNK        -0.0398 
      7 S7         -2.6134  -13.5929  -48.0592 S.3       23 UNK        -0.2404 
      8 C8         -2.8499  -15.1899  -47.2216 C.3       23 UNK        -0.0205 
      9 C9         -2.6673  -16.3331  -48.2043 C.ar      23 UNK        -0.0193 
     10 C10        -3.7708  -17.0187  -48.7211 C.ar      23 UNK        -0.1150 
     11 C11        -3.5908  -18.0633  -49.6332 C.ar      23 UNK        -0.0193 
     12 C12        -2.2964  -18.4181  -50.0224 C.ar      23 UNK        -0.1150 
     13 C13        -1.1878  -17.7232  -49.5330 C.ar      23 UNK        -0.0193 
     14 C14        -1.3802  -16.6903  -48.6132 C.ar      23 UNK        -0.1150 
     15 C15         0.2164  -18.0602  -50.0156 C.3       23 UNK        -0.0205 
     16 S16         0.7427  -19.7451  -49.5755 S.3       23 UNK        -0.2404 
     17 C17         0.5877  -19.7297  -47.7575 C.3       23 UNK        -0.0398 
     18 CA         -0.1357  -20.9816  -47.2137 C.3       11 UNK         0.1400 
     19 N           0.0866  -21.1417  -45.7769 N.am      11 UNK        -0.5000 
     20 C          -0.1649  -22.2645  -45.0924 C.2       10 UNK         0.5000 
     21 O          -0.6152  -23.2892  -45.6041 O.2       10 UNK        -0.5000 
     22 CA          0.0970  -22.2239  -43.5774 C.3       10 UNK         0.1400 
     23 CB          1.5999  -22.3360  -43.2814 C.3       10 UNK        -0.1800 
     24 N          -0.4430  -21.0209  -42.9434 N.am      10 UNK        -0.5000 
     25 C          -1.7472  -20.7142  -42.8938 C.2       9 UNK         0.5000 
     26 O          -2.6351  -21.4219  -43.3689 O.2       9 UNK        -0.5000 
     27 CA         -2.1239  -19.3746  -42.2379 C.3       9 UNK         0.1400 
     28 CB         -2.0570  -19.4771  -40.7069 C.3       9 UNK        -0.1800 
     29 N          -1.2915  -18.2622  -42.6944 N.am      9 UNK        -0.5000 
     30 C          -1.2189  -17.8362  -43.9640 C.2       8 UNK         0.5000 
     31 O          -1.8485  -18.3318  -44.8957 O.2       8 UNK        -0.5000 
     32 CA         -0.2354  -16.6925  -44.2510 C.3       8 UNK         0.1400 
     33 CB         -0.7732  -15.3666  -43.6906 C.3       8 UNK        -0.1800 
     34 N           1.0902  -16.9554  -43.6969 N.am      8 UNK        -0.5000 
     35 C           1.8617  -18.0109  -43.9936 C.2       7 UNK         0.5000 
     36 O           1.5660  -18.8723  -44.8208 O.2       7 UNK        -0.5000 
     37 CA          3.1573  -18.1597  -43.1808 C.3       7 UNK         0.1400 
     38 CB          4.2558  -17.2306  -43.7204 C.3       7 UNK        -0.1800 
     39 N           2.9396  -17.9016  -41.7567 N.am      7 UNK        -0.5000 
     40 C           2.1905  -18.6702  -40.9519 C.2       6 UNK         0.5000 
     41 O           1.6254  -19.7009  -41.3168 O.2       6 UNK        -0.5000 
     42 CA          2.0118  -18.1791  -39.5047 C.3       6 UNK         0.1400 
     43 CB          3.2250  -18.5650  -38.6454 C.3       6 UNK        -0.1800 
     44 N           1.8033  -16.7326  -39.4318 N.am      6 UNK        -0.5000 
     45 C           0.7094  -16.1043  -39.8854 C.2       5 UNK         0.5000 
     46 O          -0.2575  -16.6845  -40.3794 O.2       5 UNK        -0.5000 
     47 CA          0.7251  -14.5648  -39.8191 C.3       5 UNK         0.1400 
     48 CB          0.2868  -14.0770  -38.4303 C.3       5 UNK        -0.1800 
     49 N           2.0340  -13.9901  -40.1502 N.am      5 UNK        -0.5000 
     50 C           2.6225  -14.1132  -41.3463 C.2       4 UNK         0.5000 
     51 O           2.1246  -14.7318  -42.2894 O.2       4 UNK        -0.5000 
     52 CA          4.0157  -13.4955  -41.5100 C.3       4 UNK         0.1400 
     53 CB          5.0808  -14.4580  -40.9437 C.3       4 UNK        -0.1800 
     54 N           4.2155  -13.2549  -42.9364 N.am      4 UNK        -0.5000 
     55 C           5.2756  -12.7003  -43.5316 C.2       3 UNK         0.5000 
     56 O           6.2773  -12.3018  -42.9360 O.2       3 UNK        -0.5000 
     57 CA          5.1832  -12.5412  -45.0610 C.3       3 UNK         0.1400 
     58 CB          5.3776  -13.8946  -45.7630 C.3       3 UNK        -0.1800 
     59 N           3.9252  -11.9327  -45.5072 N.am      3 UNK        -0.5000 
     60 C           3.5385  -10.6818  -45.2066 C.2       2 UNK         0.5000 
     61 O           4.1935   -9.9252  -44.4883 O.2       2 UNK        -0.5000 
     62 CA          2.2275  -10.1535  -45.8255 C.3       2 UNK         0.1400 
     63 CB          2.5260   -9.0537  -46.8577 C.3       2 UNK        -0.1800 
     64 N           1.4187  -11.1841  -46.4741 N.am      2 UNK        -0.5000 
     65 C           0.6164  -12.0499  -45.8414 C.2       1 UNK         0.5000 
     66 O           0.4647  -12.0648  -44.6204 O.2       1 UNK        -0.5000 
     67 C          -1.6361  -21.0225  -47.5788 C.2       11 UNK         0.5000 
     68 O          -1.9883  -21.6167  -48.6000 O.2       11 UNK        -0.5000 
     69 N          -2.4965  -20.4505  -46.7230 N.am      12 UNK        -0.5000 
     70 CA         -3.9515  -20.5200  -46.8490 C.3       12 UNK         0.1400 
     71 CB         -4.6181  -19.5311  -45.8823 C.3       12 UNK        -0.1800 
     72 C          -4.4948  -21.9433  -46.6455 C.2       12 UNK         0.5000 
     73 O          -5.3428  -22.3762  -47.4252 O.2       12 UNK        -0.5000 
     74 N          -3.9713  -22.6620  -45.6413 N.am      13 UNK        -0.5000 
     75 CA         -4.2976  -24.0642  -45.3659 C.3       13 UNK         0.1400 
     76 CB         -3.6785  -24.4865  -44.0251 C.3       13 UNK        -0.1800 
     77 C          -3.8540  -25.0121  -46.4963 C.2       13 UNK         0.5000 
     78 O          -4.5889  -25.9395  -46.8371 O.2       13 UNK        -0.5000 
     79 N          -2.6808  -24.7375  -47.0823 N.am      14 UNK        -0.5000 
     80 CA         -2.1522  -25.4277  -48.2600 C.3       14 UNK         0.1400 
     81 CB         -0.6431  -25.1540  -48.3589 C.3       14 UNK        -0.1800 
     82 C          -2.8476  -25.0200  -49.5743 C.2       14 UNK         0.5000 
     83 O          -2.6498  -25.6944  -50.5844 O.2       14 UNK        -0.5000 
     84 N          -3.6050  -23.9135  -49.5556 N.am      15 UNK        -0.5000 
     85 CA         -4.2909  -23.2712  -50.6805 C.3       15 UNK         0.1400 
     86 CB         -5.4670  -24.1436  -51.1615 C.3       15 UNK        -0.1800 
     87 C          -3.3229  -22.8838  -51.8175 C.2       15 UNK         0.5000 
     88 O          -3.6091  -23.1534  -52.9864 O.2       15 UNK        -0.5000 
     89 N          -2.1743  -22.3016  -51.4355 N.am      16 UNK        -0.5000 
     90 CA         -1.0155  -21.9864  -52.2832 C.3       16 UNK         0.1400 
     91 CB         -1.3142  -20.8110  -53.2371 C.3       16 UNK        -0.1800 
     92 C          -0.4535  -23.2277  -53.0091 C.2       16 UNK         0.5000 
     93 O          -0.2054  -23.1851  -54.2146 O.2       16 UNK        -0.5000 
     94 N          -0.2824  -24.3163  -52.2444 N.am      17 UNK        -0.5000 
     95 CA          0.1594  -25.6456  -52.6807 C.3       17 UNK         0.1400 
     96 CB          1.6148  -25.6100  -53.1932 C.3       17 UNK        -0.1800 
     97 C          -0.8304  -26.2810  -53.6785 C.2       17 UNK         0.5000 
     98 O          -0.4415  -26.6959  -54.7721 O.2       17 UNK        -0.5000 
     99 N          -2.1021  -26.3334  -53.2591 N.am      18 UNK        -0.5000 
    100 CA        -3.2569  -26.8929  -53.9646 C.3       18 UNK         0.1400 
    101 CB        -3.1137  -28.4215  -54.1206 C.3       18 UNK        -0.1800 
    102 C         -3.5851  -26.1754  -55.2910 C.2       18 UNK         0.5000 
    103 O         -4.0302  -26.8184  -56.2439 O.2       18 UNK        -0.5000 
    104 N         -3.3921  -24.8493  -55.3258 N.am      19 UNK        -0.5000 
    105 CA        -3.8246  -23.9903  -56.4303 C.3       19 UNK         0.1400 
    106 CB        -3.0790  -22.6498  -56.3673 C.3       19 UNK        -0.1800 
    107 C         -5.3462  -23.7574  -56.3985 C.2       19 UNK         0.5000 
    108 O         -5.9596  -23.6296  -57.4584 O.2       19 UNK        -0.5000 
    109 N         -5.9165  -23.7275  -55.1817 N.am      20 UNK        -0.5000 
    110 CA        -7.3488  -23.6185  -54.8752 C.3       20 UNK         0.1400 
    111 CB        -8.0980  -24.8866  -55.3353 C.3       20 UNK        -0.1800 
    112 C         -7.9910  -22.3131  -55.3924 C.2       20 UNK         0.5000 
    113 O         -9.1413  -22.3180  -55.8353 O.2       20 UNK        -0.5000 
    114 N         -7.2322  -21.2141  -55.3146 N.am      21 UNK        -0.5000 
    115 CA        -7.6525  -19.8721  -55.7137 C.3       21 UNK         0.1400 
    116 CB        -7.5768  -19.7084  -57.2434 C.3       21 UNK        -0.1800 
    117 C         -6.8018  -18.8161  -54.9965 C.2       21 UNK         0.5000 
    118 O         -7.3625  -17.8712  -54.4415 O.2       21 UNK        -0.5000 
    119 N         -5.4759  -19.0256  -55.0091 N.am      22 UNK        -0.5000 
    120 CA        -4.4273  -18.1806  -54.4105 C.3       22 UNK         0.1400 
    121 C         -4.5033  -16.6647  -54.7804 C.2       22 UNK         0.5000 
    122 N         -4.1490  -15.7486  -53.8883 N.am      22 UNK        -0.7600 
    123 O         -4.8200  -16.3123  -55.9146 O.2       22 UNK        -0.5000 
    124 C124       -4.1437  -18.5165  -52.9164 C.3       23 UNK        -0.0398 
    125 S125       -5.4348  -18.0506  -51.7123 S.3       23 UNK        -0.2404 
    126 C126       -4.7912  -18.8153  -50.1907 C.3       23 UNK        -0.0205 
    127 H127        2.3552  -15.1366  -49.8164 H         1 UNK         0.0600 
    128 H128        3.0099  -13.4974  -49.8896 H         1 UNK         0.0600 
    129 H129        1.3393  -13.8059  -50.3766 H         1 UNK         0.0600 
    130 H130       -0.0982  -13.0635  -48.8327 H         1 UNK         0.3000 
    131 H131       -0.1083  -14.0213  -46.2023 H         1 UNK         0.0600 
    132 H132       -2.1311  -12.7336  -45.8599 H         1 UNK         0.0800 
    133 H133       -1.7218  -11.5983  -47.1170 H         1 UNK         0.0800 
    134 H134       -2.1328  -15.3081  -46.4111 H         1 UNK         0.0800 
    135 H135       -3.8405  -15.2192  -46.7655 H         1 UNK         0.0800 
    136 H136       -4.7694  -16.7385  -48.4168 H         1 UNK         0.1150 
    137 H137       -2.1510  -19.2371  -50.7085 H         1 UNK         0.1150 
    138 H138       -0.5297  -16.1475  -48.2256 H         1 UNK         0.1150 
    139 H139        0.2508  -17.9546  -51.1006 H         1 UNK         0.0800 
    140 H140        0.9440  -17.3518  -49.6167 H         1 UNK         0.0800 
    141 H141        0.1016  -18.8202  -47.4029 H         1 UNK         0.0800 
    142 H142        1.6040  -19.6932  -47.3634 H         1 UNK         0.0800 
    143 H143        0.3237  -21.8501  -47.6908 H         1 UNK         0.0600 
    144 H144        0.4757  -20.3383  -45.2886 H         1 UNK         0.3000 
    145 H145       -0.4014  -23.0875  -43.1324 H         1 UNK         0.0600 
    146 H146        1.7850  -22.4062  -42.2094 H         1 UNK         0.0600 
    147 H147        2.0249  -23.2276  -43.7440 H         1 UNK         0.0600 
    148 H148        2.1505  -21.4736  -43.6589 H         1 UNK         0.0600 
    149 H149        0.2287  -20.3988  -42.5024 H         1 UNK         0.3000 
    150 H150       -3.1553  -19.1498  -42.5172 H         1 UNK         0.0600 
    151 H151       -2.6758  -20.2978  -40.3420 H         1 UNK         0.0600 
    152 H152       -2.4183  -18.5629  -40.2356 H         1 UNK         0.0600 
    153 H153       -1.0386  -19.6515  -40.3584 H         1 UNK         0.0600 
    154 H154       -0.7529  -17.7781  -41.9826 H         1 UNK         0.3000 
    155 H155       -0.1297  -16.5969  -45.3336 H         1 UNK         0.0600 
    156 H156       -0.9102  -15.4083  -42.6109 H         1 UNK         0.0600 
    157 H157       -1.7385  -15.1116  -44.1273 H         1 UNK         0.0600 
    158 H158       -0.0889  -14.5461  -43.8975 H         1 UNK         0.0600 
    159 H159        1.4422  -16.2662  -43.0363 H         1 UNK         0.3000 
    160 H160        3.5017  -19.1905  -43.2879 H         1 UNK         0.0600 
    161 H161        3.9782  -16.1804  -43.6335 H         1 UNK         0.0600 
    162 H162        4.4491  -17.4294  -44.7753 H         1 UNK         0.0600 
    163 H163        5.1944  -17.3761  -43.1858 H         1 UNK         0.0600 
    164 H164        3.3305  -17.0509  -41.3835 H         1 UNK         0.3000 
    165 H165        1.1297  -18.6730  -39.0913 H         1 UNK         0.0600 
    166 H166        3.0731  -18.2873  -37.6023 H         1 UNK         0.0600 
    167 H167        3.3944  -19.6423  -38.6724 H         1 UNK         0.0600 
    168 H168        4.1383  -18.0802  -38.9926 H         1 UNK         0.0600 
    169 H169        2.5496  -16.1797  -39.0376 H         1 UNK         0.3000 
    170 H170        0.0036  -14.1968  -40.5516 H         1 UNK         0.0600 
    171 H171       -0.6931  -14.4781  -38.1676 H         1 UNK         0.0600 
    172 H172        0.9871  -14.3859  -37.6534 H         1 UNK         0.0600 
    173 H173        0.2097  -12.9900  -38.4006 H         1 UNK         0.0600 
    174 H174        2.5020  -13.4752  -39.4181 H         1 UNK         0.3000 
    175 H175        4.0493  -12.5414  -40.9812 H         1 UNK         0.0600 
    176 H176        5.1262  -15.3881  -41.5100 H         1 UNK         0.0600 
    177 H177        6.0749  -14.0126  -40.9569 H         1 UNK         0.0600 
    178 H178        4.8676  -14.7159  -39.9057 H         1 UNK         0.0600 
    179 H179        3.4282  -13.5467  -43.5036 H         1 UNK         0.3000 
    180 H180        5.9970  -11.8830  -45.3727 H         1 UNK         0.0600 
    181 H181        4.5683  -14.5887  -45.5336 H         1 UNK         0.0600 
    182 H182        6.3118  -14.3657  -45.4549 H         1 UNK         0.0600 
    183 H183        5.4150  -13.7747  -46.8459 H         1 UNK         0.0600 
    184 H184        3.3312  -12.5020  -46.0982 H         1 UNK         0.3000 
    185 H185        1.6441   -9.7089  -45.0164 H         1 UNK         0.0600 
    186 H186        3.0917   -8.2361  -46.4088 H         1 UNK         0.0600 
    187 H187        3.1109   -9.4361  -47.6952 H         1 UNK         0.0600 
    188 H188        1.6058   -8.6268  -47.2571 H         1 UNK         0.0600 
    189 H189        1.4890  -11.2492  -47.4793 H         1 UNK         0.3000 
    190 H190       -2.1382  -19.9163  -45.9360 H         1 UNK         0.3000 
    191 H191       -4.2092  -20.2200  -47.8639 H         1 UNK         0.0600 
    192 H192       -4.3127  -18.5070  -46.0972 H         1 UNK         0.0600 
    193 H193       -5.7045  -19.5705  -45.9692 H         1 UNK         0.0600 
    194 H194       -4.3615  -19.7466  -44.8448 H         1 UNK         0.0600 
    195 H195       -3.3132  -22.2167  -45.0073 H         1 UNK         0.3000 
    196 H196       -5.3831  -24.1420  -45.2766 H         1 UNK         0.0600 
    197 H197       -3.9185  -25.5248  -43.7929 H         1 UNK         0.0600 
    198 H198       -4.0576  -23.8744  -43.2067 H         1 UNK         0.0600 
    199 H199       -2.5922  -24.3942  -44.0354 H         1 UNK         0.0600 
    200 H200       -2.0976  -24.0064  -46.6849 H         1 UNK         0.3000 
    201 H201       -2.2983  -26.5019  -48.1299 H         1 UNK         0.0600 
    202 H202       -0.1255  -25.4699  -47.4529 H         1 UNK         0.0600 
    203 H203       -0.4368  -24.0938  -48.5086 H         1 UNK         0.0600 
    204 H204       -0.1974  -25.6988  -49.1920 H         1 UNK         0.0600 
    205 H205       -3.6719  -23.4163  -48.6774 H         1 UNK         0.3000 
    206 H206       -4.7046  -22.3387  -50.2952 H         1 UNK         0.0600 
    207 H207       -6.1273  -24.4028  -50.3338 H         1 UNK         0.0600 
    208 H208       -6.0666  -23.6098  -51.8974 H         1 UNK         0.0600 
    209 H209       -5.1256  -25.0713  -51.6213 H         1 UNK         0.0600 
    210 H210       -2.0540  -22.1175  -50.4410 H         1 UNK         0.3000 
    211 H211       -0.2227  -21.6613  -51.6098 H         1 UNK         0.0600 
    212 H212       -2.1712  -21.0113  -53.8766 H         1 UNK         0.0600 
    213 H213       -0.4630  -20.6029  -53.8862 H         1 UNK         0.0600 
    214 H214       -1.5109  -19.8951  -52.6868 H         1 UNK         0.0600 
    215 H215       -0.5677  -24.2528  -51.2785 H         1 UNK         0.3000 
    216 H216        0.1445  -26.2794  -51.7928 H         1 UNK         0.0600 
    217 H217        1.9755  -26.6170  -53.4057 H         1 UNK         0.0600 
    218 H218        2.2835  -25.1761  -52.4499 H         1 UNK         0.0600 
    219 H219        1.7122  -25.0301  -54.1113 H         1 UNK         0.0600 
    220 H220       -2.3038  -25.9803  -52.3241 H         1 UNK         0.3000 
    221 H221       -4.1139  -26.7138  -53.3140 H         1 UNK         0.0600 
    222 H222       -2.3098  -28.6854  -54.8083 H         1 UNK         0.0600 
    223 H223       -2.9058  -28.8973  -53.1622 H         1 UNK         0.0600 
    224 H224       -4.0326  -28.8638  -54.5071 H         1 UNK         0.0600 
    225 H225       -3.0652  -24.3773  -54.4888 H         1 UNK         0.3000 
    226 H226       -3.5715  -24.4769  -57.3746 H         1 UNK         0.0600 
    227 H227       -1.9989  -22.7963  -56.3482 H         1 UNK         0.0600 
    228 H228       -3.3103  -22.0354  -57.2381 H         1 UNK         0.0600 
    229 H229       -3.3583  -22.0796  -55.4826 H         1 UNK         0.0600 
    230 H230       -5.2965  -23.7960  -54.3837 H         1 UNK         0.3000 
    231 H231       -7.4288  -23.5752  -53.7892 H         1 UNK         0.0600 
    232 H232       -8.1184  -24.9734  -56.4221 H         1 UNK         0.0600 
    233 H233       -9.1319  -24.8788  -54.9885 H         1 UNK         0.0600 
    234 H234       -7.6302  -25.7866  -54.9361 H         1 UNK         0.0600 
    235 H235       -6.3234  -21.2898  -54.8813 H         1 UNK         0.3000 
    236 H236       -8.6876  -19.7210  -55.3991 H         1 UNK         0.0600 
    237 H237       -8.2676  -20.3834  -57.7486 H         1 UNK         0.0600 
    238 H238       -7.8410  -18.6928  -57.5409 H         1 UNK         0.0600 
    239 H239       -6.5750  -19.9134  -57.6221 H         1 UNK         0.0600 
    240 H240       -5.1301  -19.7887  -55.5703 H         1 UNK         0.3000 
    241 H241       -3.5276  -18.4992  -54.9387 H         1 UNK         0.0600 
    242 H242       -4.1783  -14.7751  -54.1483 H         1 UNK         0.3800 
    243 H243       -3.9176  -16.0037  -52.9410 H         1 UNK         0.3800 
    244 H244       -3.9801  -19.5903  -52.8215 H         1 UNK         0.0800 
    245 H245       -3.2061  -18.0492  -52.6150 H         1 UNK         0.0800 
    246 H246       -5.5895  -18.8353  -49.4474 H         1 UNK         0.0800 
    247 H247       -4.5300  -19.8565  -50.3837 H         1 UNK         0.0800 
@<TRIPOS>BOND
     1    1    2 1    
     2    1  127 1    
     3    1  128 1    
     4    1  129 1    
     5    2    3 2    
     6    2    4 am   BACKBONE|DICT|INTERRES
     7    4    5 1    
     8    4  130 1    
     9    5    6 1    
    10    5   65 1    
    11    5  131 1    
    12    6    7 1    
    13    6  132 1    
    14    6  133 1    
    15    7    8 1    
    16    8    9 1    
    17    8  134 1    
    18    8  135 1    
    19    9   10 ar   
    20    9   14 ar   
    21   10   11 ar   
    22   10  136 1    
    23   11   12 ar   
    24   11  126 1    
    25   12   13 ar   
    26   12  137 1    
    27   13   14 ar   
    28   13   15 1    
    29   14  138 1    
    30   15   16 1    
    31   15  139 1    
    32   15  140 1    
    33   16   17 1    
    34   17   18 1    
    35   17  141 1    
    36   17  142 1    
    37   18   19 1    
    38   18   67 1    
    39   18  143 1    
    40   19   20 am   BACKBONE|DICT|INTERRES
    41   19  144 1    
    42   20   21 2    
    43   20   22 1    
    44   22   23 1    
    45   22   24 1    
    46   22  145 1    
    47   23  146 1    
    48   23  147 1    
    49   23  148 1    
    50   24   25 am   BACKBONE|DICT|INTERRES
    51   24  149 1    
    52   25   26 2    
    53   25   27 1    
    54   27   28 1    
    55   27   29 1    
    56   27  150 1    
    57   28  151 1    
    58   28  152 1    
    59   28  153 1    
    60   29   30 am   BACKBONE|DICT|INTERRES
    61   29  154 1    
    62   30   31 2    
    63   30   32 1    
    64   32   33 1    
    65   32   34 1    
    66   32  155 1    
    67   33  156 1    
    68   33  157 1    
    69   33  158 1    
    70   34   35 am   BACKBONE|DICT|INTERRES
    71   34  159 1    
    72   35   36 2    
    73   35   37 1    
    74   37   38 1    
    75   37   39 1    
    76   37  160 1    
    77   38  161 1    
    78   38  162 1    
    79   38  163 1    
    80   39   40 am   BACKBONE|DICT|INTERRES
    81   39  164 1    
    82   40   41 2    
    83   40   42 1    
    84   42   43 1    
    85   42   44 1    
    86   42  165 1    
    87   43  166 1    
    88   43  167 1    
    89   43  168 1    
    90   44   45 am   BACKBONE|DICT|INTERRES
    91   44  169 1    
    92   45   46 2    
    93   45   47 1    
    94   47   48 1    
    95   47   49 1    
    96   47  170 1    
    97   48  171 1    
    98   48  172 1    
    99   48  173 1    
   100   49   50 am   BACKBONE|DICT|INTERRES
   101   49  174 1    
   102   50   51 2    
   103   50   52 1    
   104   52   53 1    
   105   52   54 1    
   106   52  175 1    
   107   53  176 1    
   108   53  177 1    
   109   53  178 1    
   110   54   55 am   BACKBONE|DICT|INTERRES
   111   54  179 1    
   112   55   56 2    
   113   55   57 1    
   114   57   58 1    
   115   57   59 1    
   116   57  180 1    
   117   58  181 1    
   118   58  182 1    
   119   58  183 1    
   120   59   60 am   BACKBONE|DICT|INTERRES
   121   59  184 1    
   122   60   61 2    
   123   60   62 1    
   124   62   63 1    
   125   62   64 1    
   126   62  185 1    
   127   63  186 1    
   128   63  187 1    
   129   63  188 1    
   130   64   65 am   BACKBONE|DICT|INTERRES
   131   64  189 1    
   132   65   66 2    
   133   67   68 2    
   134   67   69 am   BACKBONE|DICT|INTERRES
   135   69   70 1    
   136   69  190 1    
   137   70   71 1    
   138   70   72 1    
   139   70  191 1    
   140   71  192 1    
   141   71  193 1    
   142   71  194 1    
   143   72   73 2    
   144   72   74 am   BACKBONE|DICT|INTERRES
   145   74   75 1    
   146   74  195 1    
   147   75   76 1    
   148   75   77 1    
   149   75  196 1    
   150   76  197 1    
   151   76  198 1    
   152   76  199 1    
   153   77   78 2    
   154   77   79 am   BACKBONE|DICT|INTERRES
   155   79   80 1    
   156   79  200 1    
   157   80   81 1    
   158   80   82 1    
   159   80  201 1    
   160   81  202 1    
   161   81  203 1    
   162   81  204 1    
   163   82   83 2    
   164   82   84 am   BACKBONE|DICT|INTERRES
   165   84   85 1    
   166   84  205 1    
   167   85   86 1    
   168   85   87 1    
   169   85  206 1    
   170   86  207 1    
   171   86  208 1    
   172   86  209 1    
   173   87   88 2    
   174   87   89 am   BACKBONE|DICT|INTERRES
   175   89   90 1    
   176   89  210 1    
   177   90   91 1    
   178   90   92 1    
   179   90  211 1    
   180   91  212 1    
   181   91  213 1    
   182   91  214 1    
   183   92   93 2    
   184   92   94 am   BACKBONE|DICT|INTERRES
   185   94   95 1    
   186   94  215 1    
   187   95   96 1    
   188   95   97 1    
   189   95  216 1    
   190   96  217 1    
   191   96  218 1    
   192   96  219 1    
   193   97   98 2    
   194   97   99 am   BACKBONE|DICT|INTERRES
   195   99  100 1    
   196   99  220 1    
   197  100  101 1    
   198  100  102 1    
   199  100  221 1    
   200  101  222 1    
   201  101  223 1    
   202  101  224 1    
   203  102  103 2    
   204  102  104 am   BACKBONE|DICT|INTERRES
   205  104  105 1    
   206  104  225 1    
   207  105  106 1    
   208  105  107 1    
   209  105  226 1    
   210  106  227 1    
   211  106  228 1    
   212  106  229 1    
   213  107  108 2    
   214  107  109 am   BACKBONE|DICT|INTERRES
   215  109  110 1    
   216  109  230 1    
   217  110  111 1    
   218  110  112 1    
   219  110  231 1    
   220  111  232 1    
   221  111  233 1    
   222  111  234 1    
   223  112  113 2    
   224  112  114 am   BACKBONE|DICT|INTERRES
   225  114  115 1    
   226  114  235 1    
   227  115  116 1    
   228  115  117 1    
   229  115  236 1    
   230  116  237 1    
   231  116  238 1    
   232  116  239 1    
   233  117  118 2    
   234  117  119 am   BACKBONE|DICT|INTERRES
   235  119  120 1    
   236  119  240 1    
   237  120  121 1    
   238  120  124 1    
   239  120  241 1    
   240  121  122 am   BACKBONE|DICT|INTERRES
   241  121  123 2    
   242  122  242 1    
   243  122  243 1    
   244  124  125 1    
   245  124  244 1    
   246  124  245 1    
   247  125  126 1    
   248  126  246 1    
   249  126  247 1    
@<TRIPOS>SUBSTRUCTURE
     1 UNK         1 GROUP             0       ****    0 ROOT    
