@<TRIPOS>MOLECULE
3R540
247   249    1
SMALL
USER_CHARGES


@<TRIPOS>ATOM
      1 CA         -4.8402  -10.6159  -45.2919 C.3       0 UNK        -0.1800 
      2 C          -3.9330  -10.6319  -46.5144 C.2       0 UNK         0.5000 
      3 O          -3.8738   -9.6439  -47.2473 O.2       0 UNK        -0.5000 
      4 N          -3.2369  -11.7521  -46.7401 N.am      1 UNK        -0.5000 
      5 CA         -2.2754  -11.9431  -47.8316 C.3       1 UNK         0.1400 
      6 C6         -1.8963  -13.4342  -48.0126 C.3       23 UNK        -0.0398 
      7 S7         -3.3400  -14.4605  -48.4431 S.3       23 UNK        -0.2404 
      8 C8         -2.6883  -16.1473  -48.1988 C.3       23 UNK        -0.0205 
      9 C9         -1.4717  -16.4833  -49.0583 C.ar      23 UNK        -0.0193 
     10 C10        -1.4070  -16.1068  -50.4051 C.ar      23 UNK        -0.1150 
     11 C11        -0.2918  -16.4274  -51.1845 C.ar      23 UNK        -0.0193 
     12 C12         0.7578  -17.1526  -50.6135 C.ar      23 UNK        -0.1150 
     13 C13         0.7043  -17.5462  -49.2741 C.ar      23 UNK        -0.0193 
     14 C14        -0.4101  -17.2031  -48.5009 C.ar      23 UNK        -0.1150 
     15 C15         1.8588  -18.3292  -48.6612 C.3       23 UNK        -0.0205 
     16 S16         1.8843  -20.0687  -49.2088 S.3       23 UNK        -0.2404 
     17 C17         0.2295  -20.6204  -48.6865 C.3       23 UNK        -0.0398 
     18 CA          0.1752  -22.0725  -48.1600 C.3       11 UNK         0.1400 
     19 N           1.1196  -22.2989  -47.0642 N.am      11 UNK        -0.5000 
     20 C           1.3192  -23.4584  -46.4207 C.2       10 UNK         0.5000 
     21 O           0.7599  -24.5134  -46.7161 O.2       10 UNK        -0.5000 
     22 CA          2.2562  -23.4071  -45.1961 C.3       10 UNK         0.1400 
     23 CB          3.6962  -23.7451  -45.6082 C.3       10 UNK        -0.1800 
     24 N           2.2397  -22.1089  -44.5130 N.am      10 UNK        -0.5000 
     25 C           1.1485  -21.5288  -43.9936 C.2       9 UNK         0.5000 
     26 O           0.0334  -22.0583  -43.9798 O.2       9 UNK        -0.5000 
     27 CA          1.3307  -20.0750  -43.5278 C.3       9 UNK         0.1400 
     28 CB          1.4434  -19.1571  -44.7563 C.3       9 UNK        -0.1800 
     29 N           0.2261  -19.6134  -42.6867 N.am      9 UNK        -0.5000 
     30 C           0.0502  -19.9767  -41.4072 C.2       8 UNK         0.5000 
     31 O           0.8210  -20.7313  -40.8116 O.2       8 UNK        -0.5000 
     32 CA         -1.1564  -19.3915  -40.6437 C.3       8 UNK         0.1400 
     33 CB         -0.6999  -18.6518  -39.3743 C.3       8 UNK        -0.1800 
     34 N          -1.9407  -18.4661  -41.4621 N.am      8 UNK        -0.5000 
     35 C          -3.1044  -18.7641  -42.0547 C.2       7 UNK         0.5000 
     36 O          -3.6832  -19.8410  -41.9120 O.2       7 UNK        -0.5000 
     37 CA         -3.7406  -17.6886  -42.9614 C.3       7 UNK         0.1400 
     38 CB         -4.9406  -17.0346  -42.2594 C.3       7 UNK        -0.1800 
     39 N          -2.8159  -16.6353  -43.3873 N.am      7 UNK        -0.5000 
     40 C          -1.7668  -16.8070  -44.2019 C.2       6 UNK         0.5000 
     41 O          -1.4681  -17.8902  -44.7022 O.2       6 UNK        -0.5000 
     42 CA         -0.8815  -15.5748  -44.4820 C.3       6 UNK         0.1400 
     43 CB         -1.5959  -14.2285  -44.2329 C.3       6 UNK        -0.1800 
     44 N           0.3862  -15.6119  -43.7480 N.am      6 UNK        -0.5000 
     45 C           0.5812  -15.7871  -42.4331 C.2       5 UNK         0.5000 
     46 O          -0.3302  -16.0089  -41.6351 O.2       5 UNK        -0.5000 
     47 CA          2.0229  -15.6634  -41.8900 C.3       5 UNK         0.1400 
     48 CB          2.6436  -17.0445  -41.6067 C.3       5 UNK        -0.1800 
     49 N           2.9310  -14.8216  -42.6854 N.am      5 UNK        -0.5000 
     50 C           3.4175  -15.0394  -43.9145 C.2       4 UNK         0.5000 
     51 O           3.1667  -16.0385  -44.5910 O.2       4 UNK        -0.5000 
     52 CA          4.3229  -13.9353  -44.4922 C.3       4 UNK         0.1400 
     53 CB          5.8022  -14.2772  -44.2586 C.3       4 UNK        -0.1800 
     54 N           4.1005  -13.7280  -45.9246 N.am      4 UNK        -0.5000 
     55 C           2.9417  -13.3386  -46.4716 C.2       3 UNK         0.5000 
     56 O           1.9227  -13.0913  -45.8216 O.2       3 UNK        -0.5000 
     57 CA          2.9138  -13.2446  -48.0088 C.3       3 UNK         0.1400 
     58 CB          2.5024  -14.5949  -48.6137 C.3       3 UNK        -0.1800 
     59 N           1.9771  -12.2236  -48.4730 N.am      3 UNK        -0.5000 
     60 C           2.1223  -10.9022  -48.3023 C.2       2 UNK         0.5000 
     61 O           3.1343  -10.3792  -47.8332 O.2       2 UNK        -0.5000 
     62 CA          0.9355  -10.0142  -48.7300 C.3       2 UNK         0.1400 
     63 CB          1.1780   -9.4300  -50.1304 C.3       2 UNK        -0.1800 
     64 N          -0.3456  -10.7286  -48.7265 N.am      2 UNK        -0.5000 
     65 C          -1.0047  -11.0934  -47.6179 C.2       1 UNK         0.5000 
     66 O          -0.6294  -10.8157  -46.4763 O.2       1 UNK        -0.5000 
     67 C          -1.2804  -22.3924  -47.7590 C.2       11 UNK         0.5000 
     68 O          -2.0300  -22.9622  -48.5543 O.2       11 UNK        -0.5000 
     69 N          -1.6485  -21.9893  -46.5351 N.am      12 UNK        -0.5000 
     70 CA         -2.9668  -22.2059  -45.9519 C.3       12 UNK         0.1400 
     71 CB         -3.2173  -21.1598  -44.8592 C.3       12 UNK        -0.1800 
     72 C          -3.1011  -23.6333  -45.4018 C.2       12 UNK         0.5000 
     73 O          -4.1507  -24.2514  -45.5786 O.2       12 UNK        -0.5000 
     74 N          -2.0239  -24.1459  -44.7866 N.am      13 UNK        -0.5000 
     75 CA         -1.9327  -25.5089  -44.2549 C.3       13 UNK         0.1400 
     76 CB         -0.6029  -25.6828  -43.5084 C.3       13 UNK        -0.1800 
     77 C          -2.0928  -26.5964  -45.3355 C.2       13 UNK         0.5000 
     78 O          -2.6842  -27.6414  -45.0608 O.2       13 UNK        -0.5000 
     79 N          -1.6210  -26.3141  -46.5580 N.am      14 UNK        -0.5000 
     80 CA         -1.7841  -27.1299  -47.7645 C.3       14 UNK         0.1400 
     81 CB         -0.7218  -26.6968  -48.7909 C.3       14 UNK        -0.1800 
     82 C          -3.2186  -27.0649  -48.3408 C.2       14 UNK         0.5000 
     83 O          -3.3988  -26.7669  -49.5236 O.2       14 UNK        -0.5000 
     84 N          -4.2203  -27.3108  -47.4820 N.am      15 UNK        -0.5000 
     85 CA         -5.6669  -27.3340  -47.7482 C.3       15 UNK         0.1400 
     86 CB         -6.0211  -28.5761  -48.5915 C.3       15 UNK        -0.1800 
     87 C          -6.2215  -26.0315  -48.3704 C.2       15 UNK         0.5000 
     88 O          -7.2424  -26.0664  -49.0591 O.2       15 UNK        -0.5000 
     89 N          -5.5099  -24.9162  -48.1510 N.am      16 UNK        -0.5000 
     90 CA         -5.6761  -23.5974  -48.7687 C.3       16 UNK         0.1400 
     91 CB         -6.9847  -22.9331  -48.2981 C.3       16 UNK        -0.1800 
     92 C          -5.5231  -23.5771  -50.3064 C.2       16 UNK         0.5000 
     93 O          -5.8516  -22.5660  -50.9268 O.2       16 UNK        -0.5000 
     94 N          -5.0094  -24.6612  -50.9063 N.am      17 UNK        -0.5000 
     95 CA         -4.8448  -24.7997  -52.3523 C.3       17 UNK         0.1400 
     96 CB         -4.6090  -26.2753  -52.7071 C.3       17 UNK        -0.1800 
     97 C          -3.7036  -23.9166  -52.8738 C.2       17 UNK         0.5000 
     98 O          -3.8775  -23.2104  -53.8665 O.2       17 UNK        -0.5000 
     99 N          -2.5724  -23.9269  -52.1580 N.am      18 UNK        -0.5000 
    100 CA        -1.4141  -23.0851  -52.4503 C.3       18 UNK         0.1400 
    101 CB        -0.1998  -23.6022  -51.6694 C.3       18 UNK        -0.1800 
    102 C         -1.6835  -21.5928  -52.1805 C.2       18 UNK         0.5000 
    103 O         -1.1930  -20.7527  -52.9320 O.2       18 UNK        -0.5000 
    104 N         -2.4974  -21.2942  -51.1567 N.am      19 UNK        -0.5000 
    105 CA        -2.9743  -19.9443  -50.8369 C.3       19 UNK         0.1400 
    106 CB        -3.6152  -19.9464  -49.4393 C.3       19 UNK        -0.1800 
    107 C         -3.9588  -19.3776  -51.8787 C.2       19 UNK         0.5000 
    108 O         -4.0572  -18.1587  -52.0120 O.2       19 UNK        -0.5000 
    109 N         -4.6762  -20.2574  -52.5893 N.am      20 UNK        -0.5000 
    110 CA        -5.5434  -19.8907  -53.7056 C.3       20 UNK         0.1400 
    111 CB        -6.6469  -20.9477  -53.8694 C.3       20 UNK        -0.1800 
    112 C         -4.7407  -19.7251  -55.0078 C.2       20 UNK         0.5000 
    113 O         -4.9789  -18.7701  -55.7481 O.2       20 UNK        -0.5000 
    114 N         -3.8208  -20.6640  -55.2715 N.am      21 UNK        -0.5000 
    115 CA        -3.0081  -20.7114  -56.4856 C.3       21 UNK         0.1400 
    116 CB        -2.3673  -22.1022  -56.6172 C.3       21 UNK        -0.1800 
    117 C         -1.9356  -19.6098  -56.5469 C.2       21 UNK         0.5000 
    118 O         -1.8335  -18.9266  -57.5668 O.2       21 UNK        -0.5000 
    119 N         -1.1494  -19.4727  -55.4696 N.am      22 UNK        -0.5000 
    120 CA        -0.0220  -18.5310  -55.3258 C.3       22 UNK         0.1400 
    121 C          1.1480  -18.7389  -56.3395 C.2       22 UNK         0.5000 
    122 N          1.2963  -19.9120  -56.9434 N.am      22 UNK        -0.7600 
    123 O          1.9579  -17.8424  -56.5612 O.2       22 UNK        -0.5000 
    124 C124       -0.4902  -17.0524  -55.2221 C.3       23 UNK        -0.0398 
    125 S125       -1.4436  -16.7731  -53.6918 S.3       23 UNK        -0.2404 
    126 C126       -0.2029  -15.9631  -52.6313 C.3       23 UNK        -0.0205 
    127 H127       -4.5453   -9.8126  -44.6168 H         1 UNK         0.0600 
    128 H128       -4.7957  -11.5559  -44.7411 H         1 UNK         0.0600 
    129 H129       -5.8740  -10.4473  -45.5935 H         1 UNK         0.0600 
    130 H130       -3.3291  -12.5266  -46.1009 H         1 UNK         0.3000 
    131 H131       -2.7522  -11.5995  -48.7526 H         1 UNK         0.0600 
    132 H132       -1.4281  -13.8282  -47.1101 H         1 UNK         0.0800 
    133 H133       -1.1633  -13.5506  -48.8127 H         1 UNK         0.0800 
    134 H134       -3.4818  -16.8562  -48.4329 H         1 UNK         0.0800 
    135 H135       -2.4618  -16.2818  -47.1412 H         1 UNK         0.0800 
    136 H136       -2.2249  -15.5599  -50.8525 H         1 UNK         0.1150 
    137 H137        1.6232  -17.4098  -51.2079 H         1 UNK         0.1150 
    138 H138       -0.4534  -17.5037  -47.4630 H         1 UNK         0.1150 
    139 H139        2.8023  -17.8592  -48.9416 H         1 UNK         0.0800 
    140 H140        1.8142  -18.2901  -47.5722 H         1 UNK         0.0800 
    141 H141       -0.4275  -20.5001  -49.5465 H         1 UNK         0.0800 
    142 H142       -0.1427  -19.9380  -47.9209 H         1 UNK         0.0800 
    143 H143        0.4662  -22.7459  -48.9641 H         1 UNK         0.0600 
    144 H144        1.6544  -21.4961  -46.7698 H         1 UNK         0.3000 
    145 H145        1.9197  -24.1595  -44.4824 H         1 UNK         0.0600 
    146 H146        4.3556  -23.7873  -44.7412 H         1 UNK         0.0600 
    147 H147        3.7430  -24.7188  -46.0978 H         1 UNK         0.0600 
    148 H148        4.1004  -23.0082  -46.3035 H         1 UNK         0.0600 
    149 H149        3.1157  -21.6067  -44.4924 H         1 UNK         0.3000 
    150 H150        2.2557  -20.0068  -42.9517 H         1 UNK         0.0600 
    151 H151        2.3656  -19.3460  -45.3066 H         1 UNK         0.0600 
    152 H152        1.4531  -18.1071  -44.4711 H         1 UNK         0.0600 
    153 H153        0.6134  -19.3034  -45.4482 H         1 UNK         0.0600 
    154 H154       -0.4758  -19.0417  -43.1399 H         1 UNK         0.3000 
    155 H155       -1.7718  -20.2375  -40.3316 H         1 UNK         0.0600 
    156 H156       -0.0494  -17.8090  -39.6083 H         1 UNK         0.0600 
    157 H157       -0.1496  -19.3158  -38.7067 H         1 UNK         0.0600 
    158 H158       -1.5537  -18.2685  -38.8154 H         1 UNK         0.0600 
    159 H159       -1.5300  -17.5481  -41.6118 H         1 UNK         0.3000 
    160 H160       -4.1044  -18.1963  -43.8570 H         1 UNK         0.0600 
    161 H161       -4.6353  -16.4944  -41.3624 H         1 UNK         0.0600 
    162 H162       -5.6741  -17.7836  -41.9578 H         1 UNK         0.0600 
    163 H163       -5.4497  -16.3318  -42.9193 H         1 UNK         0.0600 
    164 H164       -2.9613  -15.7216  -42.9835 H         1 UNK         0.3000 
    165 H165       -0.6214  -15.6209  -45.5403 H         1 UNK         0.0600 
    166 H166       -1.7979  -14.0569  -43.1751 H         1 UNK         0.0600 
    167 H167       -0.9850  -13.3970  -44.5866 H         1 UNK         0.0600 
    168 H168       -2.5451  -14.1804  -44.7677 H         1 UNK         0.0600 
    169 H169        1.2209  -15.5121  -44.3149 H         1 UNK         0.3000 
    170 H170        1.9294  -15.1545  -40.9294 H         1 UNK         0.0600 
    171 H171        2.0041  -17.6348  -40.9507 H         1 UNK         0.0600 
    172 H172        2.7952  -17.6210  -42.5177 H         1 UNK         0.0600 
    173 H173        3.6095  -16.9458  -41.1117 H         1 UNK         0.0600 
    174 H174        3.1816  -13.9502  -42.2386 H         1 UNK         0.3000 
    175 H175        4.0989  -12.9950  -43.9841 H         1 UNK         0.0600 
    176 H176        6.0866  -15.1990  -44.7681 H         1 UNK         0.0600 
    177 H177        6.4541  -13.4799  -44.6162 H         1 UNK         0.0600 
    178 H178        6.0093  -14.4128  -43.1962 H         1 UNK         0.0600 
    179 H179        4.8759  -13.9510  -46.5310 H         1 UNK         0.3000 
    180 H180        3.9119  -12.9844  -48.3674 H         1 UNK         0.0600 
    181 H181        2.5065  -14.5620  -49.7034 H         1 UNK         0.0600 
    182 H182        1.5025  -14.8875  -48.2908 H         1 UNK         0.0600 
    183 H183        3.1887  -15.3861  -48.3098 H         1 UNK         0.0600 
    184 H184        1.1059  -12.5567  -48.8530 H         1 UNK         0.3000 
    185 H185        0.8717   -9.1857  -48.0213 H         1 UNK         0.0600 
    186 H186        0.3784   -8.7466  -50.4170 H         1 UNK         0.0600 
    187 H187        2.1116   -8.8665  -50.1619 H         1 UNK         0.0600 
    188 H188        1.2412  -10.2118  -50.8883 H         1 UNK         0.0600 
    189 H189       -0.7240  -10.9714  -49.6311 H         1 UNK         0.3000 
    190 H190       -0.9541  -21.5875  -45.9194 H         1 UNK         0.3000 
    191 H191       -3.7229  -22.0599  -46.7230 H         1 UNK         0.0600 
    192 H192       -4.2141  -21.2732  -44.4314 H         1 UNK         0.0600 
    193 H193       -3.1475  -20.1484  -45.2598 H         1 UNK         0.0600 
    194 H194       -2.4998  -21.2449  -44.0428 H         1 UNK         0.0600 
    195 H195       -1.2180  -23.5457  -44.6482 H         1 UNK         0.3000 
    196 H196       -2.7456  -25.6320  -43.5364 H         1 UNK         0.0600 
    197 H197        0.2425  -25.6822  -44.1952 H         1 UNK         0.0600 
    198 H198       -0.4475  -24.8896  -42.7766 H         1 UNK         0.0600 
    199 H199       -0.5825  -26.6319  -42.9716 H         1 UNK         0.0600 
    200 H200       -1.0976  -25.4533  -46.6748 H         1 UNK         0.3000 
    201 H201       -1.5919  -28.1728  -47.5053 H         1 UNK         0.0600 
    202 H202       -0.8496  -25.6528  -49.0787 H         1 UNK         0.0600 
    203 H203       -0.7769  -27.3005  -49.6976 H         1 UNK         0.0600 
    204 H204        0.2846  -26.8100  -48.3877 H         1 UNK         0.0600 
    205 H205       -3.9486  -27.5157  -46.5244 H         1 UNK         0.3000 
    206 H206       -6.1549  -27.4375  -46.7783 H         1 UNK         0.0600 
    207 H207       -5.6371  -29.4871  -48.1324 H         1 UNK         0.0600 
    208 H208       -7.1011  -28.6945  -48.6860 H         1 UNK         0.0600 
    209 H209       -5.6089  -28.5088  -49.5990 H         1 UNK         0.0600 
    210 H210       -4.7279  -24.9901  -47.5107 H         1 UNK         0.3000 
    211 H211       -4.8502  -22.9944  -48.3975 H         1 UNK         0.0600 
    212 H212       -7.0427  -21.8972  -48.6342 H         1 UNK         0.0600 
    213 H213       -7.0506  -22.9229  -47.2100 H         1 UNK         0.0600 
    214 H214       -7.8628  -23.4511  -48.6841 H         1 UNK         0.0600 
    215 H215       -4.6938  -25.4385  -50.3347 H         1 UNK         0.3000 
    216 H216       -5.7689  -24.4775  -52.8373 H         1 UNK         0.0600 
    217 H217       -3.6929  -26.6599  -52.2572 H         1 UNK         0.0600 
    218 H218       -4.5255  -26.4076  -53.7865 H         1 UNK         0.0600 
    219 H219       -5.4353  -26.8987  -52.3648 H         1 UNK         0.0600 
    220 H220       -2.5207  -24.5197  -51.3413 H         1 UNK         0.3000 
    221 H221       -1.1845  -23.1778  -53.5138 H         1 UNK         0.0600 
    222 H222        0.1717  -24.5312  -52.1020 H         1 UNK         0.0600 
    223 H223       -0.4570  -23.8085  -50.6332 H         1 UNK         0.0600 
    224 H224        0.6226  -22.8852  -51.6808 H         1 UNK         0.0600 
    225 H225       -2.8277  -22.0472  -50.5685 H         1 UNK         0.3000 
    226 H226       -2.1138  -19.2713  -50.8165 H         1 UNK         0.0600 
    227 H227       -4.3939  -20.7039  -49.3536 H         1 UNK         0.0600 
    228 H228       -2.8751  -20.1295  -48.6623 H         1 UNK         0.0600 
    229 H229       -4.0765  -18.9841  -49.2182 H         1 UNK         0.0600 
    230 H230       -4.5991  -21.2424  -52.3742 H         1 UNK         0.3000 
    231 H231       -6.0289  -18.9374  -53.4856 H         1 UNK         0.0600 
    232 H232       -6.2378  -21.9350  -54.0842 H         1 UNK         0.0600 
    233 H233       -7.3191  -20.6857  -54.6873 H         1 UNK         0.0600 
    234 H234       -7.2502  -21.0280  -52.9649 H         1 UNK         0.0600 
    235 H235       -3.7322  -21.4525  -54.6373 H         1 UNK         0.3000 
    236 H236       -3.6742  -20.5716  -57.3398 H         1 UNK         0.0600 
    237 H237       -3.1277  -22.8819  -56.6675 H         1 UNK         0.0600 
    238 H238       -1.7685  -22.1734  -57.5260 H         1 UNK         0.0600 
    239 H239       -1.7151  -22.3280  -55.7732 H         1 UNK         0.0600 
    240 H240       -1.3186  -20.0535  -54.6517 H         1 UNK         0.3000 
    241 H241        0.4334  -18.7848  -54.3677 H         1 UNK         0.0600 
    242 H242        2.0593  -20.0447  -57.5887 H         1 UNK         0.3800 
    243 H243        0.6538  -20.6660  -56.7634 H         1 UNK         0.3800 
    244 H244       -1.1107  -16.7831  -56.0773 H         1 UNK         0.0800 
    245 H245        0.3515  -16.3592  -55.2417 H         1 UNK         0.0800 
    246 H246        0.8003  -16.1520  -53.0154 H         1 UNK         0.0800 
    247 H247       -0.3480  -14.8830  -52.6751 H         1 UNK         0.0800 
@<TRIPOS>BOND
     1    1    2 1    
     2    1  127 1    
     3    1  128 1    
     4    1  129 1    
     5    2    3 2    
     6    2    4 am   BACKBONE|DICT|INTERRES
     7    4    5 1    
     8    4  130 1    
     9    5    6 1    
    10    5   65 1    
    11    5  131 1    
    12    6    7 1    
    13    6  132 1    
    14    6  133 1    
    15    7    8 1    
    16    8    9 1    
    17    8  134 1    
    18    8  135 1    
    19    9   10 ar   
    20    9   14 ar   
    21   10   11 ar   
    22   10  136 1    
    23   11   12 ar   
    24   11  126 1    
    25   12   13 ar   
    26   12  137 1    
    27   13   14 ar   
    28   13   15 1    
    29   14  138 1    
    30   15   16 1    
    31   15  139 1    
    32   15  140 1    
    33   16   17 1    
    34   17   18 1    
    35   17  141 1    
    36   17  142 1    
    37   18   19 1    
    38   18   67 1    
    39   18  143 1    
    40   19   20 am   BACKBONE|DICT|INTERRES
    41   19  144 1    
    42   20   21 2    
    43   20   22 1    
    44   22   23 1    
    45   22   24 1    
    46   22  145 1    
    47   23  146 1    
    48   23  147 1    
    49   23  148 1    
    50   24   25 am   BACKBONE|DICT|INTERRES
    51   24  149 1    
    52   25   26 2    
    53   25   27 1    
    54   27   28 1    
    55   27   29 1    
    56   27  150 1    
    57   28  151 1    
    58   28  152 1    
    59   28  153 1    
    60   29   30 am   BACKBONE|DICT|INTERRES
    61   29  154 1    
    62   30   31 2    
    63   30   32 1    
    64   32   33 1    
    65   32   34 1    
    66   32  155 1    
    67   33  156 1    
    68   33  157 1    
    69   33  158 1    
    70   34   35 am   BACKBONE|DICT|INTERRES
    71   34  159 1    
    72   35   36 2    
    73   35   37 1    
    74   37   38 1    
    75   37   39 1    
    76   37  160 1    
    77   38  161 1    
    78   38  162 1    
    79   38  163 1    
    80   39   40 am   BACKBONE|DICT|INTERRES
    81   39  164 1    
    82   40   41 2    
    83   40   42 1    
    84   42   43 1    
    85   42   44 1    
    86   42  165 1    
    87   43  166 1    
    88   43  167 1    
    89   43  168 1    
    90   44   45 am   BACKBONE|DICT|INTERRES
    91   44  169 1    
    92   45   46 2    
    93   45   47 1    
    94   47   48 1    
    95   47   49 1    
    96   47  170 1    
    97   48  171 1    
    98   48  172 1    
    99   48  173 1    
   100   49   50 am   BACKBONE|DICT|INTERRES
   101   49  174 1    
   102   50   51 2    
   103   50   52 1    
   104   52   53 1    
   105   52   54 1    
   106   52  175 1    
   107   53  176 1    
   108   53  177 1    
   109   53  178 1    
   110   54   55 am   BACKBONE|DICT|INTERRES
   111   54  179 1    
   112   55   56 2    
   113   55   57 1    
   114   57   58 1    
   115   57   59 1    
   116   57  180 1    
   117   58  181 1    
   118   58  182 1    
   119   58  183 1    
   120   59   60 am   BACKBONE|DICT|INTERRES
   121   59  184 1    
   122   60   61 2    
   123   60   62 1    
   124   62   63 1    
   125   62   64 1    
   126   62  185 1    
   127   63  186 1    
   128   63  187 1    
   129   63  188 1    
   130   64   65 am   BACKBONE|DICT|INTERRES
   131   64  189 1    
   132   65   66 2    
   133   67   68 2    
   134   67   69 am   BACKBONE|DICT|INTERRES
   135   69   70 1    
   136   69  190 1    
   137   70   71 1    
   138   70   72 1    
   139   70  191 1    
   140   71  192 1    
   141   71  193 1    
   142   71  194 1    
   143   72   73 2    
   144   72   74 am   BACKBONE|DICT|INTERRES
   145   74   75 1    
   146   74  195 1    
   147   75   76 1    
   148   75   77 1    
   149   75  196 1    
   150   76  197 1    
   151   76  198 1    
   152   76  199 1    
   153   77   78 2    
   154   77   79 am   BACKBONE|DICT|INTERRES
   155   79   80 1    
   156   79  200 1    
   157   80   81 1    
   158   80   82 1    
   159   80  201 1    
   160   81  202 1    
   161   81  203 1    
   162   81  204 1    
   163   82   83 2    
   164   82   84 am   BACKBONE|DICT|INTERRES
   165   84   85 1    
   166   84  205 1    
   167   85   86 1    
   168   85   87 1    
   169   85  206 1    
   170   86  207 1    
   171   86  208 1    
   172   86  209 1    
   173   87   88 2    
   174   87   89 am   BACKBONE|DICT|INTERRES
   175   89   90 1    
   176   89  210 1    
   177   90   91 1    
   178   90   92 1    
   179   90  211 1    
   180   91  212 1    
   181   91  213 1    
   182   91  214 1    
   183   92   93 2    
   184   92   94 am   BACKBONE|DICT|INTERRES
   185   94   95 1    
   186   94  215 1    
   187   95   96 1    
   188   95   97 1    
   189   95  216 1    
   190   96  217 1    
   191   96  218 1    
   192   96  219 1    
   193   97   98 2    
   194   97   99 am   BACKBONE|DICT|INTERRES
   195   99  100 1    
   196   99  220 1    
   197  100  101 1    
   198  100  102 1    
   199  100  221 1    
   200  101  222 1    
   201  101  223 1    
   202  101  224 1    
   203  102  103 2    
   204  102  104 am   BACKBONE|DICT|INTERRES
   205  104  105 1    
   206  104  225 1    
   207  105  106 1    
   208  105  107 1    
   209  105  226 1    
   210  106  227 1    
   211  106  228 1    
   212  106  229 1    
   213  107  108 2    
   214  107  109 am   BACKBONE|DICT|INTERRES
   215  109  110 1    
   216  109  230 1    
   217  110  111 1    
   218  110  112 1    
   219  110  231 1    
   220  111  232 1    
   221  111  233 1    
   222  111  234 1    
   223  112  113 2    
   224  112  114 am   BACKBONE|DICT|INTERRES
   225  114  115 1    
   226  114  235 1    
   227  115  116 1    
   228  115  117 1    
   229  115  236 1    
   230  116  237 1    
   231  116  238 1    
   232  116  239 1    
   233  117  118 2    
   234  117  119 am   BACKBONE|DICT|INTERRES
   235  119  120 1    
   236  119  240 1    
   237  120  121 1    
   238  120  124 1    
   239  120  241 1    
   240  121  122 am   BACKBONE|DICT|INTERRES
   241  121  123 2    
   242  122  242 1    
   243  122  243 1    
   244  124  125 1    
   245  124  244 1    
   246  124  245 1    
   247  125  126 1    
   248  126  246 1    
   249  126  247 1    
@<TRIPOS>SUBSTRUCTURE
     1 UNK         1 GROUP             0       ****    0 ROOT    
