@<TRIPOS>MOLECULE
3R540
247   249    1
SMALL
USER_CHARGES


@<TRIPOS>ATOM
      1 CA          8.5056  -13.3042  -48.9842 C.3       0 UNK        -0.1800 
      2 C           7.3276  -12.7666  -48.1838 C.2       0 UNK         0.5000 
      3 O           7.1825  -11.5509  -48.0567 O.2       0 UNK        -0.5000 
      4 N           6.4954  -13.6706  -47.6472 N.am      1 UNK        -0.5000 
      5 CA          5.2948  -13.3909  -46.8448 C.3       1 UNK         0.1400 
      6 C6          4.1560  -12.6818  -47.6293 C.3       23 UNK        -0.0398 
      7 S7          3.6335  -13.6098  -49.1079 S.3       23 UNK        -0.2404 
      8 C8          2.2443  -14.5685  -48.4343 C.3       23 UNK        -0.0205 
      9 C9          1.6665  -15.4915  -49.4922 C.ar      23 UNK        -0.0193 
     10 C10         0.5379  -15.1099  -50.2234 C.ar      23 UNK        -0.1150 
     11 C11         0.0141  -15.9560  -51.2043 C.ar      23 UNK        -0.0193 
     12 C12         0.6357  -17.1805  -51.4617 C.ar      23 UNK        -0.1150 
     13 C13         1.7512  -17.5824  -50.7231 C.ar      23 UNK        -0.0193 
     14 C14         2.2621  -16.7323  -49.7380 C.ar      23 UNK        -0.1150 
     15 C15         2.3954  -18.9393  -50.9797 C.3       23 UNK        -0.0205 
     16 S16         1.2408  -20.3250  -50.7063 S.3       23 UNK        -0.2404 
     17 C17         0.6287  -19.9469  -49.0307 C.3       23 UNK        -0.0398 
     18 CA          0.1867  -21.1969  -48.2373 C.3       11 UNK         0.1400 
     19 N           0.1184  -20.9120  -46.8026 N.am      11 UNK        -0.5000 
     20 C          -0.0692  -21.8268  -45.8429 C.2       10 UNK         0.5000 
     21 O          -0.1449  -23.0355  -46.0576 O.2       10 UNK        -0.5000 
     22 CA         -0.2599  -21.2974  -44.4098 C.3       10 UNK         0.1400 
     23 CB          1.0945  -21.0025  -43.7493 C.3       10 UNK        -0.1800 
     24 N          -1.1083  -20.1044  -44.3626 N.am      10 UNK        -0.5000 
     25 C          -2.3997  -20.0849  -44.7242 C.2       9 UNK         0.5000 
     26 O          -3.0222  -21.0863  -45.0756 O.2       9 UNK        -0.5000 
     27 CA         -3.1045  -18.7168  -44.7449 C.3       9 UNK         0.1400 
     28 CB         -3.5596  -18.3187  -43.3336 C.3       9 UNK        -0.1800 
     29 N          -2.2735  -17.6578  -45.3208 N.am      9 UNK        -0.5000 
     30 C          -1.8393  -17.6372  -46.5898 C.2       8 UNK         0.5000 
     31 O          -2.1310  -18.4951  -47.4216 O.2       8 UNK        -0.5000 
     32 CA         -0.8696  -16.5057  -46.9804 C.3       8 UNK         0.1400 
     33 CB         -1.6264  -15.2018  -47.2715 C.3       8 UNK        -0.1800 
     34 N           0.1519  -16.2707  -45.9580 N.am      8 UNK        -0.5000 
     35 C           1.0726  -17.1757  -45.5949 C.2       7 UNK         0.5000 
     36 O           1.2013  -18.2743  -46.1337 O.2       7 UNK        -0.5000 
     37 CA          1.9554  -16.8195  -44.3870 C.3       7 UNK         0.1400 
     38 CB          3.1485  -15.9448  -44.8038 C.3       7 UNK        -0.1800 
     39 N           1.1803  -16.1626  -43.3329 N.am      7 UNK        -0.5000 
     40 C           0.2762  -16.7973  -42.5709 C.2       6 UNK         0.5000 
     41 O           0.0666  -18.0083  -42.6326 O.2       6 UNK        -0.5000 
     42 CA         -0.5766  -15.9356  -41.6225 C.3       6 UNK         0.1400 
     43 CB          0.0737  -15.8213  -40.2378 C.3       6 UNK        -0.1800 
     44 N          -0.8349  -14.6019  -42.1668 N.am      6 UNK        -0.5000 
     45 C          -1.6833  -14.3739  -43.1803 C.2       5 UNK         0.5000 
     46 O          -2.3418  -15.2599  -43.7226 O.2       5 UNK        -0.5000 
     47 CA         -1.7903  -12.9333  -43.7120 C.3       5 UNK         0.1400 
     48 CB         -2.9083  -12.1734  -42.9834 C.3       5 UNK        -0.1800 
     49 N          -0.5450  -12.1740  -43.6071 N.am      5 UNK        -0.5000 
     50 C           0.6083  -12.4922  -44.2093 C.2       4 UNK         0.5000 
     51 O           0.7487  -13.4825  -44.9301 O.2       4 UNK        -0.5000 
     52 CA          1.8172  -11.5719  -43.9440 C.3       4 UNK         0.1400 
     53 CB          1.4609  -10.2485  -43.2304 C.3       4 UNK        -0.1800 
     54 N           2.8914  -12.2556  -43.2182 N.am      4 UNK        -0.5000 
     55 C           2.8095  -12.8939  -42.0391 C.2       3 UNK         0.5000 
     56 O           1.7531  -13.0428  -41.4231 O.2       3 UNK        -0.5000 
     57 CA          4.1153  -13.4676  -41.4444 C.3       3 UNK         0.1400 
     58 CB          3.9324  -14.9111  -40.9454 C.3       3 UNK        -0.1800 
     59 N           5.2277  -13.4333  -42.3979 N.am      3 UNK        -0.5000 
     60 C           6.1855  -12.4968  -42.4285 C.2       2 UNK         0.5000 
     61 O           6.2725  -11.5758  -41.6157 O.2       2 UNK        -0.5000 
     62 CA          7.2046  -12.5858  -43.5834 C.3       2 UNK         0.1400 
     63 CB          8.4394  -13.3899  -43.1493 C.3       2 UNK        -0.1800 
     64 N           6.6692  -13.1631  -44.8227 N.am      2 UNK        -0.5000 
     65 C           5.6441  -12.6622  -45.5284 C.2       1 UNK         0.5000 
     66 O           4.9936  -11.6798  -45.1696 O.2       1 UNK        -0.5000 
     67 C          -1.1402  -21.7852  -48.7678 C.2       11 UNK         0.5000 
     68 O          -1.1198  -22.7885  -49.4805 O.2       11 UNK        -0.5000 
     69 N          -2.2730  -21.1894  -48.3691 N.am      12 UNK        -0.5000 
     70 CA         -3.6174  -21.6560  -48.7091 C.3       12 UNK         0.1400 
     71 CB         -4.6510  -20.6063  -48.2739 C.3       12 UNK        -0.1800 
     72 C          -3.9516  -23.0386  -48.1144 C.2       12 UNK         0.5000 
     73 O          -4.6088  -23.8424  -48.7783 O.2       12 UNK        -0.5000 
     74 N          -3.4705  -23.3015  -46.8913 N.am      13 UNK        -0.5000 
     75 CA         -3.5477  -24.6033  -46.2306 C.3       13 UNK         0.1400 
     76 CB         -3.1513  -24.4663  -44.7532 C.3       13 UNK        -0.1800 
     77 C          -2.6867  -25.6628  -46.9417 C.2       13 UNK         0.5000 
     78 O          -3.1657  -26.7725  -47.1757 O.2       13 UNK        -0.5000 
     79 N          -1.4516  -25.2907  -47.3109 N.am      14 UNK        -0.5000 
     80 CA         -0.5124  -26.1275  -48.0630 C.3       14 UNK         0.1400 
     81 CB          0.8561  -25.4343  -48.1384 C.3       14 UNK        -0.1800 
     82 C          -1.0168  -26.4979  -49.4708 C.2       14 UNK         0.5000 
     83 O          -0.7370  -27.6015  -49.9415 O.2       14 UNK        -0.5000 
     84 N          -1.8012  -25.6078  -50.0944 N.am      15 UNK        -0.5000 
     85 CA         -2.5220  -25.8160  -51.3534 C.3       15 UNK         0.1400 
     86 CB         -2.9026  -24.4437  -51.9402 C.3       15 UNK        -0.1800 
     87 C          -3.7454  -26.7487  -51.1877 C.2       15 UNK         0.5000 
     88 O          -4.8617  -26.3805  -51.5584 O.2       15 UNK        -0.5000 
     89 N          -3.5150  -27.9350  -50.6041 N.am      16 UNK        -0.5000 
     90 CA         -4.4595  -29.0333  -50.3529 C.3       16 UNK         0.1400 
     91 CB         -4.8435  -29.7026  -51.6887 C.3       16 UNK        -0.1800 
     92 C          -5.7029  -28.6349  -49.5253 C.2       16 UNK         0.5000 
     93 O          -6.7472  -29.2779  -49.6448 O.2       16 UNK        -0.5000 
     94 N          -5.5812  -27.5570  -48.7352 N.am      17 UNK        -0.5000 
     95 CA         -6.6454  -26.8428  -48.0197 C.3       17 UNK         0.1400 
     96 CB         -7.2060  -27.7055  -46.8713 C.3       17 UNK        -0.1800 
     97 C          -7.7540  -26.2756  -48.9385 C.2       17 UNK         0.5000 
     98 O          -8.8387  -25.9494  -48.4537 O.2       17 UNK        -0.5000 
     99 N          -7.4667  -26.1563  -50.2416 N.am      18 UNK        -0.5000 
    100 CA        -8.3857  -25.6850  -51.2764 C.3       18 UNK         0.1400 
    101 CB        -8.2369  -26.5970  -52.5056 C.3       18 UNK        -0.1800 
    102 C         -8.1204  -24.2185  -51.6594 C.2       18 UNK         0.5000 
    103 O         -8.8568  -23.6705  -52.4806 O.2       18 UNK        -0.5000 
    104 N         -7.0627  -23.6174  -51.0949 N.am      19 UNK        -0.5000 
    105 CA        -6.5610  -22.2516  -51.2835 C.3       19 UNK         0.1400 
    106 CB        -7.6132  -21.1968  -50.8941 C.3       19 UNK        -0.1800 
    107 C         -5.9646  -21.9564  -52.6717 C.2       19 UNK         0.5000 
    108 O         -4.9957  -21.2013  -52.7492 O.2       19 UNK        -0.5000 
    109 N         -6.5475  -22.5324  -53.7332 N.am      20 UNK        -0.5000 
    110 CA        -6.1404  -22.4419  -55.1419 C.3       20 UNK         0.1400 
    111 CB        -4.8310  -23.2265  -55.3634 C.3       20 UNK        -0.1800 
    112 C         -6.0598  -20.9888  -55.6601 C.2       20 UNK         0.5000 
    113 O         -5.1662  -20.6566  -56.4415 O.2       20 UNK        -0.5000 
    114 N         -6.9655  -20.1330  -55.1589 N.am      21 UNK        -0.5000 
    115 CA        -7.0317  -18.6803  -55.3735 C.3       21 UNK         0.1400 
    116 CB        -7.4371  -18.3690  -56.8293 C.3       21 UNK        -0.1800 
    117 C         -5.7498  -17.9291  -54.9399 C.2       21 UNK         0.5000 
    118 O         -5.4590  -16.8553  -55.4696 O.2       21 UNK        -0.5000 
    119 N         -5.0014  -18.5131  -53.9927 N.am      22 UNK        -0.5000 
    120 CA        -3.6650  -18.0874  -53.5508 C.3       22 UNK         0.1400 
    121 C         -2.5348  -18.3498  -54.5979 C.2       22 UNK         0.5000 
    122 N         -2.7600  -19.1340  -55.6468 N.am      22 UNK        -0.7600 
    123 O         -1.4193  -17.8608  -54.4546 O.2       22 UNK        -0.5000 
    124 C124       -3.6563  -16.6461  -52.9531 C.3       23 UNK        -0.0398 
    125 S125       -2.6688  -16.5219  -51.4228 S.3       23 UNK        -0.2404 
    126 C126       -1.2267  -15.5649  -51.9875 C.3       23 UNK        -0.0205 
    127 H127        8.5110  -14.3939  -49.0174 H         1 UNK         0.0600 
    128 H128        9.4439  -12.9730  -48.5393 H         1 UNK         0.0600 
    129 H129        8.4629  -12.9336  -50.0084 H         1 UNK         0.0600 
    130 H130        6.6818  -14.6504  -47.8088 H         1 UNK         0.3000 
    131 H131        4.9133  -14.3658  -46.5411 H         1 UNK         0.0600 
    132 H132        4.4708  -11.6867  -47.9468 H         1 UNK         0.0800 
    133 H133        3.2836  -12.5302  -46.9909 H         1 UNK         0.0800 
    134 H134        2.5857  -15.1578  -47.5838 H         1 UNK         0.0800 
    135 H135        1.4770  -13.8914  -48.0553 H         1 UNK         0.0800 
    136 H136        0.0670  -14.1570  -50.0269 H         1 UNK         0.1150 
    137 H137        0.2302  -17.8361  -52.2203 H         1 UNK         0.1150 
    138 H138        3.1278  -17.0309  -49.1636 H         1 UNK         0.1150 
    139 H139        2.7547  -18.9744  -52.0089 H         1 UNK         0.0800 
    140 H140        3.2701  -19.0796  -50.3428 H         1 UNK         0.0800 
    141 H141        1.4390  -19.4514  -48.4947 H         1 UNK         0.0800 
    142 H142       -0.1759  -19.2134  -49.1026 H         1 UNK         0.0800 
    143 H143        0.9553  -21.9625  -48.3628 H         1 UNK         0.0600 
    144 H144        0.2222  -19.9391  -46.5301 H         1 UNK         0.3000 
    145 H145       -0.7543  -22.0801  -43.8309 H         1 UNK         0.0600 
    146 H146        0.9678  -20.6995  -42.7098 H         1 UNK         0.0600 
    147 H147        1.7320  -21.8874  -43.7548 H         1 UNK         0.0600 
    148 H148        1.6320  -20.2074  -44.2658 H         1 UNK         0.0600 
    149 H149       -0.6763  -19.2501  -44.0255 H         1 UNK         0.3000 
    150 H150       -3.9945  -18.8123  -45.3699 H         1 UNK         0.0600 
    151 H151       -4.2132  -19.0800  -42.9061 H         1 UNK         0.0600 
    152 H152       -4.1176  -17.3824  -43.3477 H         1 UNK         0.0600 
    153 H153       -2.7140  -18.1963  -42.6575 H         1 UNK         0.0600 
    154 H154       -2.0508  -16.8748  -44.7130 H         1 UNK         0.3000 
    155 H155       -0.3595  -16.8127  -47.8954 H         1 UNK         0.0600 
    156 H156       -2.3214  -15.3369  -48.1013 H         1 UNK         0.0600 
    157 H157       -0.9427  -14.3995  -47.5475 H         1 UNK         0.0600 
    158 H158       -2.2042  -14.8673  -46.4104 H         1 UNK         0.0600 
    159 H159        0.1410  -15.3715  -45.4891 H         1 UNK         0.3000 
    160 H160        2.3552  -17.7538  -43.9867 H         1 UNK         0.0600 
    161 H161        2.8376  -14.9557  -45.1364 H         1 UNK         0.0600 
    162 H162        3.6992  -16.4095  -45.6226 H         1 UNK         0.0600 
    163 H163        3.8507  -15.8166  -43.9821 H         1 UNK         0.0600 
    164 H164        1.2414  -15.1559  -43.2752 H         1 UNK         0.3000 
    165 H165       -1.5349  -16.4419  -41.4912 H         1 UNK         0.0600 
    166 H166       -0.5664  -15.2734  -39.5463 H         1 UNK         0.0600 
    167 H167        0.2504  -16.8076  -39.8069 H         1 UNK         0.0600 
    168 H168        1.0314  -15.3079  -40.2839 H         1 UNK         0.0600 
    169 H169       -0.2776  -13.8388  -41.8001 H         1 UNK         0.3000 
    170 H170       -2.0518  -12.9929  -44.7702 H         1 UNK         0.0600 
    171 H171       -3.8580  -12.7041  -43.0644 H         1 UNK         0.0600 
    172 H172       -2.6882  -12.0540  -41.9218 H         1 UNK         0.0600 
    173 H173       -3.0550  -11.1812  -43.4107 H         1 UNK         0.0600 
    174 H174       -0.5626  -11.3595  -43.0110 H         1 UNK         0.3000 
    175 H175        2.2193  -11.3169  -44.9252 H         1 UNK         0.0600 
    176 H176        1.0880  -10.4111  -42.2185 H         1 UNK         0.0600 
    177 H177        2.3370   -9.6042  -43.1553 H         1 UNK         0.0600 
    178 H178        0.7039   -9.6910  -43.7836 H         1 UNK         0.0600 
    179 H179        3.8014  -12.1812  -43.6597 H         1 UNK         0.3000 
    180 H180        4.3575  -12.8529  -40.5753 H         1 UNK         0.0600 
    181 H181        3.5003  -15.5597  -41.7061 H         1 UNK         0.0600 
    182 H182        3.2750  -14.9373  -40.0770 H         1 UNK         0.0600 
    183 H183        4.8825  -15.3455  -40.6339 H         1 UNK         0.0600 
    184 H184        5.2431  -14.1539  -43.1042 H         1 UNK         0.3000 
    185 H185        7.5251  -11.5669  -43.8105 H         1 UNK         0.0600 
    186 H186        8.8801  -12.9716  -42.2433 H         1 UNK         0.0600 
    187 H187        8.1892  -14.4311  -42.9420 H         1 UNK         0.0600 
    188 H188        9.2109  -13.3759  -43.9195 H         1 UNK         0.0600 
    189 H189        7.1618  -13.9628  -45.1938 H         1 UNK         0.3000 
    190 H190       -2.2121  -20.3315  -47.8257 H         1 UNK         0.3000 
    191 H191       -3.6563  -21.7461  -49.7960 H         1 UNK         0.0600 
    192 H192       -4.4869  -19.6578  -48.7859 H         1 UNK         0.0600 
    193 H193       -5.6664  -20.9300  -48.5032 H         1 UNK         0.0600 
    194 H194       -4.6052  -20.4190  -47.2014 H         1 UNK         0.0600 
    195 H195       -3.0152  -22.5536  -46.3764 H         1 UNK         0.3000 
    196 H196       -4.5860  -24.9350  -46.2635 H         1 UNK         0.0600 
    197 H197       -3.2393  -25.4226  -44.2364 H         1 UNK         0.0600 
    198 H198       -3.7978  -23.7564  -44.2369 H         1 UNK         0.0600 
    199 H199       -2.1231  -24.1250  -44.6376 H         1 UNK         0.0600 
    200 H200       -1.1146  -24.3723  -47.0343 H         1 UNK         0.3000 
    201 H201       -0.3879  -27.0589  -47.5070 H         1 UNK         0.0600 
    202 H202        1.2549  -25.2396  -47.1427 H         1 UNK         0.0600 
    203 H203        0.7985  -24.4836  -48.6677 H         1 UNK         0.0600 
    204 H204        1.5813  -26.0579  -48.6626 H         1 UNK         0.0600 
    205 H205       -1.9235  -24.7018  -49.6554 H         1 UNK         0.3000 
    206 H206       -1.8456  -26.3012  -52.0596 H         1 UNK         0.0600 
    207 H207       -2.0221  -23.8181  -52.0872 H         1 UNK         0.0600 
    208 H208       -3.3887  -24.5520  -52.9102 H         1 UNK         0.0600 
    209 H209       -3.5894  -23.9031  -51.2891 H         1 UNK         0.0600 
    210 H210       -2.5574  -28.1089  -50.3112 H         1 UNK         0.3000 
    211 H211       -3.9206  -29.7681  -49.7533 H         1 UNK         0.0600 
    212 H212       -5.4390  -29.0370  -52.3147 H         1 UNK         0.0600 
    213 H213       -5.4284  -30.6081  -51.5234 H         1 UNK         0.0600 
    214 H214       -3.9576  -29.9915  -52.2543 H         1 UNK         0.0600 
    215 H215       -4.6604  -27.1407  -48.6546 H         1 UNK         0.3000 
    216 H216       -6.1686  -25.9713  -47.5729 H         1 UNK         0.0600 
    217 H217       -7.8848  -27.1288  -46.2420 H         1 UNK         0.0600 
    218 H218       -6.4053  -28.0727  -46.2292 H         1 UNK         0.0600 
    219 H219       -7.7599  -28.5671  -47.2447 H         1 UNK         0.0600 
    220 H220       -6.5370  -26.4122  -50.5648 H         1 UNK         0.3000 
    221 H221       -9.4174  -25.7512  -50.9256 H         1 UNK         0.0600 
    222 H222       -7.2365  -26.5340  -52.9358 H         1 UNK         0.0600 
    223 H223       -8.4235  -27.6395  -52.2467 H         1 UNK         0.0600 
    224 H224       -8.9480  -26.3241  -53.2863 H         1 UNK         0.0600 
    225 H225       -6.5042  -24.1837  -50.4693 H         1 UNK         0.3000 
    226 H226       -5.7379  -22.1583  -50.5808 H         1 UNK         0.0600 
    227 H227       -7.9843  -21.3659  -49.8833 H         1 UNK         0.0600 
    228 H228       -7.1841  -20.1942  -50.9185 H         1 UNK         0.0600 
    229 H229       -8.4679  -21.2003  -51.5708 H         1 UNK         0.0600 
    230 H230       -7.3830  -23.0794  -53.5451 H         1 UNK         0.3000 
    231 H231       -6.9237  -22.9300  -55.7232 H         1 UNK         0.0600 
    232 H232       -3.9908  -22.7639  -54.8442 H         1 UNK         0.0600 
    233 H233       -4.5757  -23.2748  -56.4226 H         1 UNK         0.0600 
    234 H234       -4.9221  -24.2522  -55.0060 H         1 UNK         0.0600 
    235 H235       -7.6452  -20.5076  -54.5119 H         1 UNK         0.3000 
    236 H236       -7.8274  -18.3125  -54.7242 H         1 UNK         0.0600 
    237 H237       -8.3462  -18.9018  -57.1080 H         1 UNK         0.0600 
    238 H238       -7.6337  -17.3047  -56.9634 H         1 UNK         0.0600 
    239 H239       -6.6547  -18.6480  -57.5357 H         1 UNK         0.0600 
    240 H240       -5.2868  -19.4192  -53.6364 H         1 UNK         0.3000 
    241 H241       -3.4379  -18.7831  -52.7422 H         1 UNK         0.0600 
    242 H242       -2.0132  -19.2959  -56.3029 H         1 UNK         0.3800 
    243 H243       -3.6624  -19.5718  -55.8034 H         1 UNK         0.3800 
    244 H244       -3.3335  -15.9082  -53.6893 H         1 UNK         0.0800 
    245 H245       -4.6680  -16.3480  -52.6754 H         1 UNK         0.0800 
    246 H246       -1.0404  -15.7342  -53.0478 H         1 UNK         0.0800 
    247 H247       -1.4386  -14.5002  -51.8798 H         1 UNK         0.0800 
@<TRIPOS>BOND
     1    1    2 1    
     2    1  127 1    
     3    1  128 1    
     4    1  129 1    
     5    2    3 2    
     6    2    4 am   BACKBONE|DICT|INTERRES
     7    4    5 1    
     8    4  130 1    
     9    5    6 1    
    10    5   65 1    
    11    5  131 1    
    12    6    7 1    
    13    6  132 1    
    14    6  133 1    
    15    7    8 1    
    16    8    9 1    
    17    8  134 1    
    18    8  135 1    
    19    9   10 ar   
    20    9   14 ar   
    21   10   11 ar   
    22   10  136 1    
    23   11   12 ar   
    24   11  126 1    
    25   12   13 ar   
    26   12  137 1    
    27   13   14 ar   
    28   13   15 1    
    29   14  138 1    
    30   15   16 1    
    31   15  139 1    
    32   15  140 1    
    33   16   17 1    
    34   17   18 1    
    35   17  141 1    
    36   17  142 1    
    37   18   19 1    
    38   18   67 1    
    39   18  143 1    
    40   19   20 am   BACKBONE|DICT|INTERRES
    41   19  144 1    
    42   20   21 2    
    43   20   22 1    
    44   22   23 1    
    45   22   24 1    
    46   22  145 1    
    47   23  146 1    
    48   23  147 1    
    49   23  148 1    
    50   24   25 am   BACKBONE|DICT|INTERRES
    51   24  149 1    
    52   25   26 2    
    53   25   27 1    
    54   27   28 1    
    55   27   29 1    
    56   27  150 1    
    57   28  151 1    
    58   28  152 1    
    59   28  153 1    
    60   29   30 am   BACKBONE|DICT|INTERRES
    61   29  154 1    
    62   30   31 2    
    63   30   32 1    
    64   32   33 1    
    65   32   34 1    
    66   32  155 1    
    67   33  156 1    
    68   33  157 1    
    69   33  158 1    
    70   34   35 am   BACKBONE|DICT|INTERRES
    71   34  159 1    
    72   35   36 2    
    73   35   37 1    
    74   37   38 1    
    75   37   39 1    
    76   37  160 1    
    77   38  161 1    
    78   38  162 1    
    79   38  163 1    
    80   39   40 am   BACKBONE|DICT|INTERRES
    81   39  164 1    
    82   40   41 2    
    83   40   42 1    
    84   42   43 1    
    85   42   44 1    
    86   42  165 1    
    87   43  166 1    
    88   43  167 1    
    89   43  168 1    
    90   44   45 am   BACKBONE|DICT|INTERRES
    91   44  169 1    
    92   45   46 2    
    93   45   47 1    
    94   47   48 1    
    95   47   49 1    
    96   47  170 1    
    97   48  171 1    
    98   48  172 1    
    99   48  173 1    
   100   49   50 am   BACKBONE|DICT|INTERRES
   101   49  174 1    
   102   50   51 2    
   103   50   52 1    
   104   52   53 1    
   105   52   54 1    
   106   52  175 1    
   107   53  176 1    
   108   53  177 1    
   109   53  178 1    
   110   54   55 am   BACKBONE|DICT|INTERRES
   111   54  179 1    
   112   55   56 2    
   113   55   57 1    
   114   57   58 1    
   115   57   59 1    
   116   57  180 1    
   117   58  181 1    
   118   58  182 1    
   119   58  183 1    
   120   59   60 am   BACKBONE|DICT|INTERRES
   121   59  184 1    
   122   60   61 2    
   123   60   62 1    
   124   62   63 1    
   125   62   64 1    
   126   62  185 1    
   127   63  186 1    
   128   63  187 1    
   129   63  188 1    
   130   64   65 am   BACKBONE|DICT|INTERRES
   131   64  189 1    
   132   65   66 2    
   133   67   68 2    
   134   67   69 am   BACKBONE|DICT|INTERRES
   135   69   70 1    
   136   69  190 1    
   137   70   71 1    
   138   70   72 1    
   139   70  191 1    
   140   71  192 1    
   141   71  193 1    
   142   71  194 1    
   143   72   73 2    
   144   72   74 am   BACKBONE|DICT|INTERRES
   145   74   75 1    
   146   74  195 1    
   147   75   76 1    
   148   75   77 1    
   149   75  196 1    
   150   76  197 1    
   151   76  198 1    
   152   76  199 1    
   153   77   78 2    
   154   77   79 am   BACKBONE|DICT|INTERRES
   155   79   80 1    
   156   79  200 1    
   157   80   81 1    
   158   80   82 1    
   159   80  201 1    
   160   81  202 1    
   161   81  203 1    
   162   81  204 1    
   163   82   83 2    
   164   82   84 am   BACKBONE|DICT|INTERRES
   165   84   85 1    
   166   84  205 1    
   167   85   86 1    
   168   85   87 1    
   169   85  206 1    
   170   86  207 1    
   171   86  208 1    
   172   86  209 1    
   173   87   88 2    
   174   87   89 am   BACKBONE|DICT|INTERRES
   175   89   90 1    
   176   89  210 1    
   177   90   91 1    
   178   90   92 1    
   179   90  211 1    
   180   91  212 1    
   181   91  213 1    
   182   91  214 1    
   183   92   93 2    
   184   92   94 am   BACKBONE|DICT|INTERRES
   185   94   95 1    
   186   94  215 1    
   187   95   96 1    
   188   95   97 1    
   189   95  216 1    
   190   96  217 1    
   191   96  218 1    
   192   96  219 1    
   193   97   98 2    
   194   97   99 am   BACKBONE|DICT|INTERRES
   195   99  100 1    
   196   99  220 1    
   197  100  101 1    
   198  100  102 1    
   199  100  221 1    
   200  101  222 1    
   201  101  223 1    
   202  101  224 1    
   203  102  103 2    
   204  102  104 am   BACKBONE|DICT|INTERRES
   205  104  105 1    
   206  104  225 1    
   207  105  106 1    
   208  105  107 1    
   209  105  226 1    
   210  106  227 1    
   211  106  228 1    
   212  106  229 1    
   213  107  108 2    
   214  107  109 am   BACKBONE|DICT|INTERRES
   215  109  110 1    
   216  109  230 1    
   217  110  111 1    
   218  110  112 1    
   219  110  231 1    
   220  111  232 1    
   221  111  233 1    
   222  111  234 1    
   223  112  113 2    
   224  112  114 am   BACKBONE|DICT|INTERRES
   225  114  115 1    
   226  114  235 1    
   227  115  116 1    
   228  115  117 1    
   229  115  236 1    
   230  116  237 1    
   231  116  238 1    
   232  116  239 1    
   233  117  118 2    
   234  117  119 am   BACKBONE|DICT|INTERRES
   235  119  120 1    
   236  119  240 1    
   237  120  121 1    
   238  120  124 1    
   239  120  241 1    
   240  121  122 am   BACKBONE|DICT|INTERRES
   241  121  123 2    
   242  122  242 1    
   243  122  243 1    
   244  124  125 1    
   245  124  244 1    
   246  124  245 1    
   247  125  126 1    
   248  126  246 1    
   249  126  247 1    
@<TRIPOS>SUBSTRUCTURE
     1 UNK         1 GROUP             0       ****    0 ROOT    
