@<TRIPOS>MOLECULE
3R540
247   249    1
SMALL
USER_CHARGES


@<TRIPOS>ATOM
      1 CA          1.2994  -12.7537  -42.7990 C.3       0 UNK        -0.1800 
      2 C           0.1623  -12.6460  -43.8038 C.2       0 UNK         0.5000 
      3 O          -0.9729  -12.3646  -43.4187 O.2       0 UNK        -0.5000 
      4 N           0.4628  -12.8642  -45.0855 N.am      1 UNK        -0.5000 
      5 CA         -0.4800  -12.7923  -46.1992 C.3       1 UNK         0.1400 
      6 C6         -1.3114  -14.0938  -46.3647 C.3       23 UNK        -0.0398 
      7 S7         -0.3312  -15.5709  -46.8195 S.3       23 UNK        -0.2404 
      8 C8         -1.1523  -16.1112  -48.3575 C.3       23 UNK        -0.0205 
      9 C9         -2.6239  -16.4439  -48.1400 C.ar      23 UNK        -0.0193 
     10 C10        -3.6267  -15.7578  -48.8337 C.ar      23 UNK        -0.1150 
     11 C11        -4.9762  -16.0543  -48.6086 C.ar      23 UNK        -0.0193 
     12 C12        -5.3189  -17.0372  -47.6736 C.ar      23 UNK        -0.1150 
     13 C13        -4.3251  -17.7316  -46.9792 C.ar      23 UNK        -0.0193 
     14 C14        -2.9834  -17.4372  -47.2277 C.ar      23 UNK        -0.1150 
     15 C15        -4.6900  -18.7793  -45.9406 C.3       23 UNK        -0.0205 
     16 S16        -5.0252  -20.3949  -46.7044 S.3       23 UNK        -0.2404 
     17 C17        -4.6462  -21.5231  -45.3204 C.3       23 UNK        -0.0398 
     18 CA         -3.3523  -22.3359  -45.5790 C.3       11 UNK         0.1400 
     19 N          -2.6490  -22.6616  -44.3339 N.am      11 UNK        -0.5000 
     20 C          -1.4383  -23.2279  -44.2471 C.2       10 UNK         0.5000 
     21 O          -0.8426  -23.7037  -45.2152 O.2       10 UNK        -0.5000 
     22 CA         -0.7822  -23.2522  -42.8500 C.3       10 UNK         0.1400 
     23 CB          0.7080  -23.6342  -42.9097 C.3       10 UNK        -0.1800 
     24 N          -0.8964  -21.9669  -42.1572 N.am      10 UNK        -0.5000 
     25 C          -1.9598  -21.5408  -41.4632 C.2       9 UNK         0.5000 
     26 O          -3.0165  -22.1683  -41.3874 O.2       9 UNK        -0.5000 
     27 CA         -1.8308  -20.1727  -40.7768 C.3       9 UNK         0.1400 
     28 CB         -0.8474  -20.2377  -39.5971 C.3       9 UNK        -0.1800 
     29 N          -1.3755  -19.1677  -41.7324 N.am      9 UNK        -0.5000 
     30 C          -2.1842  -18.3841  -42.4592 C.2       8 UNK         0.5000 
     31 O          -3.4098  -18.3639  -42.3430 O.2       8 UNK        -0.5000 
     32 CA         -1.5078  -17.4814  -43.5096 C.3       8 UNK         0.1400 
     33 CB         -1.1415  -16.1235  -42.8955 C.3       8 UNK        -0.1800 
     34 N          -0.3074  -18.0901  -44.0840 N.am      8 UNK        -0.5000 
     35 C          -0.3129  -19.2017  -44.8358 C.2       7 UNK         0.5000 
     36 O          -1.3391  -19.7802  -45.1811 O.2       7 UNK        -0.5000 
     37 CA          1.0437  -19.7908  -45.2619 C.3       7 UNK         0.1400 
     38 CB          1.3538  -19.3811  -46.7076 C.3       7 UNK        -0.1800 
     39 N           2.1608  -19.4014  -44.3994 N.am      7 UNK        -0.5000 
     40 C           2.2593  -19.6640  -43.0884 C.2       6 UNK         0.5000 
     41 O           1.4173  -20.3002  -42.4523 O.2       6 UNK        -0.5000 
     42 CA          3.4745  -19.0695  -42.3530 C.3       6 UNK         0.1400 
     43 CB          4.6038  -20.1066  -42.2673 C.3       6 UNK        -0.1800 
     44 N           4.0005  -17.8317  -42.9438 N.am      6 UNK        -0.5000 
     45 C           3.3150  -16.6860  -43.0825 C.2       5 UNK         0.5000 
     46 O           2.1152  -16.5730  -42.8333 O.2       5 UNK        -0.5000 
     47 CA          4.0951  -15.4755  -43.6140 C.3       5 UNK         0.1400 
     48 CB          5.4334  -15.2717  -42.8803 C.3       5 UNK        -0.1800 
     49 N           4.3401  -15.6354  -45.0456 N.am      5 UNK        -0.5000 
     50 C           3.7915  -14.8789  -46.0031 C.2       4 UNK         0.5000 
     51 O           3.0234  -13.9383  -45.7889 O.2       4 UNK        -0.5000 
     52 CA          4.1720  -15.2411  -47.4450 C.3       4 UNK         0.1400 
     53 CB          3.4354  -16.5070  -47.9149 C.3       4 UNK        -0.1800 
     54 N           3.8639  -14.1267  -48.3370 N.am      4 UNK        -0.5000 
     55 C           4.4246  -13.9297  -49.5362 C.2       3 UNK         0.5000 
     56 O           5.2779  -14.6817  -50.0120 O.2       3 UNK        -0.5000 
     57 CA          3.9833  -12.6776  -50.3270 C.3       3 UNK         0.1400 
     58 CB          4.2226  -12.8150  -51.8458 C.3       3 UNK        -0.1800 
     59 N           2.6055  -12.2479  -50.0620 N.am      3 UNK        -0.5000 
     60 C           1.4752  -12.9326  -50.2884 C.2       2 UNK         0.5000 
     61 O           1.4333  -14.0855  -50.7202 O.2       2 UNK        -0.5000 
     62 CA          0.1646  -12.1873  -49.9615 C.3       2 UNK         0.1400 
     63 CB         -0.9251  -12.4697  -51.0104 C.3       2 UNK        -0.1800 
     64 N          -0.3577  -12.5341  -48.6411 N.am      2 UNK        -0.5000 
     65 C           0.2572  -12.3203  -47.4703 C.2       1 UNK         0.5000 
     66 O           1.3449  -11.7453  -47.3724 O.2       1 UNK        -0.5000 
     67 C          -3.6222  -23.5616  -46.4708 C.2       11 UNK         0.5000 
     68 O          -3.4098  -23.4862  -47.6806 O.2       11 UNK        -0.5000 
     69 N          -4.0460  -24.6737  -45.8559 N.am      12 UNK        -0.5000 
     70 CA         -4.3390  -25.9297  -46.5478 C.3       12 UNK         0.1400 
     71 CB         -5.1484  -26.8416  -45.6134 C.3       12 UNK        -0.1800 
     72 C          -3.0755  -26.6548  -47.0477 C.2       12 UNK         0.5000 
     73 O          -3.1302  -27.3176  -48.0835 O.2       12 UNK        -0.5000 
     74 N          -1.9661  -26.5176  -46.3091 N.am      13 UNK        -0.5000 
     75 CA         -0.6805  -27.1364  -46.6312 C.3       13 UNK         0.1400 
     76 CB          0.1623  -27.2579  -45.3528 C.3       13 UNK        -0.1800 
     77 C           0.0760  -26.3474  -47.7114 C.2       13 UNK         0.5000 
     78 O           0.6142  -26.9476  -48.6421 O.2       13 UNK        -0.5000 
     79 N           0.0893  -25.0151  -47.5748 N.am      14 UNK        -0.5000 
     80 CA          0.7403  -24.0913  -48.5035 C.3       14 UNK         0.1400 
     81 CB          1.0329  -22.7785  -47.7588 C.3       14 UNK        -0.1800 
     82 C          -0.0973  -23.8051  -49.7636 C.2       14 UNK         0.5000 
     83 O           0.4249  -23.2033  -50.7023 O.2       14 UNK        -0.5000 
     84 N          -1.3884  -24.1692  -49.7406 N.am      15 UNK        -0.5000 
     85 CA         -2.4198  -23.8479  -50.7342 C.3       15 UNK         0.1400 
     86 CB         -2.1585  -24.5886  -52.0615 C.3       15 UNK        -0.1800 
     87 C          -2.5804  -22.3248  -50.9159 C.2       15 UNK         0.5000 
     88 O          -2.7000  -21.8469  -52.0451 O.2       15 UNK        -0.5000 
     89 N          -2.5504  -21.5942  -49.7917 N.am      16 UNK        -0.5000 
     90 CA         -2.5136  -20.1301  -49.6838 C.3       16 UNK         0.1400 
     91 CB         -3.8356  -19.5118  -50.1714 C.3       16 UNK        -0.1800 
     92 C          -1.2790  -19.5057  -50.3697 C.2       16 UNK         0.5000 
     93 O          -1.3909  -18.4654  -51.0162 O.2       16 UNK        -0.5000 
     94 N          -0.1245  -20.1724  -50.2204 N.am      17 UNK        -0.5000 
     95 CA          1.1566  -19.8749  -50.8714 C.3       17 UNK         0.1400 
     96 CB          1.7027  -18.4962  -50.4426 C.3       17 UNK        -0.1800 
     97 C           1.0663  -20.0549  -52.4008 C.2       17 UNK         0.5000 
     98 O           1.4422  -19.1596  -53.1597 O.2       17 UNK        -0.5000 
     99 N           0.5566  -21.2275  -52.8081 N.am      18 UNK        -0.5000 
    100 CA         0.3114  -21.6639  -54.1861 C.3       18 UNK         0.1400 
    101 CB         1.6445  -21.8900  -54.9294 C.3       18 UNK        -0.1800 
    102 C         -0.6621  -20.7372  -54.9468 C.2       18 UNK         0.5000 
    103 O         -0.3933  -20.3513  -56.0863 O.2       18 UNK        -0.5000 
    104 N         -1.7839  -20.4078  -54.2965 N.am      19 UNK        -0.5000 
    105 CA        -2.8586  -19.5624  -54.8184 C.3       19 UNK         0.1400 
    106 CB        -2.9004  -18.2436  -54.0268 C.3       19 UNK        -0.1800 
    107 C         -4.2063  -20.3075  -54.7829 C.2       19 UNK         0.5000 
    108 O         -5.2536  -19.6729  -54.6503 O.2       19 UNK        -0.5000 
    109 N         -4.1573  -21.6455  -54.8857 N.am      20 UNK        -0.5000 
    110 CA        -5.2902  -22.5795  -54.9415 C.3       20 UNK         0.1400 
    111 CB        -6.0341  -22.4324  -56.2853 C.3       20 UNK        -0.1800 
    112 C         -6.2341  -22.4865  -53.7220 C.2       20 UNK         0.5000 
    113 O         -7.4490  -22.6241  -53.8703 O.2       20 UNK        -0.5000 
    114 N         -5.6465  -22.2406  -52.5416 N.am      21 UNK        -0.5000 
    115 CA        -6.3095  -22.0228  -51.2485 C.3       21 UNK         0.1400 
    116 CB        -7.1378  -23.2501  -50.8144 C.3       21 UNK        -0.1800 
    117 C         -7.0945  -20.6931  -51.1639 C.2       21 UNK         0.5000 
    118 O         -7.9421  -20.5416  -50.2827 O.2       21 UNK        -0.5000 
    119 N         -6.7498  -19.7337  -52.0340 N.am      22 UNK        -0.5000 
    120 CA        -7.2618  -18.3566  -52.0767 C.3       22 UNK         0.1400 
    121 C         -8.7369  -18.2341  -52.5659 C.2       22 UNK         0.5000 
    122 N         -9.3128  -17.0394  -52.5303 N.am      22 UNK        -0.7600 
    123 O         -9.3618  -19.1936  -53.0128 O.2       22 UNK        -0.5000 
    124 C124       -6.9753  -17.5757  -50.7560 C.3       23 UNK        -0.0398 
    125 S125       -6.3006  -15.9083  -51.0575 S.3       23 UNK        -0.2404 
    126 C126       -6.0654  -15.2972  -49.3570 C.3       23 UNK        -0.0205 
    127 H127        2.2644  -12.5804  -43.2754 H         1 UNK         0.0600 
    128 H128        1.3062  -13.7453  -42.3460 H         1 UNK         0.0600 
    129 H129        1.1792  -12.0146  -42.0070 H         1 UNK         0.0600 
    130 H130        1.4182  -13.0932  -45.3589 H         1 UNK         0.3000 
    131 H131       -1.1845  -11.9868  -45.9817 H         1 UNK         0.0600 
    132 H132       -2.1125  -13.9363  -47.0866 H         1 UNK         0.0800 
    133 H133       -1.8256  -14.3176  -45.4296 H         1 UNK         0.0800 
    134 H134       -0.6392  -16.9981  -48.7301 H         1 UNK         0.0800 
    135 H135       -1.0298  -15.3459  -49.1247 H         1 UNK         0.0800 
    136 H136       -3.3613  -14.9934  -49.5502 H         1 UNK         0.1150 
    137 H137       -6.3588  -17.2653  -47.4864 H         1 UNK         0.1150 
    138 H138       -2.2094  -17.9681  -46.6968 H         1 UNK         0.1150 
    139 H139       -3.8764  -18.8742  -45.2210 H         1 UNK         0.0800 
    140 H140       -5.5642  -18.4583  -45.3727 H         1 UNK         0.0800 
    141 H141       -5.5045  -22.1740  -45.1441 H         1 UNK         0.0800 
    142 H142       -4.5440  -20.9313  -44.4095 H         1 UNK         0.0800 
    143 H143       -2.6624  -21.7064  -46.1430 H         1 UNK         0.0600 
    144 H144       -3.0629  -22.3255  -43.4727 H         1 UNK         0.3000 
    145 H145       -1.2989  -24.0161  -42.2657 H         1 UNK         0.0600 
    146 H146        1.1562  -23.6322  -41.9160 H         1 UNK         0.0600 
    147 H147        0.8436  -24.6340  -43.3208 H         1 UNK         0.0600 
    148 H148        1.2754  -22.9416  -43.5329 H         1 UNK         0.0600 
    149 H149       -0.0767  -21.3665  -42.2094 H         1 UNK         0.3000 
    150 H150       -2.8107  -19.8968  -40.3813 H         1 UNK         0.0600 
    151 H151       -1.1591  -20.9893  -38.8707 H         1 UNK         0.0600 
    152 H152       -0.7990  -19.2819  -39.0750 H         1 UNK         0.0600 
    153 H153        0.1629  -20.4917  -39.9201 H         1 UNK         0.0600 
    154 H154       -0.3843  -19.1570  -41.9369 H         1 UNK         0.3000 
    155 H155       -2.2189  -17.3067  -44.3187 H         1 UNK         0.0600 
    156 H156       -0.4884  -16.2347  -42.0292 H         1 UNK         0.0600 
    157 H157       -2.0336  -15.5876  -42.5697 H         1 UNK         0.0600 
    158 H158       -0.6267  -15.4933  -43.6195 H         1 UNK         0.0600 
    159 H159        0.5776  -17.6628  -43.8352 H         1 UNK         0.3000 
    160 H160        0.9552  -20.8785  -45.2201 H         1 UNK         0.0600 
    161 H161        1.4214  -18.2979  -46.8042 H         1 UNK         0.0600 
    162 H162        0.5662  -19.7153  -47.3838 H         1 UNK         0.0600 
    163 H163        2.2903  -19.8161  -47.0568 H         1 UNK         0.0600 
    164 H164        2.8952  -18.8585  -44.8272 H         1 UNK         0.3000 
    165 H165        3.1497  -18.8350  -41.3372 H         1 UNK         0.0600 
    166 H166        5.4306  -19.7412  -41.6579 H         1 UNK         0.0600 
    167 H167        4.2508  -21.0325  -41.8107 H         1 UNK         0.0600 
    168 H168        4.9967  -20.3562  -43.2537 H         1 UNK         0.0600 
    169 H169        4.9824  -17.8367  -43.1767 H         1 UNK         0.3000 
    170 H170        3.4826  -14.5942  -43.4220 H         1 UNK         0.0600 
    171 H171        5.2854  -15.2282  -41.8004 H         1 UNK         0.0600 
    172 H172        6.1463  -16.0706  -43.0859 H         1 UNK         0.0600 
    173 H173        5.8985  -14.3324  -43.1799 H         1 UNK         0.0600 
    174 H174        4.9468  -16.3963  -45.3153 H         1 UNK         0.3000 
    175 H175        5.2488  -15.4225  -47.4645 H         1 UNK         0.0600 
    176 H176        2.3580  -16.3464  -47.9556 H         1 UNK         0.0600 
    177 H177        3.7630  -16.8079  -48.9098 H         1 UNK         0.0600 
    178 H178        3.6253  -17.3480  -47.2478 H         1 UNK         0.0600 
    179 H179        3.1960  -13.4577  -47.9706 H         1 UNK         0.3000 
    180 H180        4.6211  -11.8674  -49.9710 H         1 UNK         0.0600 
    181 H181        3.6658  -13.6520  -52.2682 H         1 UNK         0.0600 
    182 H182        5.2781  -12.9812  -52.0643 H         1 UNK         0.0600 
    183 H183        3.9234  -11.9109  -52.3761 H         1 UNK         0.0600 
    184 H184        2.5177  -11.3393  -49.6270 H         1 UNK         0.3000 
    185 H185        0.3648  -11.1138  -49.9734 H         1 UNK         0.0600 
    186 H186       -0.5719  -12.2270  -52.0134 H         1 UNK         0.0600 
    187 H187       -1.2238  -13.5189  -51.0135 H         1 UNK         0.0600 
    188 H188       -1.8158  -11.8686  -50.8265 H         1 UNK         0.0600 
    189 H189       -1.2440  -13.0141  -48.6381 H         1 UNK         0.3000 
    190 H190       -4.1779  -24.6583  -44.8550 H         1 UNK         0.3000 
    191 H191       -4.9566  -25.7039  -47.4201 H         1 UNK         0.0600 
    192 H192       -4.5913  -27.0893  -44.7090 H         1 UNK         0.0600 
    193 H193       -5.4044  -27.7794  -46.1085 H         1 UNK         0.0600 
    194 H194       -6.0837  -26.3686  -45.3136 H         1 UNK         0.0600 
    195 H195       -1.9923  -25.9129  -45.5012 H         1 UNK         0.3000 
    196 H196       -0.8586  -28.1446  -47.0122 H         1 UNK         0.0600 
    197 H197        1.1171  -27.7426  -45.5601 H         1 UNK         0.0600 
    198 H198       -0.3490  -27.8558  -44.5982 H         1 UNK         0.0600 
    199 H199        0.3778  -26.2820  -44.9190 H         1 UNK         0.0600 
    200 H200       -0.3444  -24.5971  -46.7535 H         1 UNK         0.3000 
    201 H201        1.6902  -24.5216  -48.8274 H         1 UNK         0.0600 
    202 H202        1.6353  -22.9570  -46.8677 H         1 UNK         0.0600 
    203 H203        0.1143  -22.2815  -47.4435 H         1 UNK         0.0600 
    204 H204        1.5887  -22.0834  -48.3888 H         1 UNK         0.0600 
    205 H205       -1.7313  -24.6012  -48.8930 H         1 UNK         0.3000 
    206 H206       -3.3669  -24.2118  -50.3333 H         1 UNK         0.0600 
    207 H207       -2.9785  -24.4342  -52.7638 H         1 UNK         0.0600 
    208 H208       -2.0692  -25.6626  -51.8993 H         1 UNK         0.0600 
    209 H209       -1.2439  -24.2470  -52.5458 H         1 UNK         0.0600 
    210 H210       -2.5469  -22.1078  -48.9163 H         1 UNK         0.3000 
    211 H211       -2.4155  -19.9031  -48.6215 H         1 UNK         0.0600 
    212 H212       -3.8265  -18.4277  -50.0618 H         1 UNK         0.0600 
    213 H213       -4.6762  -19.8824  -49.5885 H         1 UNK         0.0600 
    214 H214       -4.0252  -19.7273  -51.2215 H         1 UNK         0.0600 
    215 H215       -0.1578  -21.0492  -49.7229 H         1 UNK         0.3000 
    216 H216        1.8623  -20.6271  -50.5161 H         1 UNK         0.0600 
    217 H217        2.7177  -18.3490  -50.8129 H         1 UNK         0.0600 
    218 H218        1.7361  -18.4072  -49.3586 H         1 UNK         0.0600 
    219 H219        1.0975  -17.6740  -50.8253 H         1 UNK         0.0600 
    220 H220        0.3205  -21.9072  -52.0892 H         1 UNK         0.3000 
    221 H221       -0.1881  -22.6306  -54.1129 H         1 UNK         0.0600 
    222 H222        2.1909  -20.9580  -55.0766 H         1 UNK         0.0600 
    223 H223        2.2904  -22.5742  -54.3791 H         1 UNK         0.0600 
    224 H224        1.4735  -22.3277  -55.9136 H         1 UNK         0.0600 
    225 H225       -1.9531  -20.8099  -53.3759 H         1 UNK         0.3000 
    226 H226       -2.6742  -19.3187  -55.8662 H         1 UNK         0.0600 
    227 H227       -1.9241  -17.7586  -54.0145 H         1 UNK         0.0600 
    228 H228       -3.6077  -17.5413  -54.4690 H         1 UNK         0.0600 
    229 H229       -3.2042  -18.4054  -52.9932 H         1 UNK         0.0600 
    230 H230       -3.2415  -22.0665  -54.9475 H         1 UNK         0.3000 
    231 H231       -4.8611  -23.5820  -54.9115 H         1 UNK         0.0600 
    232 H232       -5.3488  -22.5262  -57.1277 H         1 UNK         0.0600 
    233 H233       -6.5342  -21.4667  -56.3658 H         1 UNK         0.0600 
    234 H234       -6.7942  -23.2059  -56.4007 H         1 UNK         0.0600 
    235 H235       -4.6400  -22.1069  -52.5427 H         1 UNK         0.3000 
    236 H236       -5.5039  -21.9265  -50.5212 H         1 UNK         0.0600 
    237 H237       -7.4590  -23.1544  -49.7767 H         1 UNK         0.0600 
    238 H238       -8.0356  -23.3719  -51.4204 H         1 UNK         0.0600 
    239 H239       -6.5531  -24.1671  -50.8873 H         1 UNK         0.0600 
    240 H240       -6.1058  -19.9657  -52.7813 H         1 UNK         0.3000 
    241 H241       -6.6738  -17.9067  -52.8774 H         1 UNK         0.0600 
    242 H242      -10.2616  -16.9401  -52.8567 H         1 UNK         0.3800 
    243 H243       -8.8146  -16.2296  -52.1927 H         1 UNK         0.3800 
    244 H244       -7.8637  -17.5083  -50.1256 H         1 UNK         0.0800 
    245 H245       -6.2403  -18.1054  -50.1531 H         1 UNK         0.0800 
    246 H246       -7.0127  -15.3529  -48.8184 H         1 UNK         0.0800 
    247 H247       -5.8034  -14.2390  -49.3984 H         1 UNK         0.0800 
@<TRIPOS>BOND
     1    1    2 1    
     2    1  127 1    
     3    1  128 1    
     4    1  129 1    
     5    2    3 2    
     6    2    4 am   BACKBONE|DICT|INTERRES
     7    4    5 1    
     8    4  130 1    
     9    5    6 1    
    10    5   65 1    
    11    5  131 1    
    12    6    7 1    
    13    6  132 1    
    14    6  133 1    
    15    7    8 1    
    16    8    9 1    
    17    8  134 1    
    18    8  135 1    
    19    9   10 ar   
    20    9   14 ar   
    21   10   11 ar   
    22   10  136 1    
    23   11   12 ar   
    24   11  126 1    
    25   12   13 ar   
    26   12  137 1    
    27   13   14 ar   
    28   13   15 1    
    29   14  138 1    
    30   15   16 1    
    31   15  139 1    
    32   15  140 1    
    33   16   17 1    
    34   17   18 1    
    35   17  141 1    
    36   17  142 1    
    37   18   19 1    
    38   18   67 1    
    39   18  143 1    
    40   19   20 am   BACKBONE|DICT|INTERRES
    41   19  144 1    
    42   20   21 2    
    43   20   22 1    
    44   22   23 1    
    45   22   24 1    
    46   22  145 1    
    47   23  146 1    
    48   23  147 1    
    49   23  148 1    
    50   24   25 am   BACKBONE|DICT|INTERRES
    51   24  149 1    
    52   25   26 2    
    53   25   27 1    
    54   27   28 1    
    55   27   29 1    
    56   27  150 1    
    57   28  151 1    
    58   28  152 1    
    59   28  153 1    
    60   29   30 am   BACKBONE|DICT|INTERRES
    61   29  154 1    
    62   30   31 2    
    63   30   32 1    
    64   32   33 1    
    65   32   34 1    
    66   32  155 1    
    67   33  156 1    
    68   33  157 1    
    69   33  158 1    
    70   34   35 am   BACKBONE|DICT|INTERRES
    71   34  159 1    
    72   35   36 2    
    73   35   37 1    
    74   37   38 1    
    75   37   39 1    
    76   37  160 1    
    77   38  161 1    
    78   38  162 1    
    79   38  163 1    
    80   39   40 am   BACKBONE|DICT|INTERRES
    81   39  164 1    
    82   40   41 2    
    83   40   42 1    
    84   42   43 1    
    85   42   44 1    
    86   42  165 1    
    87   43  166 1    
    88   43  167 1    
    89   43  168 1    
    90   44   45 am   BACKBONE|DICT|INTERRES
    91   44  169 1    
    92   45   46 2    
    93   45   47 1    
    94   47   48 1    
    95   47   49 1    
    96   47  170 1    
    97   48  171 1    
    98   48  172 1    
    99   48  173 1    
   100   49   50 am   BACKBONE|DICT|INTERRES
   101   49  174 1    
   102   50   51 2    
   103   50   52 1    
   104   52   53 1    
   105   52   54 1    
   106   52  175 1    
   107   53  176 1    
   108   53  177 1    
   109   53  178 1    
   110   54   55 am   BACKBONE|DICT|INTERRES
   111   54  179 1    
   112   55   56 2    
   113   55   57 1    
   114   57   58 1    
   115   57   59 1    
   116   57  180 1    
   117   58  181 1    
   118   58  182 1    
   119   58  183 1    
   120   59   60 am   BACKBONE|DICT|INTERRES
   121   59  184 1    
   122   60   61 2    
   123   60   62 1    
   124   62   63 1    
   125   62   64 1    
   126   62  185 1    
   127   63  186 1    
   128   63  187 1    
   129   63  188 1    
   130   64   65 am   BACKBONE|DICT|INTERRES
   131   64  189 1    
   132   65   66 2    
   133   67   68 2    
   134   67   69 am   BACKBONE|DICT|INTERRES
   135   69   70 1    
   136   69  190 1    
   137   70   71 1    
   138   70   72 1    
   139   70  191 1    
   140   71  192 1    
   141   71  193 1    
   142   71  194 1    
   143   72   73 2    
   144   72   74 am   BACKBONE|DICT|INTERRES
   145   74   75 1    
   146   74  195 1    
   147   75   76 1    
   148   75   77 1    
   149   75  196 1    
   150   76  197 1    
   151   76  198 1    
   152   76  199 1    
   153   77   78 2    
   154   77   79 am   BACKBONE|DICT|INTERRES
   155   79   80 1    
   156   79  200 1    
   157   80   81 1    
   158   80   82 1    
   159   80  201 1    
   160   81  202 1    
   161   81  203 1    
   162   81  204 1    
   163   82   83 2    
   164   82   84 am   BACKBONE|DICT|INTERRES
   165   84   85 1    
   166   84  205 1    
   167   85   86 1    
   168   85   87 1    
   169   85  206 1    
   170   86  207 1    
   171   86  208 1    
   172   86  209 1    
   173   87   88 2    
   174   87   89 am   BACKBONE|DICT|INTERRES
   175   89   90 1    
   176   89  210 1    
   177   90   91 1    
   178   90   92 1    
   179   90  211 1    
   180   91  212 1    
   181   91  213 1    
   182   91  214 1    
   183   92   93 2    
   184   92   94 am   BACKBONE|DICT|INTERRES
   185   94   95 1    
   186   94  215 1    
   187   95   96 1    
   188   95   97 1    
   189   95  216 1    
   190   96  217 1    
   191   96  218 1    
   192   96  219 1    
   193   97   98 2    
   194   97   99 am   BACKBONE|DICT|INTERRES
   195   99  100 1    
   196   99  220 1    
   197  100  101 1    
   198  100  102 1    
   199  100  221 1    
   200  101  222 1    
   201  101  223 1    
   202  101  224 1    
   203  102  103 2    
   204  102  104 am   BACKBONE|DICT|INTERRES
   205  104  105 1    
   206  104  225 1    
   207  105  106 1    
   208  105  107 1    
   209  105  226 1    
   210  106  227 1    
   211  106  228 1    
   212  106  229 1    
   213  107  108 2    
   214  107  109 am   BACKBONE|DICT|INTERRES
   215  109  110 1    
   216  109  230 1    
   217  110  111 1    
   218  110  112 1    
   219  110  231 1    
   220  111  232 1    
   221  111  233 1    
   222  111  234 1    
   223  112  113 2    
   224  112  114 am   BACKBONE|DICT|INTERRES
   225  114  115 1    
   226  114  235 1    
   227  115  116 1    
   228  115  117 1    
   229  115  236 1    
   230  116  237 1    
   231  116  238 1    
   232  116  239 1    
   233  117  118 2    
   234  117  119 am   BACKBONE|DICT|INTERRES
   235  119  120 1    
   236  119  240 1    
   237  120  121 1    
   238  120  124 1    
   239  120  241 1    
   240  121  122 am   BACKBONE|DICT|INTERRES
   241  121  123 2    
   242  122  242 1    
   243  122  243 1    
   244  124  125 1    
   245  124  244 1    
   246  124  245 1    
   247  125  126 1    
   248  126  246 1    
   249  126  247 1    
@<TRIPOS>SUBSTRUCTURE
     1 UNK         1 GROUP             0       ****    0 ROOT    
