@<TRIPOS>MOLECULE
3R540
247   249    1
SMALL
USER_CHARGES


@<TRIPOS>ATOM
      1 CA          3.6148  -13.3462  -44.8208 C.3       0 UNK        -0.1800 
      2 C           3.1739  -14.1765  -46.0163 C.2       0 UNK         0.5000 
      3 O           2.4187  -15.1335  -45.8548 O.2       0 UNK        -0.5000 
      4 N           3.6570  -13.8236  -47.2112 N.am      1 UNK        -0.5000 
      5 CA          3.3896  -14.5304  -48.4726 C.3       1 UNK         0.1400 
      6 C6          4.5502  -14.3336  -49.4761 C.3       23 UNK        -0.0398 
      7 S7          6.0911  -15.1157  -48.8811 S.3       23 UNK        -0.2404 
      8 C8          6.6038  -16.1110  -50.3172 C.3       23 UNK        -0.0205 
      9 C9          5.8316  -17.4180  -50.4454 C.ar      23 UNK        -0.0193 
     10 C10         4.6739  -17.4813  -51.2271 C.ar      23 UNK        -0.1150 
     11 C11         4.0047  -18.6939  -51.4081 C.ar      23 UNK        -0.0193 
     12 C12         4.5104  -19.8536  -50.8169 C.ar      23 UNK        -0.1150 
     13 C13         5.6568  -19.8058  -50.0195 C.ar      23 UNK        -0.0193 
     14 C14         6.3087  -18.5818  -49.8313 C.ar      23 UNK        -0.1150 
     15 C15         6.2132  -21.0825  -49.4017 C.3       23 UNK        -0.0205 
     16 S16         5.3573  -21.5436  -47.8611 S.3       23 UNK        -0.2404 
     17 C17         3.7735  -22.2038  -48.4902 C.3       23 UNK        -0.0398 
     18 CA          3.1684  -23.2916  -47.5698 C.3       11 UNK         0.1400 
     19 N           2.8089  -22.7597  -46.2517 N.am      11 UNK        -0.5000 
     20 C           2.4825  -23.4925  -45.1787 C.2       10 UNK         0.5000 
     21 O           2.3894  -24.7199  -45.1953 O.2       10 UNK        -0.5000 
     22 CA          2.1995  -22.7283  -43.8746 C.3       10 UNK         0.1400 
     23 CB          3.5018  -22.1970  -43.2547 C.3       10 UNK        -0.1800 
     24 N           1.2830  -21.6165  -44.1209 N.am      10 UNK        -0.5000 
     25 C          -0.0254  -21.6272  -43.8320 C.2       9 UNK         0.5000 
     26 O          -0.5724  -22.5366  -43.2096 O.2       9 UNK        -0.5000 
     27 CA         -0.8907  -20.4380  -44.3033 C.3       9 UNK         0.1400 
     28 CB         -1.3995  -19.6246  -43.1034 C.3       9 UNK        -0.1800 
     29 N          -0.2261  -19.5328  -45.2393 N.am      9 UNK        -0.5000 
     30 C           0.1323  -19.8424  -46.4924 C.2       8 UNK         0.5000 
     31 O          -0.0741  -20.9395  -47.0104 O.2       8 UNK        -0.5000 
     32 CA          0.9496  -18.7765  -47.2466 C.3       8 UNK         0.1400 
     33 CB          0.0274  -17.7025  -47.8276 C.3       8 UNK        -0.1800 
     34 N           1.9629  -18.1466  -46.3932 N.am      8 UNK        -0.5000 
     35 C           2.9666  -18.8200  -45.8135 C.2       7 UNK         0.5000 
     36 O           3.1409  -20.0268  -45.9571 O.2       7 UNK        -0.5000 
     37 CA          3.8758  -18.0505  -44.8490 C.3       7 UNK         0.1400 
     38 CB          4.9368  -17.2357  -45.6056 C.3       7 UNK        -0.1800 
     39 N           3.0824  -17.2056  -43.9529 N.am      7 UNK        -0.5000 
     40 C           2.4563  -17.6916  -42.8716 C.2       6 UNK         0.5000 
     41 O           2.5094  -18.8745  -42.5343 O.2       6 UNK        -0.5000 
     42 CA          1.6534  -16.7179  -41.9901 C.3       6 UNK         0.1400 
     43 CB          2.5648  -16.1124  -40.9112 C.3       6 UNK        -0.1800 
     44 N           0.9465  -15.6313  -42.6697 N.am      6 UNK        -0.5000 
     45 C           0.0163  -15.7611  -43.6246 C.2       5 UNK         0.5000 
     46 O          -0.2055  -16.8103  -44.2334 O.2       5 UNK        -0.5000 
     47 CA         -0.8405  -14.5025  -43.8716 C.3       5 UNK         0.1400 
     48 CB         -0.0170  -13.3113  -44.3864 C.3       5 UNK        -0.1800 
     49 N          -1.9413  -14.7502  -44.8002 N.am      5 UNK        -0.5000 
     50 C          -3.1705  -15.1387  -44.4374 C.2       4 UNK         0.5000 
     51 O          -3.4880  -15.3670  -43.2686 O.2       4 UNK        -0.5000 
     52 CA         -4.2508  -15.2532  -45.5332 C.3       4 UNK         0.1400 
     53 CB         -5.3952  -14.2602  -45.2678 C.3       4 UNK        -0.1800 
     54 N          -3.7383  -15.0041  -46.8818 N.am      4 UNK        -0.5000 
     55 C          -3.3988  -15.9632  -47.7502 C.2       3 UNK         0.5000 
     56 O          -3.4780  -17.1660  -47.5045 O.2       3 UNK        -0.5000 
     57 CA         -2.8853  -15.5054  -49.1318 C.3       3 UNK         0.1400 
     58 CB         -4.0668  -15.3040  -50.0914 C.3       3 UNK        -0.1800 
     59 N          -2.0525  -14.2946  -49.1688 N.am      3 UNK        -0.5000 
     60 C          -0.9924  -14.0359  -48.3937 C.2       2 UNK         0.5000 
     61 O          -0.7170  -14.6660  -47.3756 O.2       2 UNK        -0.5000 
     62 CA         -0.0821  -12.8679  -48.8162 C.3       2 UNK         0.1400 
     63 CB         -0.4841  -11.5775  -48.0863 C.3       2 UNK        -0.1800 
     64 N           1.3170  -13.1754  -48.5107 N.am      2 UNK        -0.5000 
     65 C           2.0279  -14.1498  -49.0991 C.2       1 UNK         0.5000 
     66 O           1.6397  -14.7534  -50.1005 O.2       1 UNK        -0.5000 
     67 C           1.9886  -23.9951  -48.2736 C.2       11 UNK         0.5000 
     68 O           2.2121  -24.9876  -48.9681 O.2       11 UNK        -0.5000 
     69 N           0.7656  -23.4869  -48.0789 N.am      12 UNK        -0.5000 
     70 CA         -0.4710  -24.0175  -48.6499 C.3       12 UNK         0.1400 
     71 CB         -0.9857  -23.0469  -49.7274 C.3       12 UNK        -0.1800 
     72 C          -1.5022  -24.2634  -47.5356 C.2       12 UNK         0.5000 
     73 O          -2.6882  -23.9887  -47.7230 O.2       12 UNK        -0.5000 
     74 N          -1.0354  -24.7923  -46.3938 N.am      13 UNK        -0.5000 
     75 CA         -1.7856  -25.0095  -45.1477 C.3       13 UNK         0.1400 
     76 CB         -0.8616  -25.6998  -44.1320 C.3       13 UNK        -0.1800 
     77 C          -3.1016  -25.8041  -45.2689 C.2       13 UNK         0.5000 
     78 O          -3.9711  -25.6667  -44.4077 O.2       13 UNK        -0.5000 
     79 N          -3.2334  -26.6090  -46.3302 N.am      14 UNK        -0.5000 
     80 CA         -4.4357  -27.3700  -46.6656 C.3       14 UNK         0.1400 
     81 CB         -4.0832  -28.3775  -47.7714 C.3       14 UNK        -0.1800 
     82 C          -5.6367  -26.5000  -47.0957 C.2       14 UNK         0.5000 
     83 O          -6.7627  -26.9999  -47.0696 O.2       14 UNK        -0.5000 
     84 N          -5.3958  -25.2422  -47.4955 N.am      15 UNK        -0.5000 
     85 CA         -6.4295  -24.3336  -47.9958 C.3       15 UNK         0.1400 
     86 CB         -6.5204  -24.4623  -49.5253 C.3       15 UNK        -0.1800 
     87 C          -6.2081  -22.8713  -47.5785 C.2       15 UNK         0.5000 
     88 O          -7.1866  -22.1847  -47.2794 O.2       15 UNK        -0.5000 
     89 N          -4.9486  -22.4091  -47.5736 N.am      16 UNK        -0.5000 
     90 CA         -4.5171  -21.0305  -47.3192 C.3       16 UNK         0.1400 
     91 CB         -4.6223  -20.7091  -45.8119 C.3       16 UNK        -0.1800 
     92 C          -5.2611  -20.0357  -48.2363 C.2       16 UNK         0.5000 
     93 O          -5.1488  -20.1438  -49.4583 O.2       16 UNK        -0.5000 
     94 N          -6.0594  -19.1301  -47.6561 N.am      17 UNK        -0.5000 
     95 CA         -6.8577  -18.1327  -48.3715 C.3       17 UNK         0.1400 
     96 CB         -7.5527  -17.2204  -47.3508 C.3       17 UNK        -0.1800 
     97 C          -7.8827  -18.7262  -49.3602 C.2       17 UNK         0.5000 
     98 O          -8.2064  -18.0722  -50.3524 O.2       17 UNK        -0.5000 
     99 N          -8.3436  -19.9621  -49.1108 N.am      18 UNK        -0.5000 
    100 CA        -9.2714  -20.6875  -49.9828 C.3       18 UNK         0.1400 
    101 CB        -9.8718  -21.8794  -49.2215 C.3       18 UNK        -0.1800 
    102 C         -8.6422  -21.1460  -51.3150 C.2       18 UNK         0.5000 
    103 O         -9.3854  -21.4588  -52.2457 O.2       18 UNK        -0.5000 
    104 N         -7.3026  -21.1584  -51.4072 N.am      19 UNK        -0.5000 
    105 CA        -6.5690  -21.4344  -52.6462 C.3       19 UNK         0.1400 
    106 CB        -5.1443  -21.8991  -52.3037 C.3       19 UNK        -0.1800 
    107 C         -6.5214  -20.2241  -53.6023 C.2       19 UNK         0.5000 
    108 O         -6.0995  -20.3900  -54.7474 O.2       19 UNK        -0.5000 
    109 N         -6.9415  -19.0410  -53.1235 N.am      20 UNK        -0.5000 
    110 CA        -6.8648  -17.7291  -53.7687 C.3       20 UNK         0.1400 
    111 CB        -7.6768  -17.6737  -55.0812 C.3       20 UNK        -0.1800 
    112 C         -5.3989  -17.2906  -53.9216 C.2       20 UNK         0.5000 
    113 O         -4.8638  -16.6749  -52.9994 O.2       20 UNK        -0.5000 
    114 N         -4.7587  -17.6485  -55.0421 N.am      21 UNK        -0.5000 
    115 CA        -3.3312  -17.4518  -55.2947 C.3       21 UNK         0.1400 
    116 CB        -3.0222  -17.8282  -56.7531 C.3       21 UNK        -0.1800 
    117 C         -2.4872  -18.2750  -54.3018 C.2       21 UNK         0.5000 
    118 O         -2.4045  -19.4971  -54.4376 O.2       21 UNK        -0.5000 
    119 N         -1.9257  -17.5882  -53.2983 N.am      22 UNK        -0.5000 
    120 CA        -1.2801  -18.1794  -52.1129 C.3       22 UNK         0.1400 
    121 C         -2.2773  -18.8871  -51.1413 C.2       22 UNK         0.5000 
    122 N         -3.5659  -18.5743  -51.1757 N.am      22 UNK        -0.7600 
    123 O         -1.8862  -19.7192  -50.3316 O.2       22 UNK        -0.5000 
    124 C124       -0.0442  -19.0556  -52.4718 C.3       23 UNK        -0.0398 
    125 S125        1.2713  -18.9583  -51.2103 S.3       23 UNK        -0.2404 
    126 C126        2.7452  -18.7614  -52.2550 C.3       23 UNK        -0.0205 
    127 H127        2.9561  -12.4878  -44.6935 H         1 UNK         0.0600 
    128 H128        4.6341  -12.9819  -44.9501 H         1 UNK         0.0600 
    129 H129        3.5835  -13.9426  -43.9087 H         1 UNK         0.0600 
    130 H130        4.2871  -13.0369  -47.2775 H         1 UNK         0.3000 
    131 H131        3.3193  -15.5999  -48.2608 H         1 UNK         0.0600 
    132 H132        4.2936  -14.7431  -50.4522 H         1 UNK         0.0800 
    133 H133        4.7394  -13.2719  -49.6418 H         1 UNK         0.0800 
    134 H134        7.6684  -16.3294  -50.2201 H         1 UNK         0.0800 
    135 H135        6.5058  -15.5197  -51.2291 H         1 UNK         0.0800 
    136 H136        4.2998  -16.5921  -51.7130 H         1 UNK         0.1150 
    137 H137        4.0030  -20.7932  -50.9791 H         1 UNK         0.1150 
    138 H138        7.2050  -18.5388  -49.2283 H         1 UNK         0.1150 
    139 H139        6.1569  -21.9026  -50.1190 H         1 UNK         0.0800 
    140 H140        7.2736  -20.9534  -49.1798 H         1 UNK         0.0800 
    141 H141        3.9489  -22.6172  -49.4848 H         1 UNK         0.0800 
    142 H142        3.0754  -21.3738  -48.6161 H         1 UNK         0.0800 
    143 H143        3.9335  -24.0543  -47.4092 H         1 UNK         0.0600 
    144 H144        2.9055  -21.7498  -46.1478 H         1 UNK         0.3000 
    145 H145        1.7623  -23.4323  -43.1638 H         1 UNK         0.0600 
    146 H146        4.0120  -21.4922  -43.9113 H         1 UNK         0.0600 
    147 H147        3.3060  -21.6876  -42.3110 H         1 UNK         0.0600 
    148 H148        4.1953  -23.0127  -43.0474 H         1 UNK         0.0600 
    149 H149        1.6610  -20.8310  -44.6349 H         1 UNK         0.3000 
    150 H150       -1.7544  -20.8628  -44.8168 H         1 UNK         0.0600 
    151 H151       -1.9502  -20.2552  -42.4044 H         1 UNK         0.0600 
    152 H152       -2.0738  -18.8294  -43.4229 H         1 UNK         0.0600 
    153 H153       -0.5758  -19.1659  -42.5553 H         1 UNK         0.0600 
    154 H154       -0.0415  -18.5905  -44.9011 H         1 UNK         0.3000 
    155 H155        1.4661  -19.2694  -48.0727 H         1 UNK         0.0600 
    156 H156       -0.7051  -18.1423  -48.5037 H         1 UNK         0.0600 
    157 H157       -0.5246  -17.1923  -47.0383 H         1 UNK         0.0600 
    158 H158        0.5881  -16.9570  -48.3913 H         1 UNK         0.0600 
    159 H159        1.8554  -17.1573  -46.1929 H         1 UNK         0.3000 
    160 H160        4.4159  -18.7820  -44.2433 H         1 UNK         0.0600 
    161 H161        5.6714  -17.9009  -46.0610 H         1 UNK         0.0600 
    162 H162        4.5077  -16.6488  -46.4150 H         1 UNK         0.0600 
    163 H163        5.4753  -16.5603  -44.9410 H         1 UNK         0.0600 
    164 H164        2.9005  -16.2554  -44.2557 H         1 UNK         0.3000 
    165 H165        0.8910  -17.3132  -41.4836 H         1 UNK         0.0600 
    166 H166        1.9912  -15.5355  -40.1854 H         1 UNK         0.0600 
    167 H167        3.0911  -16.8921  -40.3586 H         1 UNK         0.0600 
    168 H168        3.3176  -15.4539  -41.3464 H         1 UNK         0.0600 
    169 H169        1.0659  -14.7195  -42.2543 H         1 UNK         0.3000 
    170 H170       -1.2528  -14.2099  -42.9037 H         1 UNK         0.0600 
    171 H171        0.7978  -13.0641  -43.7065 H         1 UNK         0.0600 
    172 H172        0.4139  -13.5119  -45.3645 H         1 UNK         0.0600 
    173 H173       -0.6378  -12.4201  -44.4779 H         1 UNK         0.0600 
    174 H174       -1.6991  -14.7054  -45.7871 H         1 UNK         0.3000 
    175 H175       -4.6628  -16.2623  -45.4683 H         1 UNK         0.0600 
    176 H176       -5.0421  -13.2283  -45.2773 H         1 UNK         0.0600 
    177 H177       -6.1805  -14.3524  -46.0182 H         1 UNK         0.0600 
    178 H178       -5.8559  -14.4409  -44.2958 H         1 UNK         0.0600 
    179 H179       -3.6152  -14.0395  -47.1529 H         1 UNK         0.3000 
    180 H180       -2.2678  -16.3170  -49.5196 H         1 UNK         0.0600 
    181 H181       -4.7062  -14.4790  -49.7754 H         1 UNK         0.0600 
    182 H182       -4.6884  -16.1970  -50.1460 H         1 UNK         0.0600 
    183 H183       -3.7216  -15.0924  -51.1033 H         1 UNK         0.0600 
    184 H184       -2.2179  -13.6853  -49.9567 H         1 UNK         0.3000 
    185 H185       -0.1754  -12.7112  -49.8927 H         1 UNK         0.0600 
    186 H186        0.1445  -10.7403  -48.3903 H         1 UNK         0.0600 
    187 H187       -1.5164  -11.3067  -48.3113 H         1 UNK         0.0600 
    188 H188       -0.4016  -11.6834  -47.0041 H         1 UNK         0.0600 
    189 H189        1.6952  -12.7647  -47.6710 H         1 UNK         0.3000 
    190 H190        0.6523  -22.6491  -47.5118 H         1 UNK         0.3000 
    191 H191       -0.2947  -24.9855  -49.1223 H         1 UNK         0.0600 
    192 H192       -1.2447  -22.0797  -49.2958 H         1 UNK         0.0600 
    193 H193       -1.8777  -23.4364  -50.2194 H         1 UNK         0.0600 
    194 H194       -0.2358  -22.8767  -50.4998 H         1 UNK         0.0600 
    195 H195       -0.0452  -24.9892  -46.3461 H         1 UNK         0.3000 
    196 H196       -2.0550  -24.0247  -44.7641 H         1 UNK         0.0600 
    197 H197       -1.3700  -25.8548  -43.1794 H         1 UNK         0.0600 
    198 H198        0.0218  -25.0980  -43.9259 H         1 UNK         0.0600 
    199 H199       -0.5272  -26.6741  -44.4904 H         1 UNK         0.0600 
    200 H200       -2.4692  -26.6559  -46.9874 H         1 UNK         0.3000 
    201 H201       -4.7403  -27.9291  -45.7784 H         1 UNK         0.0600 
    202 H202       -3.2873  -29.0512  -47.4535 H         1 UNK         0.0600 
    203 H203       -3.7561  -27.8752  -48.6827 H         1 UNK         0.0600 
    204 H204       -4.9452  -28.9947  -48.0284 H         1 UNK         0.0600 
    205 H205       -4.4431  -24.8932  -47.4739 H         1 UNK         0.3000 
    206 H206       -7.3979  -24.6151  -47.5763 H         1 UNK         0.0600 
    207 H207       -6.8853  -25.4478  -49.8146 H         1 UNK         0.0600 
    208 H208       -7.2020  -23.7261  -49.9512 H         1 UNK         0.0600 
    209 H209       -5.5451  -24.3203  -49.9904 H         1 UNK         0.0600 
    210 H210       -4.1898  -23.0386  -47.8252 H         1 UNK         0.3000 
    211 H211       -3.4635  -20.9767  -47.5999 H         1 UNK         0.0600 
    212 H212       -5.6516  -20.7395  -45.4530 H         1 UNK         0.0600 
    213 H213       -4.2157  -19.7207  -45.5923 H         1 UNK         0.0600 
    214 H214       -4.0537  -21.4293  -45.2238 H         1 UNK         0.0600 
    215 H215       -6.1222  -19.1233  -46.6493 H         1 UNK         0.3000 
    216 H216       -6.1655  -17.5240  -48.9542 H         1 UNK         0.0600 
    217 H217       -8.1276  -16.4401  -47.8514 H         1 UNK         0.0600 
    218 H218       -6.8260  -16.7242  -46.7082 H         1 UNK         0.0600 
    219 H219       -8.2398  -17.7794  -46.7145 H         1 UNK         0.0600 
    220 H220       -7.9911  -20.4664  -48.3043 H         1 UNK         0.3000 
    221 H221      -10.0898  -20.0091  -50.2327 H         1 UNK         0.0600 
    222 H222       -9.1225  -22.6363  -48.9947 H         1 UNK         0.0600 
    223 H223      -10.3248  -21.5624  -48.2820 H         1 UNK         0.0600 
    224 H224      -10.6517  -22.3631  -49.8108 H         1 UNK         0.0600 
    225 H225       -6.7447  -20.8727  -50.6094 H         1 UNK         0.3000 
    226 H226       -7.0673  -22.2495  -53.1750 H         1 UNK         0.0600 
    227 H227       -5.1537  -22.7552  -51.6321 H         1 UNK         0.0600 
    228 H228       -4.6058  -22.1995  -53.2032 H         1 UNK         0.0600 
    229 H229       -4.5621  -21.1091  -51.8312 H         1 UNK         0.0600 
    230 H230       -7.2683  -19.0169  -52.1656 H         1 UNK         0.3000 
    231 H231       -7.3272  -17.0252  -53.0748 H         1 UNK         0.0600 
    232 H232       -7.6401  -16.6738  -55.5152 H         1 UNK         0.0600 
    233 H233       -8.7255  -17.9071  -54.8974 H         1 UNK         0.0600 
    234 H234       -7.3136  -18.3690  -55.8374 H         1 UNK         0.0600 
    235 H235       -5.2511  -18.2443  -55.6928 H         1 UNK         0.3000 
    236 H236       -3.1022  -16.3921  -55.1643 H         1 UNK         0.0600 
    237 H237       -1.9613  -17.7004  -56.9717 H         1 UNK         0.0600 
    238 H238       -3.5760  -17.1971  -57.4485 H         1 UNK         0.0600 
    239 H239       -3.2792  -18.8667  -56.9661 H         1 UNK         0.0600 
    240 H240       -2.0861  -16.5921  -53.2525 H         1 UNK         0.3000 
    241 H241       -0.9199  -17.3164  -51.5517 H         1 UNK         0.0600 
    242 H242       -4.1843  -19.0794  -50.5453 H         1 UNK         0.3800 
    243 H243       -3.9331  -17.8822  -51.8196 H         1 UNK         0.3800 
    244 H244       -0.3268  -20.0996  -52.6181 H         1 UNK         0.0800 
    245 H245        0.3755  -18.7290  -53.4240 H         1 UNK         0.0800 
    246 H246        2.6413  -17.8607  -52.8621 H         1 UNK         0.0800 
    247 H247        2.8162  -19.6010  -52.9482 H         1 UNK         0.0800 
@<TRIPOS>BOND
     1    1    2 1    
     2    1  127 1    
     3    1  128 1    
     4    1  129 1    
     5    2    3 2    
     6    2    4 am   BACKBONE|DICT|INTERRES
     7    4    5 1    
     8    4  130 1    
     9    5    6 1    
    10    5   65 1    
    11    5  131 1    
    12    6    7 1    
    13    6  132 1    
    14    6  133 1    
    15    7    8 1    
    16    8    9 1    
    17    8  134 1    
    18    8  135 1    
    19    9   10 ar   
    20    9   14 ar   
    21   10   11 ar   
    22   10  136 1    
    23   11   12 ar   
    24   11  126 1    
    25   12   13 ar   
    26   12  137 1    
    27   13   14 ar   
    28   13   15 1    
    29   14  138 1    
    30   15   16 1    
    31   15  139 1    
    32   15  140 1    
    33   16   17 1    
    34   17   18 1    
    35   17  141 1    
    36   17  142 1    
    37   18   19 1    
    38   18   67 1    
    39   18  143 1    
    40   19   20 am   BACKBONE|DICT|INTERRES
    41   19  144 1    
    42   20   21 2    
    43   20   22 1    
    44   22   23 1    
    45   22   24 1    
    46   22  145 1    
    47   23  146 1    
    48   23  147 1    
    49   23  148 1    
    50   24   25 am   BACKBONE|DICT|INTERRES
    51   24  149 1    
    52   25   26 2    
    53   25   27 1    
    54   27   28 1    
    55   27   29 1    
    56   27  150 1    
    57   28  151 1    
    58   28  152 1    
    59   28  153 1    
    60   29   30 am   BACKBONE|DICT|INTERRES
    61   29  154 1    
    62   30   31 2    
    63   30   32 1    
    64   32   33 1    
    65   32   34 1    
    66   32  155 1    
    67   33  156 1    
    68   33  157 1    
    69   33  158 1    
    70   34   35 am   BACKBONE|DICT|INTERRES
    71   34  159 1    
    72   35   36 2    
    73   35   37 1    
    74   37   38 1    
    75   37   39 1    
    76   37  160 1    
    77   38  161 1    
    78   38  162 1    
    79   38  163 1    
    80   39   40 am   BACKBONE|DICT|INTERRES
    81   39  164 1    
    82   40   41 2    
    83   40   42 1    
    84   42   43 1    
    85   42   44 1    
    86   42  165 1    
    87   43  166 1    
    88   43  167 1    
    89   43  168 1    
    90   44   45 am   BACKBONE|DICT|INTERRES
    91   44  169 1    
    92   45   46 2    
    93   45   47 1    
    94   47   48 1    
    95   47   49 1    
    96   47  170 1    
    97   48  171 1    
    98   48  172 1    
    99   48  173 1    
   100   49   50 am   BACKBONE|DICT|INTERRES
   101   49  174 1    
   102   50   51 2    
   103   50   52 1    
   104   52   53 1    
   105   52   54 1    
   106   52  175 1    
   107   53  176 1    
   108   53  177 1    
   109   53  178 1    
   110   54   55 am   BACKBONE|DICT|INTERRES
   111   54  179 1    
   112   55   56 2    
   113   55   57 1    
   114   57   58 1    
   115   57   59 1    
   116   57  180 1    
   117   58  181 1    
   118   58  182 1    
   119   58  183 1    
   120   59   60 am   BACKBONE|DICT|INTERRES
   121   59  184 1    
   122   60   61 2    
   123   60   62 1    
   124   62   63 1    
   125   62   64 1    
   126   62  185 1    
   127   63  186 1    
   128   63  187 1    
   129   63  188 1    
   130   64   65 am   BACKBONE|DICT|INTERRES
   131   64  189 1    
   132   65   66 2    
   133   67   68 2    
   134   67   69 am   BACKBONE|DICT|INTERRES
   135   69   70 1    
   136   69  190 1    
   137   70   71 1    
   138   70   72 1    
   139   70  191 1    
   140   71  192 1    
   141   71  193 1    
   142   71  194 1    
   143   72   73 2    
   144   72   74 am   BACKBONE|DICT|INTERRES
   145   74   75 1    
   146   74  195 1    
   147   75   76 1    
   148   75   77 1    
   149   75  196 1    
   150   76  197 1    
   151   76  198 1    
   152   76  199 1    
   153   77   78 2    
   154   77   79 am   BACKBONE|DICT|INTERRES
   155   79   80 1    
   156   79  200 1    
   157   80   81 1    
   158   80   82 1    
   159   80  201 1    
   160   81  202 1    
   161   81  203 1    
   162   81  204 1    
   163   82   83 2    
   164   82   84 am   BACKBONE|DICT|INTERRES
   165   84   85 1    
   166   84  205 1    
   167   85   86 1    
   168   85   87 1    
   169   85  206 1    
   170   86  207 1    
   171   86  208 1    
   172   86  209 1    
   173   87   88 2    
   174   87   89 am   BACKBONE|DICT|INTERRES
   175   89   90 1    
   176   89  210 1    
   177   90   91 1    
   178   90   92 1    
   179   90  211 1    
   180   91  212 1    
   181   91  213 1    
   182   91  214 1    
   183   92   93 2    
   184   92   94 am   BACKBONE|DICT|INTERRES
   185   94   95 1    
   186   94  215 1    
   187   95   96 1    
   188   95   97 1    
   189   95  216 1    
   190   96  217 1    
   191   96  218 1    
   192   96  219 1    
   193   97   98 2    
   194   97   99 am   BACKBONE|DICT|INTERRES
   195   99  100 1    
   196   99  220 1    
   197  100  101 1    
   198  100  102 1    
   199  100  221 1    
   200  101  222 1    
   201  101  223 1    
   202  101  224 1    
   203  102  103 2    
   204  102  104 am   BACKBONE|DICT|INTERRES
   205  104  105 1    
   206  104  225 1    
   207  105  106 1    
   208  105  107 1    
   209  105  226 1    
   210  106  227 1    
   211  106  228 1    
   212  106  229 1    
   213  107  108 2    
   214  107  109 am   BACKBONE|DICT|INTERRES
   215  109  110 1    
   216  109  230 1    
   217  110  111 1    
   218  110  112 1    
   219  110  231 1    
   220  111  232 1    
   221  111  233 1    
   222  111  234 1    
   223  112  113 2    
   224  112  114 am   BACKBONE|DICT|INTERRES
   225  114  115 1    
   226  114  235 1    
   227  115  116 1    
   228  115  117 1    
   229  115  236 1    
   230  116  237 1    
   231  116  238 1    
   232  116  239 1    
   233  117  118 2    
   234  117  119 am   BACKBONE|DICT|INTERRES
   235  119  120 1    
   236  119  240 1    
   237  120  121 1    
   238  120  124 1    
   239  120  241 1    
   240  121  122 am   BACKBONE|DICT|INTERRES
   241  121  123 2    
   242  122  242 1    
   243  122  243 1    
   244  124  125 1    
   245  124  244 1    
   246  124  245 1    
   247  125  126 1    
   248  126  246 1    
   249  126  247 1    
@<TRIPOS>SUBSTRUCTURE
     1 UNK         1 GROUP             0       ****    0 ROOT    
