@<TRIPOS>MOLECULE
3R540
247   249    1
SMALL
USER_CHARGES


@<TRIPOS>ATOM
      1 CA         -1.3585  -15.4770  -48.5973 C.3       0 UNK        -0.1800 
      2 C          -0.3307  -14.3676  -48.4268 C.2       0 UNK         0.5000 
      3 O          -0.5207  -13.4861  -47.5891 O.2       0 UNK        -0.5000 
      4 N           0.7608  -14.4082  -49.2050 N.am      1 UNK        -0.5000 
      5 CA          1.8026  -13.3678  -49.2690 C.3       1 UNK         0.1400 
      6 C6          2.8150  -13.6151  -50.4132 C.3       23 UNK        -0.0398 
      7 S7          2.0187  -13.7011  -52.0533 S.3       23 UNK        -0.2404 
      8 C8          2.5163  -15.3555  -52.6266 C.3       23 UNK        -0.0205 
      9 C9          1.7976  -16.4662  -51.8758 C.ar      23 UNK        -0.0193 
     10 C10         0.4690  -16.7712  -52.1855 C.ar      23 UNK        -0.1150 
     11 C11        -0.1931  -17.8089  -51.5246 C.ar      23 UNK        -0.0193 
     12 C12         0.4863  -18.5477  -50.5544 C.ar      23 UNK        -0.1150 
     13 C13         1.8125  -18.2488  -50.2281 C.ar      23 UNK        -0.0193 
     14 C14         2.4630  -17.2051  -50.8921 C.ar      23 UNK        -0.1150 
     15 C15         2.5501  -19.0725  -49.1814 C.3       23 UNK        -0.0205 
     16 S16         2.4818  -18.3325  -47.5155 S.3       23 UNK        -0.2404 
     17 C17         0.6937  -18.2981  -47.1623 C.3       23 UNK        -0.0398 
     18 CA          0.0517  -19.6960  -47.0049 C.3       11 UNK         0.1400 
     19 N           0.6457  -20.4808  -45.9227 N.am      11 UNK        -0.5000 
     20 C           0.4285  -21.7864  -45.7173 C.2       10 UNK         0.5000 
     21 O          -0.2635  -22.4767  -46.4673 O.2       10 UNK        -0.5000 
     22 CA          1.0115  -22.4003  -44.4282 C.3       10 UNK         0.1400 
     23 CB          1.5211  -23.8413  -44.6327 C.3       10 UNK        -0.1800 
     24 N           2.0138  -21.5502  -43.7743 N.am      10 UNK        -0.5000 
     25 C           3.2555  -21.2592  -44.1919 C.2       9 UNK         0.5000 
     26 O           3.7673  -21.7238  -45.2102 O.2       9 UNK        -0.5000 
     27 CA          4.0548  -20.2493  -43.3432 C.3       9 UNK         0.1400 
     28 CB          4.1668  -18.9053  -44.0807 C.3       9 UNK        -0.1800 
     29 N           3.4728  -20.0046  -42.0215 N.am      9 UNK        -0.5000 
     30 C           3.5111  -20.8565  -40.9879 C.2       8 UNK         0.5000 
     31 O           4.0605  -21.9576  -41.0264 O.2       8 UNK        -0.5000 
     32 CA          2.7909  -20.4073  -39.7062 C.3       8 UNK         0.1400 
     33 CB          3.6822  -19.4601  -38.8871 C.3       8 UNK        -0.1800 
     34 N           1.5258  -19.7371  -40.0106 N.am      8 UNK        -0.5000 
     35 C           0.3511  -20.3616  -40.1740 C.2       7 UNK         0.5000 
     36 O           0.2062  -21.5800  -40.0751 O.2       7 UNK        -0.5000 
     37 CA         -0.8690  -19.4808  -40.5116 C.3       7 UNK         0.1400 
     38 CB         -1.5781  -19.0263  -39.2273 C.3       7 UNK        -0.1800 
     39 N          -0.5157  -18.3031  -41.3046 N.am      7 UNK        -0.5000 
     40 C          -0.1717  -18.3474  -42.5970 C.2       6 UNK         0.5000 
     41 O          -0.2004  -19.3739  -43.2768 O.2       6 UNK        -0.5000 
     42 CA          0.3159  -17.0417  -43.2479 C.3       6 UNK         0.1400 
     43 CB         -0.8115  -16.3843  -44.0560 C.3       6 UNK        -0.1800 
     44 N           0.9053  -16.0620  -42.3264 N.am      6 UNK        -0.5000 
     45 C           1.9936  -16.2830  -41.5704 C.2       5 UNK         0.5000 
     46 O           2.5564  -17.3765  -41.5219 O.2       5 UNK        -0.5000 
     47 CA          2.5586  -15.1251  -40.7251 C.3       5 UNK         0.1400 
     48 CB          4.0467  -14.8916  -41.0338 C.3       5 UNK        -0.1800 
     49 N           1.8324  -13.8709  -40.9188 N.am      5 UNK        -0.5000 
     50 C           0.8110  -13.4550  -40.1572 C.2       4 UNK         0.5000 
     51 O           0.3818  -14.0854  -39.1904 O.2       4 UNK        -0.5000 
     52 CA          0.1388  -12.1213  -40.5453 C.3       4 UNK         0.1400 
     53 CB          0.6903  -10.9727  -39.6869 C.3       4 UNK        -0.1800 
     54 N           0.2866  -11.7695  -41.9601 N.am      4 UNK        -0.5000 
     55 C          -0.2077  -12.4796  -42.9826 C.2       3 UNK         0.5000 
     56 O          -0.8600  -13.5116  -42.8312 O.2       3 UNK        -0.5000 
     57 CA          0.1009  -11.9877  -44.4108 C.3       3 UNK         0.1400 
     58 CB          0.6113  -10.5310  -44.4774 C.3       3 UNK        -0.1800 
     59 N           1.0287  -12.8777  -45.1151 N.am      3 UNK        -0.5000 
     60 C           2.2600  -13.2479  -44.7245 C.2       2 UNK         0.5000 
     61 O           2.7510  -12.9365  -43.6382 O.2       2 UNK        -0.5000 
     62 CA          3.1011  -14.0981  -45.7039 C.3       2 UNK         0.1400 
     63 CB          3.2742  -15.5325  -45.1885 C.3       2 UNK        -0.1800 
     64 N           2.5537  -14.1589  -47.0601 N.am      2 UNK        -0.5000 
     65 C           2.5559  -13.1469  -47.9381 C.2       1 UNK         0.5000 
     66 O           3.1034  -12.0643  -47.7257 O.2       1 UNK        -0.5000 
     67 C          -1.4769  -19.5728  -46.8514 C.2       11 UNK         0.5000 
     68 O          -2.1759  -19.5114  -47.8608 O.2       11 UNK        -0.5000 
     69 N          -1.9727  -19.5837  -45.6045 N.am      12 UNK        -0.5000 
     70 CA         -3.4008  -19.6046  -45.2867 C.3       12 UNK         0.1400 
     71 CB         -3.5957  -19.3421  -43.7858 C.3       12 UNK        -0.1800 
     72 C          -4.0648  -20.9305  -45.6994 C.2       12 UNK         0.5000 
     73 O          -5.1795  -20.9173  -46.2211 O.2       12 UNK        -0.5000 
     74 N          -3.3485  -22.0466  -45.5007 N.am      13 UNK        -0.5000 
     75 CA         -3.7683  -23.3791  -45.9325 C.3       13 UNK         0.1400 
     76 CB         -2.8886  -24.4496  -45.2690 C.3       13 UNK        -0.1800 
     77 C          -3.7500  -23.5103  -47.4643 C.2       13 UNK         0.5000 
     78 O          -4.7006  -24.0445  -48.0330 O.2       13 UNK        -0.5000 
     79 N          -2.7033  -22.9712  -48.1074 N.am      14 UNK        -0.5000 
     80 CA         -2.5833  -22.8885  -49.5650 C.3       14 UNK         0.1400 
     81 CB         -1.1937  -22.3602  -49.9445 C.3       14 UNK        -0.1800 
     82 C          -3.6878  -22.0282  -50.2063 C.2       14 UNK         0.5000 
     83 O          -4.2217  -22.4130  -51.2439 O.2       14 UNK        -0.5000 
     84 N          -4.0443  -20.9086  -49.5607 N.am      15 UNK        -0.5000 
     85 CA         -5.1607  -20.0499  -49.9528 C.3       15 UNK         0.1400 
     86 CB         -5.1235  -18.7411  -49.1500 C.3       15 UNK        -0.1800 
     87 C          -6.5244  -20.7498  -49.8193 C.2       15 UNK         0.5000 
     88 O          -7.3368  -20.6622  -50.7399 O.2       15 UNK        -0.5000 
     89 N          -6.7390  -21.4587  -48.7016 N.am      16 UNK        -0.5000 
     90 CA         -7.9523  -22.2345  -48.4315 C.3       16 UNK         0.1400 
     91 CB         -7.9400  -22.7149  -46.9724 C.3       16 UNK        -0.1800 
     92 C          -8.1375  -23.4218  -49.3962 C.2       16 UNK         0.5000 
     93 O          -9.2540  -23.6651  -49.8554 O.2       16 UNK        -0.5000 
     94 N          -7.0384  -24.1225  -49.7036 N.am      17 UNK        -0.5000 
     95 CA         -6.9938  -25.2443  -50.6441 C.3       17 UNK         0.1400 
     96 CB         -5.7523  -26.0949  -50.3302 C.3       17 UNK        -0.1800 
     97 C          -6.9734  -24.8098  -52.1236 C.2       17 UNK         0.5000 
     98 O          -7.0880  -25.6667  -53.0002 O.2       17 UNK        -0.5000 
     99 N          -6.7625  -23.5117  -52.3812 N.am      18 UNK        -0.5000 
    100 CA        -6.5631  -22.8286  -53.6669 C.3       18 UNK         0.1400 
    101 CB        -7.7644  -23.0223  -54.6100 C.3       18 UNK        -0.1800 
    102 C         -5.2362  -23.1666  -54.3774 C.2       18 UNK         0.5000 
    103 O         -4.7212  -22.3205  -55.1106 O.2       18 UNK        -0.5000 
    104 N         -4.7037  -24.3794  -54.1687 N.am      19 UNK        -0.5000 
    105 CA        -3.3743  -24.8726  -54.5596 C.3       19 UNK         0.1400 
    106 CB        -2.2910  -24.1183  -53.7597 C.3       19 UNK        -0.1800 
    107 C         -3.0743  -24.8547  -56.0765 C.2       19 UNK         0.5000 
    108 O         -1.9222  -25.0508  -56.4659 O.2       19 UNK        -0.5000 
    109 N         -4.1035  -24.5999  -56.8991 N.am      20 UNK        -0.5000 
    110 CA        -4.0527  -24.3231  -58.3387 C.3       20 UNK         0.1400 
    111 CB        -3.6424  -25.5856  -59.1255 C.3       20 UNK        -0.1800 
    112 C         -3.1925  -23.0853  -58.6894 C.2       20 UNK         0.5000 
    113 O         -2.6147  -23.0326  -59.7772 O.2       20 UNK        -0.5000 
    114 N         -3.1165  -22.1130  -57.7681 N.am      21 UNK        -0.5000 
    115 CA        -2.2921  -20.9106  -57.9054 C.3       21 UNK         0.1400 
    116 CB        -0.8330  -21.2203  -57.5224 C.3       21 UNK        -0.1800 
    117 C         -2.8378  -19.7409  -57.0747 C.2       21 UNK         0.5000 
    118 O         -2.9134  -18.6217  -57.5838 O.2       21 UNK        -0.5000 
    119 N         -3.2086  -20.0131  -55.8188 N.am      22 UNK        -0.5000 
    120 CA        -3.7936  -19.0339  -54.8899 C.3       22 UNK         0.1400 
    121 C         -5.3058  -18.7711  -55.1387 C.2       22 UNK         0.5000 
    122 N         -6.0431  -19.6988  -55.7364 N.am      22 UNK        -0.7600 
    123 O         -5.8120  -17.7083  -54.7904 O.2       22 UNK        -0.5000 
    124 C124       -3.5570  -19.4375  -53.4143 C.3       23 UNK        -0.0398 
    125 S125       -1.7868  -19.5333  -52.9832 S.3       23 UNK        -0.2404 
    126 C126       -1.6451  -18.1229  -51.8445 C.3       23 UNK        -0.0205 
    127 H127       -1.0512  -16.2030  -49.3483 H         1 UNK         0.0600 
    128 H128       -1.5109  -16.0001  -47.6533 H         1 UNK         0.0600 
    129 H129       -2.3138  -15.0550  -48.9087 H         1 UNK         0.0600 
    130 H130        0.8588  -15.1532  -49.8815 H         1 UNK         0.3000 
    131 H131        1.2883  -12.4285  -49.4835 H         1 UNK         0.0600 
    132 H132        3.5452  -12.8045  -50.4556 H         1 UNK         0.0800 
    133 H133        3.3886  -14.5237  -50.2261 H         1 UNK         0.0800 
    134 H134        3.5987  -15.4635  -52.5404 H         1 UNK         0.0800 
    135 H135        2.2895  -15.4394  -53.6905 H         1 UNK         0.0800 
    136 H136       -0.0477  -16.1998  -52.9441 H         1 UNK         0.1150 
    137 H137       -0.0256  -19.3549  -50.0542 H         1 UNK         0.1150 
    138 H138        3.4922  -16.9792  -50.6507 H         1 UNK         0.1150 
    139 H139        2.1601  -20.0904  -49.1516 H         1 UNK         0.0800 
    140 H140        3.5976  -19.1697  -49.4705 H         1 UNK         0.0800 
    141 H141        0.2050  -17.7379  -47.9573 H         1 UNK         0.0800 
    142 H142        0.5496  -17.7101  -46.2573 H         1 UNK         0.0800 
    143 H143        0.2211  -20.2538  -47.9252 H         1 UNK         0.0600 
    144 H144        1.1925  -19.9797  -45.2390 H         1 UNK         0.3000 
    145 H145        0.1765  -22.4511  -43.7280 H         1 UNK         0.0600 
    146 H146        1.9336  -24.2487  -43.7097 H         1 UNK         0.0600 
    147 H147        0.7101  -24.5009  -44.9434 H         1 UNK         0.0600 
    148 H148        2.2928  -23.8962  -45.4006 H         1 UNK         0.0600 
    149 H149        1.6921  -21.0782  -42.9404 H         1 UNK         0.3000 
    150 H150        5.0601  -20.6538  -43.2091 H         1 UNK         0.0600 
    151 H151        4.6466  -19.0279  -45.0526 H         1 UNK         0.0600 
    152 H152        4.7614  -18.1895  -43.5127 H         1 UNK         0.0600 
    153 H153        3.1871  -18.4611  -44.2544 H         1 UNK         0.0600 
    154 H154        3.0524  -19.0887  -41.8767 H         1 UNK         0.3000 
    155 H155        2.5962  -21.2941  -39.0991 H         1 UNK         0.0600 
    156 H156        3.9200  -18.5482  -39.4362 H         1 UNK         0.0600 
    157 H157        4.6259  -19.9413  -38.6270 H         1 UNK         0.0600 
    158 H158        3.1968  -19.1719  -37.9547 H         1 UNK         0.0600 
    159 H159        1.5778  -18.7419  -40.1837 H         1 UNK         0.3000 
    160 H160       -1.5685  -20.0901  -41.0881 H         1 UNK         0.0600 
    161 H161       -2.4825  -18.4620  -39.4556 H         1 UNK         0.0600 
    162 H162       -0.9344  -18.3960  -38.6124 H         1 UNK         0.0600 
    163 H163       -1.8751  -19.8832  -38.6211 H         1 UNK         0.0600 
    164 H164       -0.4786  -17.4163  -40.8236 H         1 UNK         0.3000 
    165 H165        1.0987  -17.3406  -43.9423 H         1 UNK         0.0600 
    166 H166       -0.4407  -15.5376  -44.6339 H         1 UNK         0.0600 
    167 H167       -1.2596  -17.0808  -44.7629 H         1 UNK         0.0600 
    168 H168       -1.6112  -16.0264  -43.4067 H         1 UNK         0.0600 
    169 H169        0.4699  -15.1471  -42.3055 H         1 UNK         0.3000 
    170 H170        2.4865  -15.4361  -39.6810 H         1 UNK         0.0600 
    171 H171        4.6317  -15.7975  -40.8691 H         1 UNK         0.0600 
    172 H172        4.2044  -14.5828  -42.0666 H         1 UNK         0.0600 
    173 H173        4.4633  -14.1180  -40.3887 H         1 UNK         0.0600 
    174 H174        2.1071  -13.3158  -41.7238 H         1 UNK         0.3000 
    175 H175       -0.9283  -12.2223  -40.3371 H         1 UNK         0.0600 
    176 H176        0.1643  -10.0397  -39.8901 H         1 UNK         0.0600 
    177 H177        0.5707  -11.1865  -38.6239 H         1 UNK         0.0600 
    178 H178        1.7526  -10.8079  -39.8712 H         1 UNK         0.0600 
    179 H179        0.8403  -10.9512  -42.1678 H         1 UNK         0.3000 
    180 H180       -0.8422  -12.0316  -44.9575 H         1 UNK         0.0600 
    181 H181        1.5845  -10.4096  -44.0007 H         1 UNK         0.0600 
    182 H182       -0.0869   -9.8456  -43.9952 H         1 UNK         0.0600 
    183 H183        0.7134  -10.2061  -45.5130 H         1 UNK         0.0600 
    184 H184        0.6916  -13.2054  -46.0149 H         1 UNK         0.3000 
    185 H185        4.0895  -13.6366  -45.7517 H         1 UNK         0.0600 
    186 H186        2.3381  -16.0822  -45.2469 H         1 UNK         0.0600 
    187 H187        4.0133  -16.0745  -45.7788 H         1 UNK         0.0600 
    188 H188        3.6118  -15.5529  -44.1527 H         1 UNK         0.0600 
    189 H189        2.0896  -15.0151  -47.3249 H         1 UNK         0.3000 
    190 H190       -1.3287  -19.6358  -44.8202 H         1 UNK         0.3000 
    191 H191       -3.8873  -18.7994  -45.8413 H         1 UNK         0.0600 
    192 H192       -3.0911  -20.0922  -43.1759 H         1 UNK         0.0600 
    193 H193       -4.6536  -19.3593  -43.5205 H         1 UNK         0.0600 
    194 H194       -3.2078  -18.3638  -43.5026 H         1 UNK         0.0600 
    195 H195       -2.4242  -21.9663  -45.1058 H         1 UNK         0.3000 
    196 H196       -4.7958  -23.5351  -45.5968 H         1 UNK         0.0600 
    197 H197       -3.2292  -25.4502  -45.5379 H         1 UNK         0.0600 
    198 H198       -2.9277  -24.3747  -44.1822 H         1 UNK         0.0600 
    199 H199       -1.8455  -24.3693  -45.5737 H         1 UNK         0.0600 
    200 H200       -1.9328  -22.6019  -47.5594 H         1 UNK         0.3000 
    201 H201       -2.6810  -23.9008  -49.9624 H         1 UNK         0.0600 
    202 H202       -0.4033  -22.9851  -49.5285 H         1 UNK         0.0600 
    203 H203       -1.0452  -21.3447  -49.5835 H         1 UNK         0.0600 
    204 H204       -1.0652  -22.3437  -51.0277 H         1 UNK         0.0600 
    205 H205       -3.5029  -20.6116  -48.7548 H         1 UNK         0.3000 
    206 H206       -5.0329  -19.7991  -51.0047 H         1 UNK         0.0600 
    207 H207       -4.1920  -18.2010  -49.3195 H         1 UNK         0.0600 
    208 H208       -5.9402  -18.0802  -49.4427 H         1 UNK         0.0600 
    209 H209       -5.2142  -18.9212  -48.0790 H         1 UNK         0.0600 
    210 H210       -6.0366  -21.4439  -47.9688 H         1 UNK         0.3000 
    211 H211       -8.8079  -21.5684  -48.5599 H         1 UNK         0.0600 
    212 H212       -7.0882  -23.3642  -46.7689 H         1 UNK         0.0600 
    213 H213       -8.8451  -23.2765  -46.7380 H         1 UNK         0.0600 
    214 H214       -7.8910  -21.8734  -46.2812 H         1 UNK         0.0600 
    215 H215       -6.1671  -23.8988  -49.2281 H         1 UNK         0.3000 
    216 H216       -7.8802  -25.8644  -50.4957 H         1 UNK         0.0600 
    217 H217       -5.7037  -26.9751  -50.9724 H         1 UNK         0.0600 
    218 H218       -5.7660  -26.4471  -49.2986 H         1 UNK         0.0600 
    219 H219       -4.8318  -25.5280  -50.4779 H         1 UNK         0.0600 
    220 H220       -6.6094  -22.9192  -51.5758 H         1 UNK         0.3000 
    221 H221       -6.5089  -21.7672  -53.4196 H         1 UNK         0.0600 
    222 H222       -7.8646  -24.0562  -54.9407 H         1 UNK         0.0600 
    223 H223       -8.6960  -22.7325  -54.1240 H         1 UNK         0.0600 
    224 H224       -7.6593  -22.4059  -55.5035 H         1 UNK         0.0600 
    225 H225       -5.2690  -25.0261  -53.6304 H         1 UNK         0.3000 
    226 H226       -3.3402  -25.9207  -54.2597 H         1 UNK         0.0600 
    227 H227       -2.2462  -23.0636  -54.0338 H         1 UNK         0.0600 
    228 H228       -1.3016  -24.5437  -53.9308 H         1 UNK         0.0600 
    229 H229       -2.4838  -24.1747  -52.6884 H         1 UNK         0.0600 
    230 H230       -5.0000  -24.4468  -56.4600 H         1 UNK         0.3000 
    231 H231       -5.0720  -24.0704  -58.6337 H         1 UNK         0.0600 
    232 H232       -4.2666  -26.4378  -58.8567 H         1 UNK         0.0600 
    233 H233       -2.6033  -25.8590  -58.9410 H         1 UNK         0.0600 
    234 H234       -3.7530  -25.4309  -60.1993 H         1 UNK         0.0600 
    235 H235       -3.6502  -22.2113  -56.9118 H         1 UNK         0.3000 
    236 H236       -2.3119  -20.5877  -58.9487 H         1 UNK         0.0600 
    237 H237       -0.3978  -21.9650  -58.1888 H         1 UNK         0.0600 
    238 H238       -0.2124  -20.3257  -57.5867 H         1 UNK         0.0600 
    239 H239       -0.7587  -21.6013  -56.5030 H         1 UNK         0.0600 
    240 H240       -3.1675  -20.9623  -55.4729 H         1 UNK         0.3000 
    241 H241       -3.2893  -18.0783  -55.0476 H         1 UNK         0.0600 
    242 H242       -7.0199  -19.5259  -55.9120 H         1 UNK         0.3800 
    243 H243       -5.6344  -20.5973  -55.9527 H         1 UNK         0.3800 
    244 H244       -4.0428  -18.7220  -52.7496 H         1 UNK         0.0800 
    245 H245       -4.0117  -20.4072  -53.2055 H         1 UNK         0.0800 
    246 H246       -2.1859  -18.3480  -50.9234 H         1 UNK         0.0800 
    247 H247       -2.1274  -17.2479  -52.2834 H         1 UNK         0.0800 
@<TRIPOS>BOND
     1    1    2 1    
     2    1  127 1    
     3    1  128 1    
     4    1  129 1    
     5    2    3 2    
     6    2    4 am   BACKBONE|DICT|INTERRES
     7    4    5 1    
     8    4  130 1    
     9    5    6 1    
    10    5   65 1    
    11    5  131 1    
    12    6    7 1    
    13    6  132 1    
    14    6  133 1    
    15    7    8 1    
    16    8    9 1    
    17    8  134 1    
    18    8  135 1    
    19    9   10 ar   
    20    9   14 ar   
    21   10   11 ar   
    22   10  136 1    
    23   11   12 ar   
    24   11  126 1    
    25   12   13 ar   
    26   12  137 1    
    27   13   14 ar   
    28   13   15 1    
    29   14  138 1    
    30   15   16 1    
    31   15  139 1    
    32   15  140 1    
    33   16   17 1    
    34   17   18 1    
    35   17  141 1    
    36   17  142 1    
    37   18   19 1    
    38   18   67 1    
    39   18  143 1    
    40   19   20 am   BACKBONE|DICT|INTERRES
    41   19  144 1    
    42   20   21 2    
    43   20   22 1    
    44   22   23 1    
    45   22   24 1    
    46   22  145 1    
    47   23  146 1    
    48   23  147 1    
    49   23  148 1    
    50   24   25 am   BACKBONE|DICT|INTERRES
    51   24  149 1    
    52   25   26 2    
    53   25   27 1    
    54   27   28 1    
    55   27   29 1    
    56   27  150 1    
    57   28  151 1    
    58   28  152 1    
    59   28  153 1    
    60   29   30 am   BACKBONE|DICT|INTERRES
    61   29  154 1    
    62   30   31 2    
    63   30   32 1    
    64   32   33 1    
    65   32   34 1    
    66   32  155 1    
    67   33  156 1    
    68   33  157 1    
    69   33  158 1    
    70   34   35 am   BACKBONE|DICT|INTERRES
    71   34  159 1    
    72   35   36 2    
    73   35   37 1    
    74   37   38 1    
    75   37   39 1    
    76   37  160 1    
    77   38  161 1    
    78   38  162 1    
    79   38  163 1    
    80   39   40 am   BACKBONE|DICT|INTERRES
    81   39  164 1    
    82   40   41 2    
    83   40   42 1    
    84   42   43 1    
    85   42   44 1    
    86   42  165 1    
    87   43  166 1    
    88   43  167 1    
    89   43  168 1    
    90   44   45 am   BACKBONE|DICT|INTERRES
    91   44  169 1    
    92   45   46 2    
    93   45   47 1    
    94   47   48 1    
    95   47   49 1    
    96   47  170 1    
    97   48  171 1    
    98   48  172 1    
    99   48  173 1    
   100   49   50 am   BACKBONE|DICT|INTERRES
   101   49  174 1    
   102   50   51 2    
   103   50   52 1    
   104   52   53 1    
   105   52   54 1    
   106   52  175 1    
   107   53  176 1    
   108   53  177 1    
   109   53  178 1    
   110   54   55 am   BACKBONE|DICT|INTERRES
   111   54  179 1    
   112   55   56 2    
   113   55   57 1    
   114   57   58 1    
   115   57   59 1    
   116   57  180 1    
   117   58  181 1    
   118   58  182 1    
   119   58  183 1    
   120   59   60 am   BACKBONE|DICT|INTERRES
   121   59  184 1    
   122   60   61 2    
   123   60   62 1    
   124   62   63 1    
   125   62   64 1    
   126   62  185 1    
   127   63  186 1    
   128   63  187 1    
   129   63  188 1    
   130   64   65 am   BACKBONE|DICT|INTERRES
   131   64  189 1    
   132   65   66 2    
   133   67   68 2    
   134   67   69 am   BACKBONE|DICT|INTERRES
   135   69   70 1    
   136   69  190 1    
   137   70   71 1    
   138   70   72 1    
   139   70  191 1    
   140   71  192 1    
   141   71  193 1    
   142   71  194 1    
   143   72   73 2    
   144   72   74 am   BACKBONE|DICT|INTERRES
   145   74   75 1    
   146   74  195 1    
   147   75   76 1    
   148   75   77 1    
   149   75  196 1    
   150   76  197 1    
   151   76  198 1    
   152   76  199 1    
   153   77   78 2    
   154   77   79 am   BACKBONE|DICT|INTERRES
   155   79   80 1    
   156   79  200 1    
   157   80   81 1    
   158   80   82 1    
   159   80  201 1    
   160   81  202 1    
   161   81  203 1    
   162   81  204 1    
   163   82   83 2    
   164   82   84 am   BACKBONE|DICT|INTERRES
   165   84   85 1    
   166   84  205 1    
   167   85   86 1    
   168   85   87 1    
   169   85  206 1    
   170   86  207 1    
   171   86  208 1    
   172   86  209 1    
   173   87   88 2    
   174   87   89 am   BACKBONE|DICT|INTERRES
   175   89   90 1    
   176   89  210 1    
   177   90   91 1    
   178   90   92 1    
   179   90  211 1    
   180   91  212 1    
   181   91  213 1    
   182   91  214 1    
   183   92   93 2    
   184   92   94 am   BACKBONE|DICT|INTERRES
   185   94   95 1    
   186   94  215 1    
   187   95   96 1    
   188   95   97 1    
   189   95  216 1    
   190   96  217 1    
   191   96  218 1    
   192   96  219 1    
   193   97   98 2    
   194   97   99 am   BACKBONE|DICT|INTERRES
   195   99  100 1    
   196   99  220 1    
   197  100  101 1    
   198  100  102 1    
   199  100  221 1    
   200  101  222 1    
   201  101  223 1    
   202  101  224 1    
   203  102  103 2    
   204  102  104 am   BACKBONE|DICT|INTERRES
   205  104  105 1    
   206  104  225 1    
   207  105  106 1    
   208  105  107 1    
   209  105  226 1    
   210  106  227 1    
   211  106  228 1    
   212  106  229 1    
   213  107  108 2    
   214  107  109 am   BACKBONE|DICT|INTERRES
   215  109  110 1    
   216  109  230 1    
   217  110  111 1    
   218  110  112 1    
   219  110  231 1    
   220  111  232 1    
   221  111  233 1    
   222  111  234 1    
   223  112  113 2    
   224  112  114 am   BACKBONE|DICT|INTERRES
   225  114  115 1    
   226  114  235 1    
   227  115  116 1    
   228  115  117 1    
   229  115  236 1    
   230  116  237 1    
   231  116  238 1    
   232  116  239 1    
   233  117  118 2    
   234  117  119 am   BACKBONE|DICT|INTERRES
   235  119  120 1    
   236  119  240 1    
   237  120  121 1    
   238  120  124 1    
   239  120  241 1    
   240  121  122 am   BACKBONE|DICT|INTERRES
   241  121  123 2    
   242  122  242 1    
   243  122  243 1    
   244  124  125 1    
   245  124  244 1    
   246  124  245 1    
   247  125  126 1    
   248  126  246 1    
   249  126  247 1    
@<TRIPOS>SUBSTRUCTURE
     1 UNK         1 GROUP             0       ****    0 ROOT    
