@<TRIPOS>MOLECULE
3R540
247   249    1
SMALL
USER_CHARGES


@<TRIPOS>ATOM
      1 CA         -4.9752  -19.2823  -44.8217 C.3       0 UNK        -0.1800 
      2 C          -4.8103  -18.2418  -45.9208 C.2       0 UNK         0.5000 
      3 O          -5.7715  -17.9326  -46.6232 O.2       0 UNK        -0.5000 
      4 N          -3.5889  -17.7179  -46.0851 N.am      1 UNK        -0.5000 
      5 CA         -3.2353  -16.7088  -47.0844 C.3       1 UNK         0.1400 
      6 C6         -1.6969  -16.6176  -47.2640 C.3       23 UNK        -0.0398 
      7 S7         -1.1946  -15.6010  -48.6910 S.3       23 UNK        -0.2404 
      8 C8         -1.2886  -16.7960  -50.0666 C.3       23 UNK        -0.0205 
      9 C9         -0.0438  -17.6661  -50.2101 C.ar      23 UNK        -0.0193 
     10 C10         1.2010  -17.0773  -50.4530 C.ar      23 UNK        -0.1150 
     11 C11         2.3335  -17.8681  -50.6651 C.ar      23 UNK        -0.0193 
     12 C12         2.2190  -19.2601  -50.6174 C.ar      23 UNK        -0.1150 
     13 C13         0.9837  -19.8668  -50.3736 C.ar      23 UNK        -0.0193 
     14 C14        -0.1461  -19.0615  -50.1853 C.ar      23 UNK        -0.1150 
     15 C15         0.8611  -21.3868  -50.3651 C.3       23 UNK        -0.0205 
     16 S16         1.9591  -22.1784  -49.1428 S.3       23 UNK        -0.2404 
     17 C17         1.3742  -23.9184  -49.1884 C.3       23 UNK        -0.0398 
     18 CA          0.5153  -24.3355  -47.9630 C.3       11 UNK         0.1400 
     19 N           1.1923  -24.0177  -46.7035 N.am      11 UNK        -0.5000 
     20 C           0.7124  -24.1767  -45.4623 C.2       10 UNK         0.5000 
     21 O          -0.3335  -24.7720  -45.2008 O.2       10 UNK        -0.5000 
     22 CA          1.4991  -23.4714  -44.3373 C.3       10 UNK         0.1400 
     23 CB          2.4458  -24.4569  -43.6385 C.3       10 UNK        -0.1800 
     24 N           2.2700  -22.3107  -44.8039 N.am      10 UNK        -0.5000 
     25 C           1.7513  -21.2207  -45.3866 C.2       9 UNK         0.5000 
     26 O           0.5430  -21.0618  -45.5644 O.2       9 UNK        -0.5000 
     27 CA          2.7538  -20.1554  -45.8683 C.3       9 UNK         0.1400 
     28 CB          2.0816  -19.0484  -46.7032 C.3       9 UNK        -0.1800 
     29 N           3.4527  -19.5429  -44.7428 N.am      9 UNK        -0.5000 
     30 C           4.4773  -20.0768  -44.0653 C.2       8 UNK         0.5000 
     31 O           4.9684  -21.1758  -44.3280 O.2       8 UNK        -0.5000 
     32 CA          5.0198  -19.2590  -42.8826 C.3       8 UNK         0.1400 
     33 CB          5.8816  -18.0890  -43.3834 C.3       8 UNK        -0.1800 
     34 N           3.9159  -18.7340  -42.0811 N.am      8 UNK        -0.5000 
     35 C           3.5273  -19.2169  -40.8937 C.2       7 UNK         0.5000 
     36 O           4.1216  -20.1084  -40.2863 O.2       7 UNK        -0.5000 
     37 CA          2.2470  -18.6106  -40.2809 C.3       7 UNK         0.1400 
     38 CB          2.5972  -17.4307  -39.3617 C.3       7 UNK        -0.1800 
     39 N           1.2826  -18.1607  -41.2871 N.am      7 UNK        -0.5000 
     40 C           0.6375  -18.9676  -42.1408 C.2       6 UNK         0.5000 
     41 O           0.7090  -20.1956  -42.0997 O.2       6 UNK        -0.5000 
     42 CA         -0.2216  -18.2997  -43.2348 C.3       6 UNK         0.1400 
     43 CB         -1.7026  -18.3347  -42.8279 C.3       6 UNK        -0.1800 
     44 N           0.1325  -16.9171  -43.5871 N.am      6 UNK        -0.5000 
     45 C           1.3353  -16.4480  -43.9553 C.2       5 UNK         0.5000 
     46 O           2.3657  -17.1193  -43.9234 O.2       5 UNK        -0.5000 
     47 CA          1.4129  -14.9961  -44.4658 C.3       5 UNK         0.1400 
     48 CB          1.8922  -14.9719  -45.9271 C.3       5 UNK        -0.1800 
     49 N           0.1417  -14.2755  -44.3841 N.am      5 UNK        -0.5000 
     50 C          -0.3752  -13.7221  -43.2785 C.2       4 UNK         0.5000 
     51 O           0.1607  -13.7915  -42.1720 O.2       4 UNK        -0.5000 
     52 CA         -1.7342  -13.0083  -43.4428 C.3       4 UNK         0.1400 
     53 CB         -1.9283  -11.8395  -42.4544 C.3       4 UNK        -0.1800 
     54 N          -2.0050  -12.6039  -44.8292 N.am      4 UNK        -0.5000 
     55 C          -1.3853  -11.6506  -45.5464 C.2       3 UNK         0.5000 
     56 O          -0.5081  -10.9169  -45.0906 O.2       3 UNK        -0.5000 
     57 CA         -1.7704  -11.5117  -47.0370 C.3       3 UNK         0.1400 
     58 CB         -0.5531  -11.7912  -47.9345 C.3       3 UNK        -0.1800 
     59 N          -2.8571  -12.4032  -47.4473 N.am      3 UNK        -0.5000 
     60 C          -4.1557  -12.2219  -47.1709 C.2       2 UNK         0.5000 
     61 O          -4.5993  -11.2236  -46.6034 O.2       2 UNK        -0.5000 
     62 CA         -5.1158  -13.3651  -47.5604 C.3       2 UNK         0.1400 
     63 CB         -5.8406  -13.0330  -48.8735 C.3       2 UNK        -0.1800 
     64 N          -4.4687  -14.6757  -47.6955 N.am      2 UNK        -0.5000 
     65 C          -3.8549  -15.3464  -46.7103 C.2       1 UNK         0.5000 
     66 O          -3.7241  -14.9141  -45.5626 O.2       1 UNK        -0.5000 
     67 C          -0.8957  -23.7183  -48.0563 C.2       11 UNK         0.5000 
     68 O          -1.8176  -24.3719  -48.5395 O.2       11 UNK        -0.5000 
     69 N          -1.0422  -22.4786  -47.5733 N.am      12 UNK        -0.5000 
     70 CA         -2.2776  -21.7096  -47.6232 C.3       12 UNK         0.1400 
     71 CB         -1.9431  -20.2392  -47.3627 C.3       12 UNK        -0.1800 
     72 C          -3.3109  -22.2109  -46.6068 C.2       12 UNK         0.5000 
     73 O          -4.5058  -22.1711  -46.8927 O.2       12 UNK        -0.5000 
     74 N          -2.8376  -22.6855  -45.4484 N.am      13 UNK        -0.5000 
     75 CA         -3.6720  -23.3228  -44.4330 C.3       13 UNK         0.1400 
     76 CB         -2.8961  -23.4034  -43.1096 C.3       13 UNK        -0.1800 
     77 C          -4.1464  -24.7144  -44.8899 C.2       13 UNK         0.5000 
     78 O          -5.3022  -25.0696  -44.6582 O.2       13 UNK        -0.5000 
     79 N          -3.2515  -25.4618  -45.5508 N.am      14 UNK        -0.5000 
     80 CA         -3.5138  -26.7950  -46.0874 C.3       14 UNK         0.1400 
     81 CB         -2.1789  -27.4635  -46.4523 C.3       14 UNK        -0.1800 
     82 C          -4.4677  -26.7870  -47.2967 C.2       14 UNK         0.5000 
     83 O          -5.4120  -27.5770  -47.3254 O.2       14 UNK        -0.5000 
     84 N          -4.1999  -25.9109  -48.2744 N.am      15 UNK        -0.5000 
     85 CA         -4.8743  -25.8827  -49.5756 C.3       15 UNK         0.1400 
     86 CB         -3.8092  -25.8072  -50.6836 C.3       15 UNK        -0.1800 
     87 C          -5.9128  -24.7511  -49.7070 C.2       15 UNK         0.5000 
     88 O          -6.3076  -24.4376  -50.8305 O.2       15 UNK        -0.5000 
     89 N          -6.3416  -24.1622  -48.5796 N.am      16 UNK        -0.5000 
     90 CA         -7.3975  -23.1460  -48.4518 C.3       16 UNK         0.1400 
     91 CB         -8.7781  -23.7739  -48.7330 C.3       16 UNK        -0.1800 
     92 C          -7.1257  -21.8938  -49.3124 C.2       16 UNK         0.5000 
     93 O          -7.8252  -21.6391  -50.2938 O.2       16 UNK        -0.5000 
     94 N          -6.0577  -21.1778  -48.9427 N.am      17 UNK        -0.5000 
     95 CA         -5.4459  -20.0134  -49.5973 C.3       17 UNK         0.1400 
     96 CB         -6.4678  -18.9023  -49.9105 C.3       17 UNK        -0.1800 
     97 C          -4.5876  -20.3671  -50.8274 C.2       17 UNK         0.5000 
     98 O          -3.9013  -19.4846  -51.3428 O.2       17 UNK        -0.5000 
     99 N          -4.6177  -21.6369  -51.2642 N.am      18 UNK        -0.5000 
    100 CA        -3.8009  -22.2466  -52.3230 C.3       18 UNK         0.1400 
    101 CB        -2.3255  -22.3024  -51.8782 C.3       18 UNK        -0.1800 
    102 C         -3.9594  -21.5940  -53.7136 C.2       18 UNK         0.5000 
    103 O         -3.0501  -21.6927  -54.5387 O.2       18 UNK        -0.5000 
    104 N         -5.1005  -20.9235  -53.9412 N.am      19 UNK        -0.5000 
    105 CA        -5.4034  -20.0736  -55.1000 C.3       19 UNK         0.1400 
    106 CB        -5.5632  -20.9211  -56.3797 C.3       19 UNK        -0.1800 
    107 C         -4.3874  -18.9189  -55.2554 C.2       19 UNK         0.5000 
    108 O         -3.9434  -18.6233  -56.3659 O.2       19 UNK        -0.5000 
    109 N         -4.0032  -18.3250  -54.1158 N.am      20 UNK        -0.5000 
    110 CA        -3.0051  -17.2704  -53.9034 C.3       20 UNK         0.1400 
    111 CB        -3.2802  -16.0191  -54.7591 C.3       20 UNK        -0.1800 
    112 C         -1.5465  -17.7450  -54.0423 C.2       20 UNK         0.5000 
    113 O         -0.7074  -17.2737  -53.2792 O.2       20 UNK        -0.5000 
    114 N         -1.2768  -18.6755  -54.9692 N.am      21 UNK        -0.5000 
    115 CA        -0.0084  -19.3618  -55.2441 C.3       21 UNK         0.1400 
    116 CB         0.3901  -20.2724  -54.0660 C.3       21 UNK        -0.1800 
    117 C          1.1445  -18.4235  -55.6566 C.2       21 UNK         0.5000 
    118 O          1.5553  -18.4392  -56.8181 O.2       21 UNK        -0.5000 
    119 N          1.6481  -17.6390  -54.6998 N.am      22 UNK        -0.5000 
    120 CA         2.6668  -16.5997  -54.8821 C.3       22 UNK         0.1400 
    121 C          2.1361  -15.3937  -55.7072 C.2       22 UNK         0.5000 
    122 N          2.9797  -14.7784  -56.5249 N.am      22 UNK        -0.7600 
    123 O          0.9842  -14.9825  -55.5859 O.2       22 UNK        -0.5000 
    124 C124        3.2285  -16.1211  -53.5188 C.3       23 UNK        -0.0398 
    125 S125        4.2015  -17.4161  -52.6749 S.3       23 UNK        -0.2404 
    126 C126        3.6853  -17.2266  -50.9372 C.3       23 UNK        -0.0205 
    127 H127       -5.5641  -20.1239  -45.1871 H         1 UNK         0.0600 
    128 H128       -5.4931  -18.8476  -43.9670 H         1 UNK         0.0600 
    129 H129       -4.0144  -19.6701  -44.4830 H         1 UNK         0.0600 
    130 H130       -2.8539  -17.9797  -45.4474 H         1 UNK         0.3000 
    131 H131       -3.6665  -17.0356  -48.0333 H         1 UNK         0.0600 
    132 H132       -1.2299  -16.2094  -46.3669 H         1 UNK         0.0800 
    133 H133       -1.2607  -17.6063  -47.3943 H         1 UNK         0.0800 
    134 H134       -1.4149  -16.2288  -50.9887 H         1 UNK         0.0800 
    135 H135       -2.1852  -17.4096  -49.9675 H         1 UNK         0.0800 
    136 H136        1.2797  -16.0003  -50.4954 H         1 UNK         0.1150 
    137 H137        3.0933  -19.8740  -50.7821 H         1 UNK         0.1150 
    138 H138       -1.1140  -19.5205  -50.0444 H         1 UNK         0.1150 
    139 H139       -0.1660  -21.6742  -50.1470 H         1 UNK         0.0800 
    140 H140        1.0898  -21.7697  -51.3605 H         1 UNK         0.0800 
    141 H141        0.8420  -24.1090  -50.1225 H         1 UNK         0.0800 
    142 H142        2.2599  -24.5536  -49.2306 H         1 UNK         0.0800 
    143 H143        0.3885  -25.4194  -47.9908 H         1 UNK         0.0600 
    144 H144        2.0548  -23.5025  -46.8009 H         1 UNK         0.3000 
    145 H145        0.7719  -23.1124  -43.6060 H         1 UNK         0.0600 
    146 H146        2.9452  -23.9885  -42.7900 H         1 UNK         0.0600 
    147 H147        3.2140  -24.8276  -44.3183 H         1 UNK         0.0600 
    148 H148        1.8989  -25.3202  -43.2570 H         1 UNK         0.0600 
    149 H149        3.2733  -22.3327  -44.6567 H         1 UNK         0.3000 
    150 H150        3.4828  -20.6551  -46.5095 H         1 UNK         0.0600 
    151 H151        1.5917  -19.4680  -47.5815 H         1 UNK         0.0600 
    152 H152        2.8105  -18.3198  -47.0581 H         1 UNK         0.0600 
    153 H153        1.3211  -18.5127  -46.1364 H         1 UNK         0.0600 
    154 H154        3.0948  -18.6371  -44.4469 H         1 UNK         0.3000 
    155 H155        5.6544  -19.9146  -42.2827 H         1 UNK         0.0600 
    156 H156        6.7094  -18.4480  -43.9962 H         1 UNK         0.0600 
    157 H157        6.3110  -17.5340  -42.5493 H         1 UNK         0.0600 
    158 H158        5.3035  -17.3884  -43.9877 H         1 UNK         0.0600 
    159 H159        3.3394  -18.0274  -42.5272 H         1 UNK         0.3000 
    160 H160        1.7696  -19.3857  -39.6778 H         1 UNK         0.0600 
    161 H161        3.0587  -16.6122  -39.9156 H         1 UNK         0.0600 
    162 H162        3.2975  -17.7366  -38.5834 H         1 UNK         0.0600 
    163 H163        1.7092  -17.0412  -38.8634 H         1 UNK         0.0600 
    164 H164        1.1612  -17.1637  -41.3889 H         1 UNK         0.3000 
    165 H165       -0.1049  -18.8959  -44.1406 H         1 UNK         0.0600 
    166 H166       -2.3398  -17.8985  -43.5948 H         1 UNK         0.0600 
    167 H167       -2.0399  -19.3598  -42.6672 H         1 UNK         0.0600 
    168 H168       -1.8751  -17.7835  -41.9025 H         1 UNK         0.0600 
    169 H169       -0.6337  -16.2621  -43.6121 H         1 UNK         0.3000 
    170 H170        2.1521  -14.4752  -43.8539 H         1 UNK         0.0600 
    171 H171        1.2098  -15.5081  -46.5874 H         1 UNK         0.0600 
    172 H172        1.9830  -13.9503  -46.2967 H         1 UNK         0.0600 
    173 H173        2.8733  -15.4385  -46.0264 H         1 UNK         0.0600 
    174 H174       -0.3654  -14.1578  -45.2478 H         1 UNK         0.3000 
    175 H175       -2.4901  -13.7581  -43.2049 H         1 UNK         0.0600 
    176 H176       -1.1437  -11.0888  -42.5491 H         1 UNK         0.0600 
    177 H177       -2.8876  -11.3461  -42.6105 H         1 UNK         0.0600 
    178 H178       -1.9117  -12.1952  -41.4236 H         1 UNK         0.0600 
    179 H179       -2.7086  -13.1672  -45.2955 H         1 UNK         0.3000 
    180 H180       -2.0855  -10.4787  -47.1981 H         1 UNK         0.0600 
    181 H181        0.2610  -11.0977  -47.7197 H         1 UNK         0.0600 
    182 H182       -0.8040  -11.6760  -48.9891 H         1 UNK         0.0600 
    183 H183       -0.1682  -12.8012  -47.7893 H         1 UNK         0.0600 
    184 H184       -2.5868  -13.2480  -47.9302 H         1 UNK         0.3000 
    185 H185       -5.8621  -13.4449  -46.7673 H         1 UNK         0.0600 
    186 H186       -5.1452  -12.9670  -49.7112 H         1 UNK         0.0600 
    187 H187       -6.5879  -13.7892  -49.1147 H         1 UNK         0.0600 
    188 H188       -6.3606  -12.0766  -48.8026 H         1 UNK         0.0600 
    189 H189       -4.5186  -15.0965  -48.6120 H         1 UNK         0.3000 
    190 H190       -0.2557  -22.0265  -47.1179 H         1 UNK         0.3000 
    191 H191       -2.6978  -21.8018  -48.6268 H         1 UNK         0.0600 
    192 H192       -0.9775  -19.9668  -47.7839 H         1 UNK         0.0600 
    193 H193       -1.8936  -20.0136  -46.2967 H         1 UNK         0.0600 
    194 H194       -2.6929  -19.5932  -47.8141 H         1 UNK         0.0600 
    195 H195       -1.8384  -22.6958  -45.3001 H         1 UNK         0.3000 
    196 H196       -4.5556  -22.7015  -44.2704 H         1 UNK         0.0600 
    197 H197       -2.5904  -22.4130  -42.7714 H         1 UNK         0.0600 
    198 H198       -1.9997  -24.0172  -43.2005 H         1 UNK         0.0600 
    199 H199       -3.5134  -23.8399  -42.3236 H         1 UNK         0.0600 
    200 H200       -2.3054  -25.1095  -45.6505 H         1 UNK         0.3000 
    201 H201       -3.9814  -27.3892  -45.2993 H         1 UNK         0.0600 
    202 H202       -1.5287  -27.5451  -45.5810 H         1 UNK         0.0600 
    203 H203       -1.6411  -26.9018  -47.2168 H         1 UNK         0.0600 
    204 H204       -2.3381  -28.4720  -46.8358 H         1 UNK         0.0600 
    205 H205       -3.3870  -25.3042  -48.1882 H         1 UNK         0.3000 
    206 H206       -5.4233  -26.8143  -49.7261 H         1 UNK         0.0600 
    207 H207       -3.0749  -26.6062  -50.5803 H         1 UNK         0.0600 
    208 H208       -3.2751  -24.8590  -50.6614 H         1 UNK         0.0600 
    209 H209       -4.2580  -25.9080  -51.6725 H         1 UNK         0.0600 
    210 H210       -5.9110  -24.4554  -47.7137 H         1 UNK         0.3000 
    211 H211       -7.3919  -22.8197  -47.4104 H         1 UNK         0.0600 
    212 H212       -8.8601  -24.1366  -49.7581 H         1 UNK         0.0600 
    213 H213       -9.5754  -23.0460  -48.5791 H         1 UNK         0.0600 
    214 H214       -8.9714  -24.6134  -48.0652 H         1 UNK         0.0600 
    215 H215       -5.5404  -21.5247  -48.1336 H         1 UNK         0.3000 
    216 H216       -4.7551  -19.6053  -48.8603 H         1 UNK         0.0600 
    217 H217       -5.9600  -17.9814  -50.1995 H         1 UNK         0.0600 
    218 H218       -7.0810  -18.6725  -49.0392 H         1 UNK         0.0600 
    219 H219       -7.1324  -19.1737  -50.7307 H         1 UNK         0.0600 
    220 H220       -5.2691  -22.2659  -50.8129 H         1 UNK         0.3000 
    221 H221       -4.1575  -23.2716  -52.4303 H         1 UNK         0.0600 
    222 H222       -1.8818  -21.3067  -51.8480 H         1 UNK         0.0600 
    223 H223       -2.2261  -22.7454  -50.8883 H         1 UNK         0.0600 
    224 H224       -1.7290  -22.9064  -52.5627 H         1 UNK         0.0600 
    225 H225       -5.7880  -20.9183  -53.2009 H         1 UNK         0.3000 
    226 H226       -6.3665  -19.6043  -54.8948 H         1 UNK         0.0600 
    227 H227       -6.2925  -21.7181  -56.2358 H         1 UNK         0.0600 
    228 H228       -5.9128  -20.3085  -57.2114 H         1 UNK         0.0600 
    229 H229       -4.6222  -21.3789  -56.6858 H         1 UNK         0.0600 
    230 H230       -4.3416  -18.7323  -53.2506 H         1 UNK         0.3000 
    231 H231       -3.1290  -16.9774  -52.8595 H         1 UNK         0.0600 
    232 H232       -2.6140  -15.2045  -54.4723 H         1 UNK         0.0600 
    233 H233       -4.3028  -15.6660  -54.6270 H         1 UNK         0.0600 
    234 H234       -3.1200  -16.2043  -55.8212 H         1 UNK         0.0600 
    235 H235       -2.0509  -18.9476  -55.5643 H         1 UNK         0.3000 
    236 H236       -0.2036  -20.0108  -56.0991 H         1 UNK         0.0600 
    237 H237        0.5296  -19.7083  -53.1448 H         1 UNK         0.0600 
    238 H238       -0.3725  -21.0280  -53.8807 H         1 UNK         0.0600 
    239 H239        1.3239  -20.7963  -54.2729 H         1 UNK         0.0600 
    240 H240        1.1406  -17.6159  -53.8206 H         1 UNK         0.3000 
    241 H241        3.4859  -17.0479  -55.4482 H         1 UNK         0.0600 
    242 H242        2.6550  -13.9852  -57.0563 H         1 UNK         0.3800 
    243 H243        3.9322  -15.0907  -56.6375 H         1 UNK         0.3800 
    244 H244        2.4159  -15.7823  -52.8740 H         1 UNK         0.0800 
    245 H245        3.8887  -15.2624  -53.6531 H         1 UNK         0.0800 
    246 H246        3.6793  -16.1692  -50.6681 H         1 UNK         0.0800 
    247 H247        4.4331  -17.6974  -50.2974 H         1 UNK         0.0800 
@<TRIPOS>BOND
     1    1    2 1    
     2    1  127 1    
     3    1  128 1    
     4    1  129 1    
     5    2    3 2    
     6    2    4 am   BACKBONE|DICT|INTERRES
     7    4    5 1    
     8    4  130 1    
     9    5    6 1    
    10    5   65 1    
    11    5  131 1    
    12    6    7 1    
    13    6  132 1    
    14    6  133 1    
    15    7    8 1    
    16    8    9 1    
    17    8  134 1    
    18    8  135 1    
    19    9   10 ar   
    20    9   14 ar   
    21   10   11 ar   
    22   10  136 1    
    23   11   12 ar   
    24   11  126 1    
    25   12   13 ar   
    26   12  137 1    
    27   13   14 ar   
    28   13   15 1    
    29   14  138 1    
    30   15   16 1    
    31   15  139 1    
    32   15  140 1    
    33   16   17 1    
    34   17   18 1    
    35   17  141 1    
    36   17  142 1    
    37   18   19 1    
    38   18   67 1    
    39   18  143 1    
    40   19   20 am   BACKBONE|DICT|INTERRES
    41   19  144 1    
    42   20   21 2    
    43   20   22 1    
    44   22   23 1    
    45   22   24 1    
    46   22  145 1    
    47   23  146 1    
    48   23  147 1    
    49   23  148 1    
    50   24   25 am   BACKBONE|DICT|INTERRES
    51   24  149 1    
    52   25   26 2    
    53   25   27 1    
    54   27   28 1    
    55   27   29 1    
    56   27  150 1    
    57   28  151 1    
    58   28  152 1    
    59   28  153 1    
    60   29   30 am   BACKBONE|DICT|INTERRES
    61   29  154 1    
    62   30   31 2    
    63   30   32 1    
    64   32   33 1    
    65   32   34 1    
    66   32  155 1    
    67   33  156 1    
    68   33  157 1    
    69   33  158 1    
    70   34   35 am   BACKBONE|DICT|INTERRES
    71   34  159 1    
    72   35   36 2    
    73   35   37 1    
    74   37   38 1    
    75   37   39 1    
    76   37  160 1    
    77   38  161 1    
    78   38  162 1    
    79   38  163 1    
    80   39   40 am   BACKBONE|DICT|INTERRES
    81   39  164 1    
    82   40   41 2    
    83   40   42 1    
    84   42   43 1    
    85   42   44 1    
    86   42  165 1    
    87   43  166 1    
    88   43  167 1    
    89   43  168 1    
    90   44   45 am   BACKBONE|DICT|INTERRES
    91   44  169 1    
    92   45   46 2    
    93   45   47 1    
    94   47   48 1    
    95   47   49 1    
    96   47  170 1    
    97   48  171 1    
    98   48  172 1    
    99   48  173 1    
   100   49   50 am   BACKBONE|DICT|INTERRES
   101   49  174 1    
   102   50   51 2    
   103   50   52 1    
   104   52   53 1    
   105   52   54 1    
   106   52  175 1    
   107   53  176 1    
   108   53  177 1    
   109   53  178 1    
   110   54   55 am   BACKBONE|DICT|INTERRES
   111   54  179 1    
   112   55   56 2    
   113   55   57 1    
   114   57   58 1    
   115   57   59 1    
   116   57  180 1    
   117   58  181 1    
   118   58  182 1    
   119   58  183 1    
   120   59   60 am   BACKBONE|DICT|INTERRES
   121   59  184 1    
   122   60   61 2    
   123   60   62 1    
   124   62   63 1    
   125   62   64 1    
   126   62  185 1    
   127   63  186 1    
   128   63  187 1    
   129   63  188 1    
   130   64   65 am   BACKBONE|DICT|INTERRES
   131   64  189 1    
   132   65   66 2    
   133   67   68 2    
   134   67   69 am   BACKBONE|DICT|INTERRES
   135   69   70 1    
   136   69  190 1    
   137   70   71 1    
   138   70   72 1    
   139   70  191 1    
   140   71  192 1    
   141   71  193 1    
   142   71  194 1    
   143   72   73 2    
   144   72   74 am   BACKBONE|DICT|INTERRES
   145   74   75 1    
   146   74  195 1    
   147   75   76 1    
   148   75   77 1    
   149   75  196 1    
   150   76  197 1    
   151   76  198 1    
   152   76  199 1    
   153   77   78 2    
   154   77   79 am   BACKBONE|DICT|INTERRES
   155   79   80 1    
   156   79  200 1    
   157   80   81 1    
   158   80   82 1    
   159   80  201 1    
   160   81  202 1    
   161   81  203 1    
   162   81  204 1    
   163   82   83 2    
   164   82   84 am   BACKBONE|DICT|INTERRES
   165   84   85 1    
   166   84  205 1    
   167   85   86 1    
   168   85   87 1    
   169   85  206 1    
   170   86  207 1    
   171   86  208 1    
   172   86  209 1    
   173   87   88 2    
   174   87   89 am   BACKBONE|DICT|INTERRES
   175   89   90 1    
   176   89  210 1    
   177   90   91 1    
   178   90   92 1    
   179   90  211 1    
   180   91  212 1    
   181   91  213 1    
   182   91  214 1    
   183   92   93 2    
   184   92   94 am   BACKBONE|DICT|INTERRES
   185   94   95 1    
   186   94  215 1    
   187   95   96 1    
   188   95   97 1    
   189   95  216 1    
   190   96  217 1    
   191   96  218 1    
   192   96  219 1    
   193   97   98 2    
   194   97   99 am   BACKBONE|DICT|INTERRES
   195   99  100 1    
   196   99  220 1    
   197  100  101 1    
   198  100  102 1    
   199  100  221 1    
   200  101  222 1    
   201  101  223 1    
   202  101  224 1    
   203  102  103 2    
   204  102  104 am   BACKBONE|DICT|INTERRES
   205  104  105 1    
   206  104  225 1    
   207  105  106 1    
   208  105  107 1    
   209  105  226 1    
   210  106  227 1    
   211  106  228 1    
   212  106  229 1    
   213  107  108 2    
   214  107  109 am   BACKBONE|DICT|INTERRES
   215  109  110 1    
   216  109  230 1    
   217  110  111 1    
   218  110  112 1    
   219  110  231 1    
   220  111  232 1    
   221  111  233 1    
   222  111  234 1    
   223  112  113 2    
   224  112  114 am   BACKBONE|DICT|INTERRES
   225  114  115 1    
   226  114  235 1    
   227  115  116 1    
   228  115  117 1    
   229  115  236 1    
   230  116  237 1    
   231  116  238 1    
   232  116  239 1    
   233  117  118 2    
   234  117  119 am   BACKBONE|DICT|INTERRES
   235  119  120 1    
   236  119  240 1    
   237  120  121 1    
   238  120  124 1    
   239  120  241 1    
   240  121  122 am   BACKBONE|DICT|INTERRES
   241  121  123 2    
   242  122  242 1    
   243  122  243 1    
   244  124  125 1    
   245  124  244 1    
   246  124  245 1    
   247  125  126 1    
   248  126  246 1    
   249  126  247 1    
@<TRIPOS>SUBSTRUCTURE
     1 UNK         1 GROUP             0       ****    0 ROOT    
