@<TRIPOS>MOLECULE
3R540
247   249    1
SMALL
USER_CHARGES


@<TRIPOS>ATOM
      1 CA          0.6764   -7.8126  -50.6300 C.3       0 UNK        -0.1800 
      2 C           1.3129   -9.1429  -50.2529 C.2       0 UNK         0.5000 
      3 O           2.3671   -9.4901  -50.7853 O.2       0 UNK        -0.5000 
      4 N           0.6790   -9.8859  -49.3355 N.am      1 UNK        -0.5000 
      5 CA          1.1465  -11.1903  -48.8440 C.3       1 UNK         0.1400 
      6 C6         -0.0144  -12.0022  -48.2086 C.3       23 UNK        -0.0398 
      7 S7          0.1627  -13.7989  -48.4802 S.3       23 UNK        -0.2404 
      8 C8         -1.4170  -14.1957  -49.2875 C.3       23 UNK        -0.0205 
      9 C9         -1.4286  -15.6135  -49.8378 C.ar      23 UNK        -0.0193 
     10 C10        -1.1334  -15.8420  -51.1844 C.ar      23 UNK        -0.1150 
     11 C11        -1.1960  -17.1324  -51.7160 C.ar      23 UNK        -0.0193 
     12 C12        -1.5502  -18.2013  -50.8879 C.ar      23 UNK        -0.1150 
     13 C13        -1.8381  -17.9905  -49.5345 C.ar      23 UNK        -0.0193 
     14 C14        -1.7729  -16.6918  -49.0167 C.ar      23 UNK        -0.1150 
     15 C15        -2.2916  -19.1392  -48.6402 C.3       23 UNK        -0.0205 
     16 S16        -1.2737  -20.6418  -48.8016 S.3       23 UNK        -0.2404 
     17 C17        -2.1333  -21.7231  -47.6135 C.3       23 UNK        -0.0398 
     18 CA         -1.2528  -22.8994  -47.1319 C.3       11 UNK         0.1400 
     19 N          -0.1295  -22.4805  -46.2904 N.am      11 UNK        -0.5000 
     20 C           0.8491  -23.2952  -45.8700 C.2       10 UNK         0.5000 
     21 O           0.9362  -24.4804  -46.1910 O.2       10 UNK        -0.5000 
     22 CA          1.8701  -22.7083  -44.8799 C.3       10 UNK         0.1400 
     23 CB          2.9226  -21.8592  -45.6081 C.3       10 UNK        -0.1800 
     24 N           1.2344  -21.9201  -43.8236 N.am      10 UNK        -0.5000 
     25 C           0.3881  -22.4186  -42.9110 C.2       9 UNK         0.5000 
     26 O           0.0910  -23.6114  -42.8348 O.2       9 UNK        -0.5000 
     27 CA         -0.2721  -21.4125  -41.9496 C.3       9 UNK         0.1400 
     28 CB          0.6818  -21.0370  -40.8061 C.3       9 UNK        -0.1800 
     29 N          -0.7343  -20.2002  -42.6275 N.am      9 UNK        -0.5000 
     30 C          -1.6887  -20.1793  -43.5695 C.2       8 UNK         0.5000 
     31 O          -2.3112  -21.1754  -43.9361 O.2       8 UNK        -0.5000 
     32 CA         -1.9617  -18.8313  -44.2590 C.3       8 UNK         0.1400 
     33 CB         -2.8556  -17.9407  -43.3841 C.3       8 UNK        -0.1800 
     34 N          -0.7370  -18.1137  -44.6156 N.am      8 UNK        -0.5000 
     35 C           0.2115  -18.5889  -45.4360 C.2       7 UNK         0.5000 
     36 O           0.1378  -19.6769  -46.0008 O.2       7 UNK        -0.5000 
     37 CA          1.4859  -17.7444  -45.6011 C.3       7 UNK         0.1400 
     38 CB          1.2369  -16.5440  -46.5230 C.3       7 UNK        -0.1800 
     39 N           2.0133  -17.2869  -44.3168 N.am      7 UNK        -0.5000 
     40 C           2.4423  -18.0993  -43.3400 C.2       6 UNK         0.5000 
     41 O           2.5010  -19.3242  -43.4410 O.2       6 UNK        -0.5000 
     42 CA          2.8175  -17.4339  -42.0067 C.3       6 UNK         0.1400 
     43 CB          4.2482  -16.8773  -42.0528 C.3       6 UNK        -0.1800 
     44 N           1.8785  -16.3691  -41.6544 N.am      6 UNK        -0.5000 
     45 C           0.6091  -16.5804  -41.2784 C.2       5 UNK         0.5000 
     46 O           0.1103  -17.6990  -41.1511 O.2       5 UNK        -0.5000 
     47 CA         -0.2567  -15.3293  -41.0427 C.3       5 UNK         0.1400 
     48 CB         -0.0163  -14.7590  -39.6370 C.3       5 UNK        -0.1800 
     49 N          -0.0181  -14.2838  -42.0397 N.am      5 UNK        -0.5000 
     50 C          -0.3416  -14.3920  -43.3359 C.2       4 UNK         0.5000 
     51 O          -0.8973  -15.3759  -43.8200 O.2       4 UNK        -0.5000 
     52 CA          0.0523  -13.2222  -44.2548 C.3       4 UNK         0.1400 
     53 CB         -1.0423  -12.1448  -44.2471 C.3       4 UNK        -0.1800 
     54 N           1.3364  -12.6042  -43.9187 N.am      4 UNK        -0.5000 
     55 C           2.5206  -13.2283  -43.8702 C.2       3 UNK         0.5000 
     56 O           2.6567  -14.4424  -44.0304 O.2       3 UNK        -0.5000 
     57 CA          3.7492  -12.3284  -43.6188 C.3       3 UNK         0.1400 
     58 CB          5.0414  -13.1346  -43.4002 C.3       3 UNK        -0.1800 
     59 N           3.9557  -11.4007  -44.7313 N.am      3 UNK        -0.5000 
     60 C           3.2448  -10.2896  -44.9602 C.2       2 UNK         0.5000 
     61 O           2.3581   -9.8841  -44.2060 O.2       2 UNK        -0.5000 
     62 CA          3.5268   -9.5214  -46.2647 C.3       2 UNK         0.1400 
     63 CB          4.9744   -9.6686  -46.7851 C.3       2 UNK        -0.1800 
     64 N           2.5435   -9.8712  -47.2942 N.am      2 UNK        -0.5000 
     65 C           2.3436  -11.0693  -47.8693 C.2       1 UNK         0.5000 
     66 O           3.0497  -12.0555  -47.6570 O.2       1 UNK        -0.5000 
     67 C          -2.1155  -23.9687  -46.4364 C.2       11 UNK         0.5000 
     68 O          -2.4315  -24.9757  -47.0659 O.2       11 UNK        -0.5000 
     69 N          -2.4416  -23.7682  -45.1512 N.am      12 UNK        -0.5000 
     70 CA         -3.2002  -24.7194  -44.3360 C.3       12 UNK         0.1400 
     71 CB         -3.5084  -24.1022  -42.9638 C.3       12 UNK        -0.1800 
     72 C          -2.4924  -26.0783  -44.1816 C.2       12 UNK         0.5000 
     73 O          -3.1452  -27.1152  -44.3035 O.2       12 UNK        -0.5000 
     74 N          -1.1690  -26.0515  -43.9681 N.am      13 UNK        -0.5000 
     75 CA         -0.3142  -27.2390  -43.9040 C.3       13 UNK         0.1400 
     76 CB          1.0818  -26.8360  -43.4053 C.3       13 UNK        -0.1800 
     77 C          -0.2200  -27.9878  -45.2486 C.2       13 UNK         0.5000 
     78 O          -0.2084  -29.2192  -45.2589 O.2       13 UNK        -0.5000 
     79 N          -0.1768  -27.2353  -46.3559 N.am      14 UNK        -0.5000 
     80 CA         -0.1444  -27.7547  -47.7254 C.3       14 UNK         0.1400 
     81 CB          0.4082  -26.6582  -48.6508 C.3       14 UNK        -0.1800 
     82 C          -1.5140  -28.2438  -48.2426 C.2       14 UNK         0.5000 
     83 O          -1.5560  -28.8933  -49.2883 O.2       14 UNK        -0.5000 
     84 N          -2.5985  -27.9020  -47.5303 N.am      15 UNK        -0.5000 
     85 CA         -4.0079  -28.0698  -47.9076 C.3       15 UNK         0.1400 
     86 CB         -4.3872  -29.5608  -48.0264 C.3       15 UNK        -0.1800 
     87 C          -4.3849  -27.2361  -49.1541 C.2       15 UNK         0.5000 
     88 O          -5.1728  -27.6783  -49.9926 O.2       15 UNK        -0.5000 
     89 N          -3.8016  -26.0373  -49.2414 N.am      16 UNK        -0.5000 
     90 CA         -4.0205  -25.0261  -50.2686 C.3       16 UNK         0.1400 
     91 CB         -2.6444  -24.4663  -50.6669 C.3       16 UNK        -0.1800 
     92 C          -4.9290  -23.9063  -49.7272 C.2       16 UNK         0.5000 
     93 O          -5.2300  -23.8714  -48.5309 O.2       16 UNK        -0.5000 
     94 N          -5.3344  -22.9920  -50.6139 N.am      17 UNK        -0.5000 
     95 CA         -6.1312  -21.8128  -50.2914 C.3       17 UNK         0.1400 
     96 CB         -7.6144  -22.1010  -50.5749 C.3       17 UNK        -0.1800 
     97 C          -5.6338  -20.6276  -51.1272 C.2       17 UNK         0.5000 
     98 O          -5.1941  -20.8225  -52.2648 O.2       17 UNK        -0.5000 
     99 N          -5.7331  -19.4219  -50.5532 N.am      18 UNK        -0.5000 
    100 CA        -5.3657  -18.1583  -51.1927 C.3       18 UNK         0.1400 
    101 CB        -5.4690  -17.0220  -50.1645 C.3       18 UNK        -0.1800 
    102 C         -6.2354  -17.8592  -52.4271 C.2       18 UNK         0.5000 
    103 O         -7.4028  -18.2552  -52.4728 O.2       18 UNK        -0.5000 
    104 N         -5.6279  -17.1940  -53.4159 N.am      19 UNK        -0.5000 
    105 CA        -6.1102  -16.9003  -54.7713 C.3       19 UNK         0.1400 
    106 CB        -7.4184  -16.0869  -54.7582 C.3       19 UNK        -0.1800 
    107 C         -6.2268  -18.1490  -55.6685 C.2       19 UNK         0.5000 
    108 O         -5.7964  -18.1025  -56.8207 O.2       19 UNK        -0.5000 
    109 N         -6.7834  -19.2401  -55.1288 N.am      20 UNK        -0.5000 
    110 CA        -6.9934  -20.5162  -55.8081 C.3       20 UNK         0.1400 
    111 CB        -7.8953  -21.4072  -54.9394 C.3       20 UNK        -0.1800 
    112 C         -5.6787  -21.2377  -56.1518 C.2       20 UNK         0.5000 
    113 O         -5.4867  -21.6348  -57.3019 O.2       20 UNK        -0.5000 
    114 N         -4.7963  -21.3919  -55.1553 N.am      21 UNK        -0.5000 
    115 CA        -3.5267  -22.1112  -55.2951 C.3       21 UNK         0.1400 
    116 CB        -3.1418  -22.7024  -53.9322 C.3       21 UNK        -0.1800 
    117 C         -2.3811  -21.2394  -55.8425 C.2       21 UNK         0.5000 
    118 O         -1.3198  -21.7770  -56.1617 O.2       21 UNK        -0.5000 
    119 N         -2.5937  -19.9203  -55.9214 N.am      22 UNK        -0.5000 
    120 CA        -1.5792  -18.9289  -56.3191 C.3       22 UNK         0.1400 
    121 C         -1.2196  -18.9249  -57.8348 C.2       22 UNK         0.5000 
    122 N         -1.9690  -19.5969  -58.7003 N.am      22 UNK        -0.7600 
    123 O         -0.2383  -18.3024  -58.2314 O.2       22 UNK        -0.5000 
    124 C124       -1.9353  -17.4957  -55.8444 C.3       23 UNK        -0.0398 
    125 S125       -2.4903  -17.3995  -54.1097 S.3       23 UNK        -0.2404 
    126 C126       -0.9244  -17.3635  -53.1935 C.3       23 UNK        -0.0205 
    127 H127       -0.2500   -7.6360  -50.0829 H         1 UNK         0.0600 
    128 H128        0.4501   -7.7941  -51.6960 H         1 UNK         0.0600 
    129 H129        1.3616   -6.9935  -50.4116 H         1 UNK         0.0600 
    130 H130       -0.1854   -9.5454  -48.9381 H         1 UNK         0.3000 
    131 H131        1.5088  -11.7397  -49.7161 H         1 UNK         0.0600 
    132 H132       -0.1036  -11.8102  -47.1390 H         1 UNK         0.0800 
    133 H133       -0.9681  -11.6888  -48.6353 H         1 UNK         0.0800 
    134 H134       -2.2304  -14.0679  -48.5716 H         1 UNK         0.0800 
    135 H135       -1.6021  -13.4856  -50.0951 H         1 UNK         0.0800 
    136 H136       -0.8758  -15.0106  -51.8255 H         1 UNK         0.1150 
    137 H137       -1.6242  -19.1959  -51.3050 H         1 UNK         0.1150 
    138 H138       -2.0095  -16.5127  -47.9771 H         1 UNK         0.1150 
    139 H139       -2.2788  -18.8261  -47.5957 H         1 UNK         0.0800 
    140 H140       -3.3262  -19.3819  -48.8832 H         1 UNK         0.0800 
    141 H141       -3.0346  -22.0881  -48.1090 H         1 UNK         0.0800 
    142 H142       -2.4700  -21.1328  -46.7599 H         1 UNK         0.0800 
    143 H143       -0.8177  -23.3734  -48.0134 H         1 UNK         0.0600 
    144 H144       -0.0958  -21.4950  -46.0353 H         1 UNK         0.3000 
    145 H145        2.3850  -23.5448  -44.4029 H         1 UNK         0.0600 
    146 H146        3.6880  -21.5045  -44.9178 H         1 UNK         0.0600 
    147 H147        3.4252  -22.4409  -46.3818 H         1 UNK         0.0600 
    148 H148        2.4783  -20.9881  -46.0893 H         1 UNK         0.0600 
    149 H149        1.4600  -20.9296  -43.7968 H         1 UNK         0.3000 
    150 H150       -1.1459  -21.8997  -41.5122 H         1 UNK         0.0600 
    151 H151        1.0191  -21.9259  -40.2716 H         1 UNK         0.0600 
    152 H152        0.1906  -20.3878  -40.0811 H         1 UNK         0.0600 
    153 H153        1.5675  -20.5179  -41.1722 H         1 UNK         0.0600 
    154 H154       -0.2928  -19.3281  -42.3558 H         1 UNK         0.3000 
    155 H155       -2.5008  -19.0408  -45.1843 H         1 UNK         0.0600 
    156 H156       -2.3534  -17.6473  -42.4620 H         1 UNK         0.0600 
    157 H157       -3.1421  -17.0314  -43.9127 H         1 UNK         0.0600 
    158 H158       -3.7747  -18.4591  -43.1083 H         1 UNK         0.0600 
    159 H159       -0.6262  -17.1839  -44.2184 H         1 UNK         0.3000 
    160 H160        2.2471  -18.3745  -46.0654 H         1 UNK         0.0600 
    161 H161        2.1427  -15.9532  -46.6606 H         1 UNK         0.0600 
    162 H162        0.4656  -15.8840  -46.1276 H         1 UNK         0.0600 
    163 H163        0.9088  -16.8734  -47.5098 H         1 UNK         0.0600 
    164 H164        2.0476  -16.2829  -44.1643 H         1 UNK         0.3000 
    165 H165        2.7763  -18.1966  -41.2261 H         1 UNK         0.0600 
    166 H166        4.5194  -16.4012  -41.1105 H         1 UNK         0.0600 
    167 H167        4.9678  -17.6769  -42.2325 H         1 UNK         0.0600 
    168 H168        4.3723  -16.1444  -42.8497 H         1 UNK         0.0600 
    169 H169        2.1915  -15.4208  -41.8014 H         1 UNK         0.3000 
    170 H170       -1.3036  -15.6323  -41.1123 H         1 UNK         0.0600 
    171 H171        1.0097  -14.4111  -39.5114 H         1 UNK         0.0600 
    172 H172       -0.6828  -13.9208  -39.4327 H         1 UNK         0.0600 
    173 H173       -0.2028  -15.5148  -38.8729 H         1 UNK         0.0600 
    174 H174        0.4381  -13.4405  -41.7245 H         1 UNK         0.3000 
    175 H175        0.1389  -13.6154  -45.2693 H         1 UNK         0.0600 
    176 H176       -0.7988  -11.3223  -44.9192 H         1 UNK         0.0600 
    177 H177       -1.1863  -11.7259  -43.2504 H         1 UNK         0.0600 
    178 H178       -1.9982  -12.5585  -44.5714 H         1 UNK         0.0600 
    179 H179        1.3427  -11.5950  -43.8137 H         1 UNK         0.3000 
    180 H180        3.5578  -11.7553  -42.7092 H         1 UNK         0.0600 
    181 H181        5.2857  -13.7515  -44.2661 H         1 UNK         0.0600 
    182 H182        4.9460  -13.7958  -42.5385 H         1 UNK         0.0600 
    183 H183        5.8889  -12.4764  -43.2081 H         1 UNK         0.0600 
    184 H184        4.6005  -11.7018  -45.4481 H         1 UNK         0.3000 
    185 H185        3.3724   -8.4655  -46.0371 H         1 UNK         0.0600 
    186 H186        5.2152  -10.6870  -47.0891 H         1 UNK         0.0600 
    187 H187        5.1423   -9.0225  -47.6469 H         1 UNK         0.0600 
    188 H188        5.6938   -9.3762  -46.0192 H         1 UNK         0.0600 
    189 H189        1.8957   -9.1348  -47.5355 H         1 UNK         0.3000 
    190 H190       -2.1794  -22.8941  -44.7018 H         1 UNK         0.3000 
    191 H191       -4.1495  -24.9000  -44.8447 H         1 UNK         0.0600 
    192 H192       -4.0914  -23.1868  -43.0660 H         1 UNK         0.0600 
    193 H193       -4.0884  -24.7898  -42.3471 H         1 UNK         0.0600 
    194 H194       -2.5975  -23.8587  -42.4169 H         1 UNK         0.0600 
    195 H195       -0.7139  -25.1534  -43.8339 H         1 UNK         0.3000 
    196 H196       -0.7493  -27.9245  -43.1738 H         1 UNK         0.0600 
    197 H197        1.7341  -27.7062  -43.3231 H         1 UNK         0.0600 
    198 H198        1.0293  -26.3736  -42.4195 H         1 UNK         0.0600 
    199 H199        1.5620  -26.1272  -44.0805 H         1 UNK         0.0600 
    200 H200       -0.1287  -26.2261  -46.2559 H         1 UNK         0.3000 
    201 H201        0.5400  -28.6047  -47.7589 H         1 UNK         0.0600 
    202 H202        1.4020  -26.3396  -48.3358 H         1 UNK         0.0600 
    203 H203       -0.2375  -25.7795  -48.6607 H         1 UNK         0.0600 
    204 H204        0.4921  -27.0148  -49.6781 H         1 UNK         0.0600 
    205 H205       -2.4403  -27.3324  -46.7090 H         1 UNK         0.3000 
    206 H206       -4.5866  -27.6517  -47.0827 H         1 UNK         0.0600 
    207 H207       -4.1009  -30.1122  -47.1309 H         1 UNK         0.0600 
    208 H208       -5.4643  -29.6789  -48.1491 H         1 UNK         0.0600 
    209 H209       -3.9091  -30.0372  -48.8824 H         1 UNK         0.0600 
    210 H210       -3.2427  -25.7267  -48.4473 H         1 UNK         0.3000 
    211 H211       -4.4978  -25.4667  -51.1461 H         1 UNK         0.0600 
    212 H212       -2.1198  -24.0456  -49.8107 H         1 UNK         0.0600 
    213 H213       -2.7297  -23.6749  -51.4087 H         1 UNK         0.0600 
    214 H214       -2.0123  -25.2455  -51.0933 H         1 UNK         0.0600 
    215 H215       -5.0086  -23.0274  -51.5705 H         1 UNK         0.3000 
    216 H216       -6.0112  -21.5561  -49.2365 H         1 UNK         0.0600 
    217 H217       -8.2310  -21.2252  -50.3687 H         1 UNK         0.0600 
    218 H218       -7.9832  -22.9138  -49.9490 H         1 UNK         0.0600 
    219 H219       -7.7774  -22.3805  -51.6162 H         1 UNK         0.0600 
    220 H220       -6.1560  -19.3492  -49.6399 H         1 UNK         0.3000 
    221 H221       -4.3263  -18.2432  -51.5149 H         1 UNK         0.0600 
    222 H222       -5.1446  -16.0745  -50.5970 H         1 UNK         0.0600 
    223 H223       -4.8361  -17.2125  -49.2979 H         1 UNK         0.0600 
    224 H224       -6.4926  -16.8902  -49.8118 H         1 UNK         0.0600 
    225 H225       -4.6529  -16.9588  -53.2770 H         1 UNK         0.3000 
    226 H226       -5.3425  -16.2675  -55.2197 H         1 UNK         0.0600 
    227 H227       -7.3189  -15.1904  -54.1464 H         1 UNK         0.0600 
    228 H228       -7.6823  -15.7653  -55.7663 H         1 UNK         0.0600 
    229 H229       -8.2592  -16.6646  -54.3741 H         1 UNK         0.0600 
    230 H230       -7.1069  -19.1699  -54.1688 H         1 UNK         0.3000 
    231 H231       -7.5173  -20.3148  -56.7448 H         1 UNK         0.0600 
    232 H232       -7.4472  -21.6061  -53.9653 H         1 UNK         0.0600 
    233 H233       -8.0768  -22.3688  -55.4211 H         1 UNK         0.0600 
    234 H234       -8.8655  -20.9397  -54.7708 H         1 UNK         0.0600 
    235 H235       -5.0209  -21.0469  -54.2256 H         1 UNK         0.3000 
    236 H236       -3.6617  -22.9425  -55.9903 H         1 UNK         0.0600 
    237 H237       -3.9375  -23.3369  -53.5424 H         1 UNK         0.0600 
    238 H238       -2.2451  -23.3182  -54.0107 H         1 UNK         0.0600 
    239 H239       -2.9382  -21.9205  -53.1995 H         1 UNK         0.0600 
    240 H240       -3.4939  -19.5592  -55.6442 H         1 UNK         0.3000 
    241 H241       -0.6574  -19.2071  -55.8046 H         1 UNK         0.0600 
    242 H242       -2.7777  -20.1097  -58.3853 H         1 UNK         0.3800 
    243 H243       -1.7265  -19.5918  -59.6788 H         1 UNK         0.3800 
    244 H244       -1.0861  -16.8237  -55.9799 H         1 UNK         0.0800 
    245 H245       -2.7408  -17.0907  -56.4598 H         1 UNK         0.0800 
    246 H246       -0.2810  -16.5766  -53.5904 H         1 UNK         0.0800 
    247 H247       -0.3942  -18.3065  -53.3350 H         1 UNK         0.0800 
@<TRIPOS>BOND
     1    1    2 1    
     2    1  127 1    
     3    1  128 1    
     4    1  129 1    
     5    2    3 2    
     6    2    4 am   BACKBONE|DICT|INTERRES
     7    4    5 1    
     8    4  130 1    
     9    5    6 1    
    10    5   65 1    
    11    5  131 1    
    12    6    7 1    
    13    6  132 1    
    14    6  133 1    
    15    7    8 1    
    16    8    9 1    
    17    8  134 1    
    18    8  135 1    
    19    9   10 ar   
    20    9   14 ar   
    21   10   11 ar   
    22   10  136 1    
    23   11   12 ar   
    24   11  126 1    
    25   12   13 ar   
    26   12  137 1    
    27   13   14 ar   
    28   13   15 1    
    29   14  138 1    
    30   15   16 1    
    31   15  139 1    
    32   15  140 1    
    33   16   17 1    
    34   17   18 1    
    35   17  141 1    
    36   17  142 1    
    37   18   19 1    
    38   18   67 1    
    39   18  143 1    
    40   19   20 am   BACKBONE|DICT|INTERRES
    41   19  144 1    
    42   20   21 2    
    43   20   22 1    
    44   22   23 1    
    45   22   24 1    
    46   22  145 1    
    47   23  146 1    
    48   23  147 1    
    49   23  148 1    
    50   24   25 am   BACKBONE|DICT|INTERRES
    51   24  149 1    
    52   25   26 2    
    53   25   27 1    
    54   27   28 1    
    55   27   29 1    
    56   27  150 1    
    57   28  151 1    
    58   28  152 1    
    59   28  153 1    
    60   29   30 am   BACKBONE|DICT|INTERRES
    61   29  154 1    
    62   30   31 2    
    63   30   32 1    
    64   32   33 1    
    65   32   34 1    
    66   32  155 1    
    67   33  156 1    
    68   33  157 1    
    69   33  158 1    
    70   34   35 am   BACKBONE|DICT|INTERRES
    71   34  159 1    
    72   35   36 2    
    73   35   37 1    
    74   37   38 1    
    75   37   39 1    
    76   37  160 1    
    77   38  161 1    
    78   38  162 1    
    79   38  163 1    
    80   39   40 am   BACKBONE|DICT|INTERRES
    81   39  164 1    
    82   40   41 2    
    83   40   42 1    
    84   42   43 1    
    85   42   44 1    
    86   42  165 1    
    87   43  166 1    
    88   43  167 1    
    89   43  168 1    
    90   44   45 am   BACKBONE|DICT|INTERRES
    91   44  169 1    
    92   45   46 2    
    93   45   47 1    
    94   47   48 1    
    95   47   49 1    
    96   47  170 1    
    97   48  171 1    
    98   48  172 1    
    99   48  173 1    
   100   49   50 am   BACKBONE|DICT|INTERRES
   101   49  174 1    
   102   50   51 2    
   103   50   52 1    
   104   52   53 1    
   105   52   54 1    
   106   52  175 1    
   107   53  176 1    
   108   53  177 1    
   109   53  178 1    
   110   54   55 am   BACKBONE|DICT|INTERRES
   111   54  179 1    
   112   55   56 2    
   113   55   57 1    
   114   57   58 1    
   115   57   59 1    
   116   57  180 1    
   117   58  181 1    
   118   58  182 1    
   119   58  183 1    
   120   59   60 am   BACKBONE|DICT|INTERRES
   121   59  184 1    
   122   60   61 2    
   123   60   62 1    
   124   62   63 1    
   125   62   64 1    
   126   62  185 1    
   127   63  186 1    
   128   63  187 1    
   129   63  188 1    
   130   64   65 am   BACKBONE|DICT|INTERRES
   131   64  189 1    
   132   65   66 2    
   133   67   68 2    
   134   67   69 am   BACKBONE|DICT|INTERRES
   135   69   70 1    
   136   69  190 1    
   137   70   71 1    
   138   70   72 1    
   139   70  191 1    
   140   71  192 1    
   141   71  193 1    
   142   71  194 1    
   143   72   73 2    
   144   72   74 am   BACKBONE|DICT|INTERRES
   145   74   75 1    
   146   74  195 1    
   147   75   76 1    
   148   75   77 1    
   149   75  196 1    
   150   76  197 1    
   151   76  198 1    
   152   76  199 1    
   153   77   78 2    
   154   77   79 am   BACKBONE|DICT|INTERRES
   155   79   80 1    
   156   79  200 1    
   157   80   81 1    
   158   80   82 1    
   159   80  201 1    
   160   81  202 1    
   161   81  203 1    
   162   81  204 1    
   163   82   83 2    
   164   82   84 am   BACKBONE|DICT|INTERRES
   165   84   85 1    
   166   84  205 1    
   167   85   86 1    
   168   85   87 1    
   169   85  206 1    
   170   86  207 1    
   171   86  208 1    
   172   86  209 1    
   173   87   88 2    
   174   87   89 am   BACKBONE|DICT|INTERRES
   175   89   90 1    
   176   89  210 1    
   177   90   91 1    
   178   90   92 1    
   179   90  211 1    
   180   91  212 1    
   181   91  213 1    
   182   91  214 1    
   183   92   93 2    
   184   92   94 am   BACKBONE|DICT|INTERRES
   185   94   95 1    
   186   94  215 1    
   187   95   96 1    
   188   95   97 1    
   189   95  216 1    
   190   96  217 1    
   191   96  218 1    
   192   96  219 1    
   193   97   98 2    
   194   97   99 am   BACKBONE|DICT|INTERRES
   195   99  100 1    
   196   99  220 1    
   197  100  101 1    
   198  100  102 1    
   199  100  221 1    
   200  101  222 1    
   201  101  223 1    
   202  101  224 1    
   203  102  103 2    
   204  102  104 am   BACKBONE|DICT|INTERRES
   205  104  105 1    
   206  104  225 1    
   207  105  106 1    
   208  105  107 1    
   209  105  226 1    
   210  106  227 1    
   211  106  228 1    
   212  106  229 1    
   213  107  108 2    
   214  107  109 am   BACKBONE|DICT|INTERRES
   215  109  110 1    
   216  109  230 1    
   217  110  111 1    
   218  110  112 1    
   219  110  231 1    
   220  111  232 1    
   221  111  233 1    
   222  111  234 1    
   223  112  113 2    
   224  112  114 am   BACKBONE|DICT|INTERRES
   225  114  115 1    
   226  114  235 1    
   227  115  116 1    
   228  115  117 1    
   229  115  236 1    
   230  116  237 1    
   231  116  238 1    
   232  116  239 1    
   233  117  118 2    
   234  117  119 am   BACKBONE|DICT|INTERRES
   235  119  120 1    
   236  119  240 1    
   237  120  121 1    
   238  120  124 1    
   239  120  241 1    
   240  121  122 am   BACKBONE|DICT|INTERRES
   241  121  123 2    
   242  122  242 1    
   243  122  243 1    
   244  124  125 1    
   245  124  244 1    
   246  124  245 1    
   247  125  126 1    
   248  126  246 1    
   249  126  247 1    
@<TRIPOS>SUBSTRUCTURE
     1 UNK         1 GROUP             0       ****    0 ROOT    
