@<TRIPOS>MOLECULE
3R540
247   249    1
SMALL
USER_CHARGES


@<TRIPOS>ATOM
      1 CA         -0.2364  -12.6818  -44.0337 C.3       0 UNK        -0.1800 
      2 C           0.8979  -12.7648  -45.0443 C.2       0 UNK         0.5000 
      3 O           1.7163  -11.8478  -45.1244 O.2       0 UNK        -0.5000 
      4 N           0.9419  -13.8517  -45.8220 N.am      1 UNK        -0.5000 
      5 CA          2.0023  -14.1488  -46.7908 C.3       1 UNK         0.1400 
      6 C6          1.5641  -15.2503  -47.7838 C.3       23 UNK        -0.0398 
      7 S7          0.1411  -14.7157  -48.7964 S.3       23 UNK        -0.2404 
      8 C8          0.8217  -14.7776  -50.4827 C.3       23 UNK        -0.0205 
      9 C9          0.6848  -16.1669  -51.0857 C.ar      23 UNK        -0.0193 
     10 C10        -0.4533  -16.4942  -51.8296 C.ar      23 UNK        -0.1150 
     11 C11        -0.5925  -17.7677  -52.3869 C.ar      23 UNK        -0.0193 
     12 C12         0.4201  -18.7111  -52.2091 C.ar      23 UNK        -0.1150 
     13 C13         1.5557  -18.4019  -51.4576 C.ar      23 UNK        -0.0193 
     14 C14         1.6870  -17.1253  -50.9036 C.ar      23 UNK        -0.1150 
     15 C15         2.6410  -19.4461  -51.2489 C.3       23 UNK        -0.0205 
     16 S16         2.4486  -20.3236  -49.6651 S.3       23 UNK        -0.2404 
     17 C17         0.9747  -21.3612  -49.9620 C.3       23 UNK        -0.0398 
     18 CA         -0.0881  -21.2267  -48.8458 C.3       11 UNK         0.1400 
     19 N          -0.5076  -19.8372  -48.5986 N.am      11 UNK        -0.5000 
     20 C          -1.2996  -19.4492  -47.5883 C.2       10 UNK         0.5000 
     21 O          -1.8535  -20.2388  -46.8160 O.2       10 UNK        -0.5000 
     22 CA         -1.5315  -17.9391  -47.4284 C.3       10 UNK         0.1400 
     23 CB         -2.3913  -17.3891  -48.5756 C.3       10 UNK        -0.1800 
     24 N          -2.2252  -17.7097  -46.1664 N.am      10 UNK        -0.5000 
     25 C          -1.8872  -16.8307  -45.2205 C.2       9 UNK         0.5000 
     26 O          -0.9753  -16.0057  -45.3287 O.2       9 UNK        -0.5000 
     27 CA         -2.7192  -16.9115  -43.9307 C.3       9 UNK         0.1400 
     28 CB         -2.5433  -18.2678  -43.2191 C.3       9 UNK        -0.1800 
     29 N          -2.3540  -15.8374  -43.0119 N.am      9 UNK        -0.5000 
     30 C          -3.1999  -15.2222  -42.1797 C.2       8 UNK         0.5000 
     31 O          -4.3990  -15.4972  -42.0992 O.2       8 UNK        -0.5000 
     32 CA         -2.5879  -14.1625  -41.2447 C.3       8 UNK         0.1400 
     33 CB         -3.6506  -13.2544  -40.5998 C.3       8 UNK        -0.1800 
     34 N          -1.8245  -14.8190  -40.1854 N.am      8 UNK        -0.5000 
     35 C          -0.5519  -15.2140  -40.2947 C.2       7 UNK         0.5000 
     36 O           0.1356  -15.0300  -41.3009 O.2       7 UNK        -0.5000 
     37 CA          0.0333  -15.9717  -39.0915 C.3       7 UNK         0.1400 
     38 CB         -0.0275  -17.4906  -39.3145 C.3       7 UNK        -0.1800 
     39 N           1.4184  -15.5722  -38.8588 N.am      7 UNK        -0.5000 
     40 C           1.7750  -14.4685  -38.1875 C.2       6 UNK         0.5000 
     41 O           0.9708  -13.7247  -37.6233 O.2       6 UNK        -0.5000 
     42 CA          3.2774  -14.1325  -38.1247 C.3       6 UNK         0.1400 
     43 CB          3.8975  -14.6778  -36.8290 C.3       6 UNK        -0.1800 
     44 N           4.0310  -14.6501  -39.2656 N.am      6 UNK        -0.5000 
     45 C           3.9574  -14.1692  -40.5133 C.2       5 UNK         0.5000 
     46 O           3.2756  -13.1945  -40.8323 O.2       5 UNK        -0.5000 
     47 CA          4.7943  -14.8895  -41.5867 C.3       5 UNK         0.1400 
     48 CB          6.0791  -15.5473  -41.0371 C.3       5 UNK        -0.1800 
     49 N           4.0056  -15.8606  -42.3433 N.am      5 UNK        -0.5000 
     50 C           3.3437  -16.9353  -41.8894 C.2       4 UNK         0.5000 
     51 O           3.2572  -17.2442  -40.6997 O.2       4 UNK        -0.5000 
     52 CA          2.7044  -17.8431  -42.9571 C.3       4 UNK         0.1400 
     53 CB          1.2763  -17.3895  -43.2877 C.3       4 UNK        -0.1800 
     54 N           3.4892  -17.8491  -44.1919 N.am      4 UNK        -0.5000 
     55 C           4.4865  -18.7007  -44.4643 C.2       3 UNK         0.5000 
     56 O           4.8247  -19.6198  -43.7177 O.2       3 UNK        -0.5000 
     57 CA          5.2300  -18.5009  -45.8012 C.3       3 UNK         0.1400 
     58 CB          4.5808  -19.3542  -46.9003 C.3       3 UNK        -0.1800 
     59 N           5.2578  -17.1055  -46.2437 N.am      3 UNK        -0.5000 
     60 C           5.9943  -16.1403  -45.6765 C.2       2 UNK         0.5000 
     61 O           6.7922  -16.3393  -44.7605 O.2       2 UNK        -0.5000 
     62 CA          5.7863  -14.7027  -46.2000 C.3       2 UNK         0.1400 
     63 CB          6.8366  -14.3665  -47.2695 C.3       2 UNK        -0.1800 
     64 N           4.4477  -14.4233  -46.7402 N.am      2 UNK        -0.5000 
     65 C           3.2987  -14.5615  -46.0638 C.2       1 UNK         0.5000 
     66 O           3.2419  -15.0365  -44.9284 O.2       1 UNK        -0.5000 
     67 C          -1.2585  -22.2016  -49.0999 C.2       11 UNK         0.5000 
     68 O          -1.0970  -23.3945  -48.8443 O.2       11 UNK        -0.5000 
     69 N          -2.4248  -21.6825  -49.5173 N.am      12 UNK        -0.5000 
     70 CA         -3.6982  -22.4006  -49.6559 C.3       12 UNK         0.1400 
     71 CB         -4.7817  -21.4145  -50.1143 C.3       12 UNK        -0.1800 
     72 C          -4.1680  -23.1463  -48.3902 C.2       12 UNK         0.5000 
     73 O          -4.9315  -24.1049  -48.5073 O.2       12 UNK        -0.5000 
     74 N          -3.6932  -22.7174  -47.2116 N.am      13 UNK        -0.5000 
     75 CA         -3.9271  -23.3773  -45.9273 C.3       13 UNK         0.1400 
     76 CB         -3.4560  -22.4437  -44.8012 C.3       13 UNK        -0.1800 
     77 C          -3.2477  -24.7588  -45.8011 C.2       13 UNK         0.5000 
     78 O          -3.6783  -25.5558  -44.9663 O.2       13 UNK        -0.5000 
     79 N          -2.2095  -25.0180  -46.6091 N.am      14 UNK        -0.5000 
     80 CA         -1.4522  -26.2698  -46.6252 C.3       14 UNK         0.1400 
     81 CB         -0.0013  -25.9880  -46.2008 C.3       14 UNK        -0.1800 
     82 C          -1.4995  -26.9247  -48.0141 C.2       14 UNK         0.5000 
     83 O          -1.8433  -28.1024  -48.1236 O.2       14 UNK        -0.5000 
     84 N          -1.1661  -26.1513  -49.0529 N.am      15 UNK        -0.5000 
     85 CA         -1.1711  -26.5594  -50.4517 C.3       15 UNK         0.1400 
     86 CB          0.0038  -25.8716  -51.1707 C.3       15 UNK        -0.1800 
     87 C          -2.5265  -26.1782  -51.0610 C.2       15 UNK         0.5000 
     88 O          -2.6442  -25.1282  -51.6926 O.2       15 UNK        -0.5000 
     89 N          -3.5361  -27.0293  -50.8360 N.am      16 UNK        -0.5000 
     90 CA         -4.9460  -26.8125  -51.1873 C.3       16 UNK         0.1400 
     91 CB         -5.7585  -28.0447  -50.7627 C.3       16 UNK        -0.1800 
     92 C          -5.2237  -26.4694  -52.6663 C.2       16 UNK         0.5000 
     93 O          -6.2346  -25.8313  -52.9554 O.2       16 UNK        -0.5000 
     94 N          -4.3125  -26.8478  -53.5732 N.am      17 UNK        -0.5000 
     95 CA         -4.3291  -26.4718  -54.9891 C.3       17 UNK         0.1400 
     96 CB         -3.1990  -27.2182  -55.7140 C.3       17 UNK        -0.1800 
     97 C          -4.2124  -24.9509  -55.2337 C.2       17 UNK         0.5000 
     98 O          -4.6965  -24.4678  -56.2579 O.2       17 UNK        -0.5000 
     99 N          -3.6017  -24.2170  -54.2907 N.am      18 UNK        -0.5000 
    100 CA        -3.4532  -22.7612  -54.3361 C.3       18 UNK         0.1400 
    101 CB        -2.2805  -22.3425  -53.4352 C.3       18 UNK        -0.1800 
    102 C         -4.7381  -21.9990  -53.9546 C.2       18 UNK         0.5000 
    103 O         -4.7760  -20.7792  -54.1182 O.2       18 UNK        -0.5000 
    104 N         -5.7815  -22.6997  -53.4794 N.am      19 UNK        -0.5000 
    105 CA        -7.0615  -22.1156  -53.0589 C.3       19 UNK         0.1400 
    106 CB        -7.9660  -23.2093  -52.4762 C.3       19 UNK        -0.1800 
    107 C         -7.8010  -21.3295  -54.1607 C.2       19 UNK         0.5000 
    108 O         -8.5649  -20.4181  -53.8422 O.2       19 UNK        -0.5000 
    109 N         -7.5230  -21.6478  -55.4315 N.am      20 UNK        -0.5000 
    110 CA        -7.9952  -20.8998  -56.5969 C.3       20 UNK         0.1400 
    111 CB        -7.6791  -21.7099  -57.8635 C.3       20 UNK        -0.1800 
    112 C         -7.3995  -19.4786  -56.7044 C.2       20 UNK         0.5000 
    113 O         -8.0231  -18.6166  -57.3253 O.2       20 UNK        -0.5000 
    114 N         -6.2154  -19.2589  -56.1153 N.am      21 UNK        -0.5000 
    115 CA        -5.4972  -17.9855  -56.1316 C.3       21 UNK         0.1400 
    116 CB        -4.0132  -18.2569  -56.4285 C.3       21 UNK        -0.1800 
    117 C         -5.6368  -17.2151  -54.8072 C.2       21 UNK         0.5000 
    118 O         -5.6501  -15.9835  -54.8347 O.2       21 UNK        -0.5000 
    119 N         -5.7145  -17.9310  -53.6786 N.am      22 UNK        -0.5000 
    120 CA        -5.6315  -17.3517  -52.3251 C.3       22 UNK         0.1400 
    121 C         -6.5253  -18.0485  -51.2597 C.2       22 UNK         0.5000 
    122 N         -7.5102  -18.8528  -51.6338 N.am      22 UNK        -0.7600 
    123 O         -6.3549  -17.8309  -50.0634 O.2       22 UNK        -0.5000 
    124 C124       -4.1597  -17.1528  -51.8656 C.3       23 UNK        -0.0398 
    125 S125       -3.1507  -18.6718  -52.0039 S.3       23 UNK        -0.2404 
    126 C126       -1.8453  -18.1465  -53.1550 C.3       23 UNK        -0.0205 
    127 H127        0.1612  -12.7693  -43.0224 H         1 UNK         0.0600 
    128 H128       -0.9678  -13.4751  -44.1856 H         1 UNK         0.0600 
    129 H129       -0.7516  -11.7252  -44.1197 H         1 UNK         0.0600 
    130 H130        0.2509  -14.5871  -45.6913 H         1 UNK         0.3000 
    131 H131        2.2145  -13.2381  -47.3550 H         1 UNK         0.0600 
    132 H132        2.3893  -15.5234  -48.4416 H         1 UNK         0.0800 
    133 H133        1.2942  -16.1597  -47.2464 H         1 UNK         0.0800 
    134 H134        0.2830  -14.0567  -51.0994 H         1 UNK         0.0800 
    135 H135        1.8637  -14.4547  -50.4879 H         1 UNK         0.0800 
    136 H136       -1.2387  -15.7634  -51.9607 H         1 UNK         0.1150 
    137 H137        0.3141  -19.6922  -52.6494 H         1 UNK         0.1150 
    138 H138        2.5698  -16.8829  -50.3301 H         1 UNK         0.1150 
    139 H139        2.6470  -20.1664  -52.0686 H         1 UNK         0.0800 
    140 H140        3.6187  -18.9622  -51.2646 H         1 UNK         0.0800 
    141 H141        1.3193  -22.3950  -50.0288 H         1 UNK         0.0800 
    142 H142        0.5372  -21.1353  -50.9328 H         1 UNK         0.0800 
    143 H143        0.3807  -21.5659  -47.9193 H         1 UNK         0.0600 
    144 H144       -0.0960  -19.1403  -49.2036 H         1 UNK         0.3000 
    145 H145       -0.5597  -17.4467  -47.4274 H         1 UNK         0.0600 
    146 H146       -3.3422  -17.9173  -48.6597 H         1 UNK         0.0600 
    147 H147       -2.6073  -16.3303  -48.4331 H         1 UNK         0.0600 
    148 H148       -1.8731  -17.4841  -49.5292 H         1 UNK         0.0600 
    149 H149       -2.9234  -18.4095  -45.9537 H         1 UNK         0.3000 
    150 H150       -3.7648  -16.7985  -44.2253 H         1 UNK         0.0600 
    151 H151       -1.5078  -18.4372  -42.9255 H         1 UNK         0.0600 
    152 H152       -2.8425  -19.0993  -43.8583 H         1 UNK         0.0600 
    153 H153       -3.1558  -18.3217  -42.3189 H         1 UNK         0.0600 
    154 H154       -1.3801  -15.5578  -43.0342 H         1 UNK         0.3000 
    155 H155       -1.9285  -13.5262  -41.8370 H         1 UNK         0.0600 
    156 H156       -4.3349  -13.8168  -39.9632 H         1 UNK         0.0600 
    157 H157       -4.2474  -12.7514  -41.3617 H         1 UNK         0.0600 
    158 H158       -3.1863  -12.4802  -39.9887 H         1 UNK         0.0600 
    159 H159       -2.3357  -15.0395  -39.3428 H         1 UNK         0.3000 
    160 H160       -0.5610  -15.7392  -38.2050 H         1 UNK         0.0600 
    161 H161        0.6083  -17.8058  -40.1406 H         1 UNK         0.0600 
    162 H162       -1.0445  -17.8149  -39.5388 H         1 UNK         0.0600 
    163 H163        0.2971  -18.0294  -38.4242 H         1 UNK         0.0600 
    164 H164        2.1300  -16.0956  -39.3576 H         1 UNK         0.3000 
    165 H165        3.3722  -13.0445  -38.1164 H         1 UNK         0.0600 
    166 H166        3.3760  -14.2898  -35.9530 H         1 UNK         0.0600 
    167 H167        3.8467  -15.7665  -36.7859 H         1 UNK         0.0600 
    168 H168        4.9439  -14.3856  -36.7386 H         1 UNK         0.0600 
    169 H169        4.5882  -15.4768  -39.1052 H         1 UNK         0.3000 
    170 H170        5.1012  -14.1248  -42.3020 H         1 UNK         0.0600 
    171 H171        6.6772  -14.8293  -40.4745 H         1 UNK         0.0600 
    172 H172        5.8691  -16.3919  -40.3805 H         1 UNK         0.0600 
    173 H173        6.7020  -15.9155  -41.8525 H         1 UNK         0.0600 
    174 H174        3.8950  -15.6410  -43.3302 H         1 UNK         0.3000 
    175 H175        2.6511  -18.8556  -42.5514 H         1 UNK         0.0600 
    176 H176        0.8316  -18.0167  -44.0603 H         1 UNK         0.0600 
    177 H177        0.6345  -17.4520  -42.4110 H         1 UNK         0.0600 
    178 H178        1.2490  -16.3568  -43.6375 H         1 UNK         0.0600 
    179 H179        3.3276  -17.0712  -44.8193 H         1 UNK         0.3000 
    180 H180        6.2588  -18.8412  -45.6654 H         1 UNK         0.0600 
    181 H181        3.5483  -19.0538  -47.0828 H         1 UNK         0.0600 
    182 H182        4.5704  -20.4091  -46.6232 H         1 UNK         0.0600 
    183 H183        5.1258  -19.2722  -47.8410 H         1 UNK         0.0600 
    184 H184        4.6450  -16.8562  -47.0048 H         1 UNK         0.3000 
    185 H185        5.9382  -14.0311  -45.3524 H         1 UNK         0.0600 
    186 H186        7.8466  -14.5369  -46.8938 H         1 UNK         0.0600 
    187 H187        6.7109  -14.9797  -48.1627 H         1 UNK         0.0600 
    188 H188        6.7762  -13.3198  -47.5680 H         1 UNK         0.0600 
    189 H189        4.4225  -14.0349  -47.6722 H         1 UNK         0.3000 
    190 H190       -2.4570  -20.6895  -49.6968 H         1 UNK         0.3000 
    191 H191       -3.5755  -23.1520  -50.4333 H         1 UNK         0.0600 
    192 H192       -4.5670  -21.0311  -51.1101 H         1 UNK         0.0600 
    193 H193       -5.7584  -21.8974  -50.1615 H         1 UNK         0.0600 
    194 H194       -4.8688  -20.5638  -49.4371 H         1 UNK         0.0600 
    195 H195       -3.0761  -21.9121  -47.1967 H         1 UNK         0.3000 
    196 H196       -5.0027  -23.5300  -45.8174 H         1 UNK         0.0600 
    197 H197       -3.6533  -22.8800  -43.8212 H         1 UNK         0.0600 
    198 H198       -3.9733  -21.4849  -44.8400 H         1 UNK         0.0600 
    199 H199       -2.3847  -22.2480  -44.8645 H         1 UNK         0.0600 
    200 H200       -1.9404  -24.3196  -47.2937 H         1 UNK         0.3000 
    201 H201       -1.8744  -26.9868  -45.9181 H         1 UNK         0.0600 
    202 H202        0.5989  -26.8983  -46.2295 H         1 UNK         0.0600 
    203 H203        0.4775  -25.2559  -46.8524 H         1 UNK         0.0600 
    204 H204        0.0400  -25.6034  -45.1817 H         1 UNK         0.0600 
    205 H205       -0.9812  -25.1624  -48.8960 H         1 UNK         0.3000 
    206 H206       -1.0368  -27.6396  -50.5393 H         1 UNK         0.0600 
    207 H207        0.9585  -26.1789  -50.7440 H         1 UNK         0.0600 
    208 H208        0.0198  -26.1333  -52.2293 H         1 UNK         0.0600 
    209 H209       -0.0565  -24.7844  -51.1018 H         1 UNK         0.0600 
    210 H210       -3.3408  -27.8541  -50.2853 H         1 UNK         0.3000 
    211 H211       -5.2913  -25.9600  -50.5991 H         1 UNK         0.0600 
    212 H212       -5.4281  -28.9428  -51.2860 H         1 UNK         0.0600 
    213 H213       -6.8191  -27.9091  -50.9794 H         1 UNK         0.0600 
    214 H214       -5.6692  -28.2265  -49.6914 H         1 UNK         0.0600 
    215 H215       -3.5071  -27.3625  -53.2498 H         1 UNK         0.3000 
    216 H216       -5.2822  -26.7983  -55.4100 H         1 UNK         0.0600 
    217 H217       -3.1964  -26.9841  -56.7795 H         1 UNK         0.0600 
    218 H218       -3.3151  -28.2981  -55.6205 H         1 UNK         0.0600 
    219 H219       -2.2198  -26.9486  -55.3161 H         1 UNK         0.0600 
    220 H220       -3.2496  -24.6744  -53.4531 H         1 UNK         0.3000 
    221 H221       -3.2038  -22.4714  -55.3589 H         1 UNK         0.0600 
    222 H222       -2.4787  -22.5559  -52.3865 H         1 UNK         0.0600 
    223 H223       -1.3621  -22.8593  -53.7135 H         1 UNK         0.0600 
    224 H224       -2.0885  -21.2731  -53.5160 H         1 UNK         0.0600 
    225 H225       -5.6954  -23.7046  -53.3894 H         1 UNK         0.3000 
    226 H226       -6.8388  -21.4082  -52.2606 H         1 UNK         0.0600 
    227 H227       -8.9045  -22.7886  -52.1127 H         1 UNK         0.0600 
    228 H228       -8.2125  -23.9652  -53.2226 H         1 UNK         0.0600 
    229 H229       -7.4880  -23.7089  -51.6333 H         1 UNK         0.0600 
    230 H230       -6.8809  -22.4076  -55.6063 H         1 UNK         0.3000 
    231 H231       -9.0794  -20.7966  -56.5175 H         1 UNK         0.0600 
    232 H232       -6.6062  -21.8670  -57.9825 H         1 UNK         0.0600 
    233 H233       -8.0374  -21.1962  -58.7566 H         1 UNK         0.0600 
    234 H234       -8.1607  -22.6876  -57.8372 H         1 UNK         0.0600 
    235 H235       -5.7811  -20.0048  -55.5814 H         1 UNK         0.3000 
    236 H236       -5.8825  -17.3449  -56.9276 H         1 UNK         0.0600 
    237 H237       -3.8887  -18.7473  -57.3939 H         1 UNK         0.0600 
    238 H238       -3.4439  -17.3271  -56.4598 H         1 UNK         0.0600 
    239 H239       -3.5587  -18.8938  -55.6689 H         1 UNK         0.0600 
    240 H240       -5.6170  -18.9389  -53.7293 H         1 UNK         0.3000 
    241 H241       -6.0725  -16.3545  -52.3696 H         1 UNK         0.0600 
    242 H242       -7.7295  -19.0309  -52.6059 H         1 UNK         0.3800 
    243 H243       -8.0892  -19.2632  -50.9196 H         1 UNK         0.3800 
    244 H244       -4.1111  -16.7908  -50.8383 H         1 UNK         0.0800 
    245 H245       -3.7104  -16.3580  -52.4605 H         1 UNK         0.0800 
    246 H246       -1.6314  -18.9677  -53.8396 H         1 UNK         0.0800 
    247 H247       -2.1771  -17.3195  -53.7835 H         1 UNK         0.0800 
@<TRIPOS>BOND
     1    1    2 1    
     2    1  127 1    
     3    1  128 1    
     4    1  129 1    
     5    2    3 2    
     6    2    4 am   BACKBONE|DICT|INTERRES
     7    4    5 1    
     8    4  130 1    
     9    5    6 1    
    10    5   65 1    
    11    5  131 1    
    12    6    7 1    
    13    6  132 1    
    14    6  133 1    
    15    7    8 1    
    16    8    9 1    
    17    8  134 1    
    18    8  135 1    
    19    9   10 ar   
    20    9   14 ar   
    21   10   11 ar   
    22   10  136 1    
    23   11   12 ar   
    24   11  126 1    
    25   12   13 ar   
    26   12  137 1    
    27   13   14 ar   
    28   13   15 1    
    29   14  138 1    
    30   15   16 1    
    31   15  139 1    
    32   15  140 1    
    33   16   17 1    
    34   17   18 1    
    35   17  141 1    
    36   17  142 1    
    37   18   19 1    
    38   18   67 1    
    39   18  143 1    
    40   19   20 am   BACKBONE|DICT|INTERRES
    41   19  144 1    
    42   20   21 2    
    43   20   22 1    
    44   22   23 1    
    45   22   24 1    
    46   22  145 1    
    47   23  146 1    
    48   23  147 1    
    49   23  148 1    
    50   24   25 am   BACKBONE|DICT|INTERRES
    51   24  149 1    
    52   25   26 2    
    53   25   27 1    
    54   27   28 1    
    55   27   29 1    
    56   27  150 1    
    57   28  151 1    
    58   28  152 1    
    59   28  153 1    
    60   29   30 am   BACKBONE|DICT|INTERRES
    61   29  154 1    
    62   30   31 2    
    63   30   32 1    
    64   32   33 1    
    65   32   34 1    
    66   32  155 1    
    67   33  156 1    
    68   33  157 1    
    69   33  158 1    
    70   34   35 am   BACKBONE|DICT|INTERRES
    71   34  159 1    
    72   35   36 2    
    73   35   37 1    
    74   37   38 1    
    75   37   39 1    
    76   37  160 1    
    77   38  161 1    
    78   38  162 1    
    79   38  163 1    
    80   39   40 am   BACKBONE|DICT|INTERRES
    81   39  164 1    
    82   40   41 2    
    83   40   42 1    
    84   42   43 1    
    85   42   44 1    
    86   42  165 1    
    87   43  166 1    
    88   43  167 1    
    89   43  168 1    
    90   44   45 am   BACKBONE|DICT|INTERRES
    91   44  169 1    
    92   45   46 2    
    93   45   47 1    
    94   47   48 1    
    95   47   49 1    
    96   47  170 1    
    97   48  171 1    
    98   48  172 1    
    99   48  173 1    
   100   49   50 am   BACKBONE|DICT|INTERRES
   101   49  174 1    
   102   50   51 2    
   103   50   52 1    
   104   52   53 1    
   105   52   54 1    
   106   52  175 1    
   107   53  176 1    
   108   53  177 1    
   109   53  178 1    
   110   54   55 am   BACKBONE|DICT|INTERRES
   111   54  179 1    
   112   55   56 2    
   113   55   57 1    
   114   57   58 1    
   115   57   59 1    
   116   57  180 1    
   117   58  181 1    
   118   58  182 1    
   119   58  183 1    
   120   59   60 am   BACKBONE|DICT|INTERRES
   121   59  184 1    
   122   60   61 2    
   123   60   62 1    
   124   62   63 1    
   125   62   64 1    
   126   62  185 1    
   127   63  186 1    
   128   63  187 1    
   129   63  188 1    
   130   64   65 am   BACKBONE|DICT|INTERRES
   131   64  189 1    
   132   65   66 2    
   133   67   68 2    
   134   67   69 am   BACKBONE|DICT|INTERRES
   135   69   70 1    
   136   69  190 1    
   137   70   71 1    
   138   70   72 1    
   139   70  191 1    
   140   71  192 1    
   141   71  193 1    
   142   71  194 1    
   143   72   73 2    
   144   72   74 am   BACKBONE|DICT|INTERRES
   145   74   75 1    
   146   74  195 1    
   147   75   76 1    
   148   75   77 1    
   149   75  196 1    
   150   76  197 1    
   151   76  198 1    
   152   76  199 1    
   153   77   78 2    
   154   77   79 am   BACKBONE|DICT|INTERRES
   155   79   80 1    
   156   79  200 1    
   157   80   81 1    
   158   80   82 1    
   159   80  201 1    
   160   81  202 1    
   161   81  203 1    
   162   81  204 1    
   163   82   83 2    
   164   82   84 am   BACKBONE|DICT|INTERRES
   165   84   85 1    
   166   84  205 1    
   167   85   86 1    
   168   85   87 1    
   169   85  206 1    
   170   86  207 1    
   171   86  208 1    
   172   86  209 1    
   173   87   88 2    
   174   87   89 am   BACKBONE|DICT|INTERRES
   175   89   90 1    
   176   89  210 1    
   177   90   91 1    
   178   90   92 1    
   179   90  211 1    
   180   91  212 1    
   181   91  213 1    
   182   91  214 1    
   183   92   93 2    
   184   92   94 am   BACKBONE|DICT|INTERRES
   185   94   95 1    
   186   94  215 1    
   187   95   96 1    
   188   95   97 1    
   189   95  216 1    
   190   96  217 1    
   191   96  218 1    
   192   96  219 1    
   193   97   98 2    
   194   97   99 am   BACKBONE|DICT|INTERRES
   195   99  100 1    
   196   99  220 1    
   197  100  101 1    
   198  100  102 1    
   199  100  221 1    
   200  101  222 1    
   201  101  223 1    
   202  101  224 1    
   203  102  103 2    
   204  102  104 am   BACKBONE|DICT|INTERRES
   205  104  105 1    
   206  104  225 1    
   207  105  106 1    
   208  105  107 1    
   209  105  226 1    
   210  106  227 1    
   211  106  228 1    
   212  106  229 1    
   213  107  108 2    
   214  107  109 am   BACKBONE|DICT|INTERRES
   215  109  110 1    
   216  109  230 1    
   217  110  111 1    
   218  110  112 1    
   219  110  231 1    
   220  111  232 1    
   221  111  233 1    
   222  111  234 1    
   223  112  113 2    
   224  112  114 am   BACKBONE|DICT|INTERRES
   225  114  115 1    
   226  114  235 1    
   227  115  116 1    
   228  115  117 1    
   229  115  236 1    
   230  116  237 1    
   231  116  238 1    
   232  116  239 1    
   233  117  118 2    
   234  117  119 am   BACKBONE|DICT|INTERRES
   235  119  120 1    
   236  119  240 1    
   237  120  121 1    
   238  120  124 1    
   239  120  241 1    
   240  121  122 am   BACKBONE|DICT|INTERRES
   241  121  123 2    
   242  122  242 1    
   243  122  243 1    
   244  124  125 1    
   245  124  244 1    
   246  124  245 1    
   247  125  126 1    
   248  126  246 1    
   249  126  247 1    
@<TRIPOS>SUBSTRUCTURE
     1 UNK         1 GROUP             0       ****    0 ROOT    
