@<TRIPOS>MOLECULE
3R540
247   249    1
SMALL
USER_CHARGES


@<TRIPOS>ATOM
      1 CA          1.5247  -12.5390  -52.2655 C.3       0 UNK        -0.1800 
      2 C           1.5668  -12.4929  -50.7445 C.2       0 UNK         0.5000 
      3 O           1.7892  -11.4279  -50.1680 O.2       0 UNK        -0.5000 
      4 N           1.3608  -13.6442  -50.0955 N.am      1 UNK        -0.5000 
      5 CA          1.3033  -13.7846  -48.6395 C.3       1 UNK         0.1400 
      6 C6          1.4628  -15.2613  -48.1930 C.3       23 UNK        -0.0398 
      7 S7          3.1838  -15.8566  -48.3011 S.3       23 UNK        -0.2404 
      8 C8          3.2962  -16.5139  -49.9971 C.3       23 UNK        -0.0205 
      9 C9          2.4211  -17.7389  -50.2207 C.ar      23 UNK        -0.0193 
     10 C10         1.2232  -17.6306  -50.9319 C.ar      23 UNK        -0.1150 
     11 C11         0.4372  -18.7592  -51.1808 C.ar      23 UNK        -0.0193 
     12 C12         0.8522  -20.0058  -50.7011 C.ar      23 UNK        -0.1150 
     13 C13         2.0512  -20.1284  -49.9885 C.ar      23 UNK        -0.0193 
     14 C14         2.8309  -18.9909  -49.7551 C.ar      23 UNK        -0.1150 
     15 C15         2.5220  -21.4918  -49.4945 C.3       23 UNK        -0.0205 
     16 S16         2.6534  -21.5702  -47.6776 S.3       23 UNK        -0.2404 
     17 C17         0.9206  -21.3048  -47.1857 C.3       23 UNK        -0.0398 
     18 CA          0.3819  -22.4117  -46.2489 C.3       11 UNK         0.1400 
     19 N           1.0582  -22.4020  -44.9532 N.am      11 UNK        -0.5000 
     20 C           1.2953  -23.4621  -44.1740 C.2       10 UNK         0.5000 
     21 O           0.9833  -24.6146  -44.4773 O.2       10 UNK        -0.5000 
     22 CA          1.9743  -23.1638  -42.8177 C.3       10 UNK         0.1400 
     23 CB          2.7163  -24.3805  -42.2272 C.3       10 UNK        -0.1800 
     24 N           2.8376  -21.9763  -42.8602 N.am      10 UNK        -0.5000 
     25 C           3.9638  -21.8051  -43.5707 C.2       9 UNK         0.5000 
     26 O           4.4995  -22.6949  -44.2321 O.2       9 UNK        -0.5000 
     27 CA          4.5937  -20.3958  -43.5691 C.3       9 UNK         0.1400 
     28 CB          4.4203  -19.7347  -44.9458 C.3       9 UNK        -0.1800 
     29 N           4.0390  -19.5011  -42.5511 N.am      9 UNK        -0.5000 
     30 C           4.3175  -19.5561  -41.2422 C.2       8 UNK         0.5000 
     31 O           5.1155  -20.3518  -40.7456 O.2       8 UNK        -0.5000 
     32 CA          3.5484  -18.5792  -40.3311 C.3       8 UNK         0.1400 
     33 CB          4.2438  -17.2102  -40.2892 C.3       8 UNK        -0.1800 
     34 N           2.1480  -18.4049  -40.7272 N.am      8 UNK        -0.5000 
     35 C           1.2250  -19.3776  -40.7046 C.2       7 UNK         0.5000 
     36 O           1.4515  -20.5275  -40.3282 O.2       7 UNK        -0.5000 
     37 CA         -0.1732  -19.0261  -41.2418 C.3       7 UNK         0.1400 
     38 CB         -0.9911  -18.2534  -40.1971 C.3       7 UNK        -0.1800 
     39 N          -0.1183  -18.2712  -42.4948 N.am      7 UNK        -0.5000 
     40 C           0.3607  -18.7614  -43.6467 C.2       6 UNK         0.5000 
     41 O           0.7331  -19.9247  -43.7841 O.2       6 UNK        -0.5000 
     42 CA          0.4815  -17.7950  -44.8364 C.3       6 UNK         0.1400 
     43 CB         -0.8512  -17.6855  -45.5914 C.3       6 UNK        -0.1800 
     44 N           0.9360  -16.4683  -44.4299 N.am      6 UNK        -0.5000 
     45 C           2.1328  -16.2080  -43.8861 C.2       5 UNK         0.5000 
     46 O           3.0038  -17.0576  -43.7067 O.2       5 UNK        -0.5000 
     47 CA          2.3701  -14.7678  -43.4060 C.3       5 UNK         0.1400 
     48 CB          2.7463  -13.8503  -44.5792 C.3       5 UNK        -0.1800 
     49 N           1.2016  -14.2316  -42.7069 N.am      5 UNK        -0.5000 
     50 C           0.7776  -14.6589  -41.5090 C.2       4 UNK         0.5000 
     51 O           1.3481  -15.5315  -40.8542 O.2       4 UNK        -0.5000 
     52 CA         -0.5192  -14.0282  -40.9686 C.3       4 UNK         0.1400 
     53 CB         -0.2219  -12.6907  -40.2746 C.3       4 UNK        -0.1800 
     54 N          -1.5251  -13.8203  -42.0120 N.am      4 UNK        -0.5000 
     55 C          -2.1707  -14.8095  -42.6459 C.2       3 UNK         0.5000 
     56 O          -2.0005  -16.0033  -42.4015 O.2       3 UNK        -0.5000 
     57 CA         -3.1241  -14.3953  -43.7849 C.3       3 UNK         0.1400 
     58 CB         -4.4979  -13.9991  -43.2240 C.3       3 UNK        -0.1800 
     59 N          -2.6068  -13.3087  -44.6266 N.am      3 UNK        -0.5000 
     60 C          -1.4453  -13.3581  -45.2912 C.2       2 UNK         0.5000 
     61 O          -0.6687  -14.3131  -45.2195 O.2       2 UNK        -0.5000 
     62 CA         -1.0607  -12.1259  -46.1340 C.3       2 UNK         0.1400 
     63 CB         -0.6485  -10.9599  -45.2209 C.3       2 UNK        -0.1800 
     64 N           0.0641  -12.4449  -47.0138 N.am      2 UNK        -0.5000 
     65 C          -0.0247  -13.2159  -48.1040 C.2       1 UNK         0.5000 
     66 O          -1.0895  -13.5306  -48.6419 O.2       1 UNK        -0.5000 
     67 C          -1.1357  -22.2160  -46.0921 C.2       11 UNK         0.5000 
     68 O          -1.8590  -22.5288  -47.0348 O.2       11 UNK        -0.5000 
     69 N          -1.5917  -21.6727  -44.9511 N.am      12 UNK        -0.5000 
     70 CA         -2.9562  -21.1868  -44.6984 C.3       12 UNK         0.1400 
     71 CB         -3.0861  -20.7716  -43.2260 C.3       12 UNK        -0.1800 
     72 C          -4.0988  -22.1424  -45.0933 C.2       12 UNK         0.5000 
     73 O          -5.1058  -21.6861  -45.6340 O.2       12 UNK        -0.5000 
     74 N          -3.9059  -23.4473  -44.8594 N.am      13 UNK        -0.5000 
     75 CA         -4.8565  -24.5035  -45.2167 C.3       13 UNK         0.1400 
     76 CB         -4.3967  -25.8249  -44.5825 C.3       13 UNK        -0.1800 
     77 C          -5.0523  -24.6748  -46.7374 C.2       13 UNK         0.5000 
     78 O          -6.1427  -25.0534  -47.1660 O.2       13 UNK        -0.5000 
     79 N          -4.0039  -24.3879  -47.5196 N.am      14 UNK        -0.5000 
     80 CA         -4.0220  -24.4097  -48.9800 C.3       14 UNK         0.1400 
     81 CB         -2.6527  -24.8787  -49.4972 C.3       14 UNK        -0.1800 
     82 C          -4.3652  -23.0211  -49.5386 C.2       14 UNK         0.5000 
     83 O          -5.1761  -22.9178  -50.4592 O.2       14 UNK        -0.5000 
     84 N          -3.7635  -21.9710  -48.9613 N.am      15 UNK        -0.5000 
     85 CA         -3.9195  -20.5682  -49.3543 C.3       15 UNK         0.1400 
     86 CB         -2.9248  -19.6995  -48.5715 C.3       15 UNK        -0.1800 
     87 C          -5.3576  -20.0340  -49.2108 C.2       15 UNK         0.5000 
     88 O          -5.7288  -19.1175  -49.9432 O.2       15 UNK        -0.5000 
     89 N          -6.1686  -20.6605  -48.3458 N.am      16 UNK        -0.5000 
     90 CA         -7.6183  -20.4584  -48.2475 C.3       16 UNK         0.1400 
     91 CB         -8.1601  -21.2951  -47.0787 C.3       16 UNK        -0.1800 
     92 C          -8.3856  -20.7940  -49.5472 C.2       16 UNK         0.5000 
     93 O          -9.4485  -20.2200  -49.7853 O.2       16 UNK        -0.5000 
     94 N          -7.8214  -21.6871  -50.3713 N.am      17 UNK        -0.5000 
     95 CA         -8.2899  -22.0441  -51.7114 C.3       17 UNK         0.1400 
     96 CB         -8.4607  -23.5722  -51.7747 C.3       17 UNK        -0.1800 
     97 C          -7.3102  -21.5360  -52.7927 C.2       17 UNK         0.5000 
     98 O          -7.3048  -22.0595  -53.9082 O.2       17 UNK        -0.5000 
     99 N          -6.4715  -20.5487  -52.4369 N.am      18 UNK        -0.5000 
    100 CA        -5.4126  -19.9253  -53.2394 C.3       18 UNK         0.1400 
    101 CB        -6.0132  -19.1611  -54.4360 C.3       18 UNK        -0.1800 
    102 C         -4.2901  -20.8940  -53.6681 C.2       18 UNK         0.5000 
    103 O         -3.5739  -20.6053  -54.6269 O.2       18 UNK        -0.5000 
    104 N         -4.1608  -22.0405  -52.9836 N.am      19 UNK        -0.5000 
    105 CA        -3.1747  -23.1090  -53.1994 C.3       19 UNK         0.1400 
    106 CB        -1.7820  -22.6277  -52.7422 C.3       19 UNK        -0.1800 
    107 C         -3.1531  -23.6988  -54.6301 C.2       19 UNK         0.5000 
    108 O         -2.1815  -24.3587  -55.0009 O.2       19 UNK        -0.5000 
    109 N         -4.2126  -23.4283  -55.4097 N.am      20 UNK        -0.5000 
    110 CA        -4.3589  -23.6752  -56.8473 C.3       20 UNK         0.1400 
    111 CB        -4.4806  -25.1880  -57.1254 C.3       20 UNK        -0.1800 
    112 C         -3.2689  -22.9904  -57.7084 C.2       20 UNK         0.5000 
    113 O         -2.9441  -23.4960  -58.7850 O.2       20 UNK        -0.5000 
    114 N         -2.7139  -21.8651  -57.2301 N.am      21 UNK        -0.5000 
    115 CA        -1.5797  -21.1837  -57.8628 C.3       21 UNK         0.1400 
    116 CB        -0.2656  -21.8432  -57.4062 C.3       21 UNK        -0.1800 
    117 C         -1.5364  -19.6693  -57.5979 C.2       21 UNK         0.5000 
    118 O         -1.0286  -18.9323  -58.4445 O.2       21 UNK        -0.5000 
    119 N         -2.0456  -19.2218  -56.4448 N.am      22 UNK        -0.5000 
    120 CA        -2.0072  -17.8206  -55.9923 C.3       22 UNK         0.1400 
    121 C         -3.1606  -16.9354  -56.5499 C.2       22 UNK         0.5000 
    122 N         -4.1031  -17.4696  -57.3172 N.am      22 UNK        -0.7600 
    123 O         -3.1952  -15.7353  -56.2922 O.2       22 UNK        -0.5000 
    124 C124       -1.9197  -17.7243  -54.4450 C.3       23 UNK        -0.0398 
    125 S125       -0.4586  -18.5887  -53.7738 S.3       23 UNK        -0.2404 
    126 C126       -0.8401  -18.6200  -51.9952 C.3       23 UNK        -0.0205 
    127 H127        1.3353  -13.5468  -52.6362 H         1 UNK         0.0600 
    128 H128        0.7362  -11.8856  -52.6389 H         1 UNK         0.0600 
    129 H129        2.4747  -12.1988  -52.6776 H         1 UNK         0.0600 
    130 H130        1.1369  -14.4732  -50.6234 H         1 UNK         0.3000 
    131 H131        2.1227  -13.2052  -48.2074 H         1 UNK         0.0600 
    132 H132        0.7929  -15.9187  -48.7477 H         1 UNK         0.0800 
    133 H133        1.1767  -15.3753  -47.1458 H         1 UNK         0.0800 
    134 H134        4.3353  -16.7824  -50.1923 H         1 UNK         0.0800 
    135 H135        3.0562  -15.7291  -50.7145 H         1 UNK         0.0800 
    136 H136        0.9087  -16.6708  -51.3155 H         1 UNK         0.1150 
    137 H137        0.2505  -20.8816  -50.8991 H         1 UNK         0.1150 
    138 H138        3.7608  -19.0817  -49.2112 H         1 UNK         0.1150 
    139 H139        1.8558  -22.2842  -49.8393 H         1 UNK         0.0800 
    140 H140        3.5004  -21.7049  -49.9269 H         1 UNK         0.0800 
    141 H141        0.3106  -21.2456  -48.0889 H         1 UNK         0.0800 
    142 H142        0.8490  -20.3247  -46.7125 H         1 UNK         0.0800 
    143 H143        0.5353  -23.3791  -46.7318 H         1 UNK         0.0600 
    144 H144        1.2872  -21.4832  -44.5819 H         1 UNK         0.3000 
    145 H145        1.1650  -22.9131  -42.1305 H         1 UNK         0.0600 
    146 H146        3.1876  -24.1308  -41.2766 H         1 UNK         0.0600 
    147 H147        2.0265  -25.2041  -42.0398 H         1 UNK         0.0600 
    148 H148        3.4900  -24.7521  -42.8994 H         1 UNK         0.0600 
    149 H149        2.4840  -21.1730  -42.3567 H         1 UNK         0.3000 
    150 H150        5.6625  -20.5153  -43.3805 H         1 UNK         0.0600 
    151 H151        4.8602  -20.3463  -45.7345 H         1 UNK         0.0600 
    152 H152        4.9080  -18.7605  -44.9818 H         1 UNK         0.0600 
    153 H153        3.3673  -19.5909  -45.1911 H         1 UNK         0.0600 
    154 H154        3.4303  -18.7595  -42.8872 H         1 UNK         0.3000 
    155 H155        3.5579  -18.9940  -39.3210 H         1 UNK         0.0600 
    156 H156        4.2430  -16.7275  -41.2667 H         1 UNK         0.0600 
    157 H157        5.2825  -17.3087  -39.9717 H         1 UNK         0.0600 
    158 H158        3.7505  -16.5393  -39.5856 H         1 UNK         0.0600 
    159 H159        1.8708  -17.4722  -41.0172 H         1 UNK         0.3000 
    160 H160       -0.6885  -19.9679  -41.4384 H         1 UNK         0.0600 
    161 H161       -2.0131  -18.0921  -40.5404 H         1 UNK         0.0600 
    162 H162       -0.5537  -17.2791  -39.9799 H         1 UNK         0.0600 
    163 H163       -1.0473  -18.8056  -39.2582 H         1 UNK         0.0600 
    164 H164       -0.4783  -17.3227  -42.4729 H         1 UNK         0.3000 
    165 H165        1.2278  -18.2018  -45.5216 H         1 UNK         0.0600 
    166 H166       -0.7564  -17.0445  -46.4681 H         1 UNK         0.0600 
    167 H167       -1.1849  -18.6638  -45.9388 H         1 UNK         0.0600 
    168 H168       -1.6384  -17.2725  -44.9598 H         1 UNK         0.0600 
    169 H169        0.2864  -15.6972  -44.5744 H         1 UNK         0.3000 
    170 H170        3.2084  -14.7825  -42.7062 H         1 UNK         0.0600 
    171 H171        3.6373  -14.2186  -45.0897 H         1 UNK         0.0600 
    172 H172        1.9498  -13.7925  -45.3189 H         1 UNK         0.0600 
    173 H173        2.9620  -12.8384  -44.2361 H         1 UNK         0.0600 
    174 H174        0.6403  -13.5595  -43.2072 H         1 UNK         0.3000 
    175 H175       -0.9359  -14.7115  -40.2254 H         1 UNK         0.0600 
    176 H176       -1.1208  -12.2747  -39.8192 H         1 UNK         0.0600 
    177 H177        0.5141  -12.8192  -39.4797 H         1 UNK         0.0600 
    178 H178        0.1741  -11.9520  -40.9726 H         1 UNK         0.0600 
    179 H179       -1.7208  -12.8669  -42.2790 H         1 UNK         0.3000 
    180 H180       -3.2596  -15.2683  -44.4267 H         1 UNK         0.0600 
    181 H181       -4.4382  -13.1030  -42.6052 H         1 UNK         0.0600 
    182 H182       -4.9126  -14.7975  -42.6068 H         1 UNK         0.0600 
    183 H183       -5.2111  -13.8072  -44.0258 H         1 UNK         0.0600 
    184 H184       -3.1920  -12.4907  -44.7173 H         1 UNK         0.3000 
    185 H185       -1.9205  -11.8273  -46.7373 H         1 UNK         0.0600 
    186 H186        0.1938  -11.2257  -44.5805 H         1 UNK         0.0600 
    187 H187       -0.3605  -10.0860  -45.8057 H         1 UNK         0.0600 
    188 H188       -1.4707  -10.6550  -44.5725 H         1 UNK         0.0600 
    189 H189        0.9794  -12.2344  -46.6455 H         1 UNK         0.3000 
    190 H190       -0.9026  -21.4366  -44.2498 H         1 UNK         0.3000 
    191 H191       -3.0851  -20.2858  -45.2982 H         1 UNK         0.0600 
    192 H192       -2.4585  -19.9089  -43.0086 H         1 UNK         0.0600 
    193 H193       -2.8027  -21.5796  -42.5508 H         1 UNK         0.0600 
    194 H194       -4.1107  -20.4846  -42.9850 H         1 UNK         0.0600 
    195 H195       -3.0398  -23.7365  -44.4292 H         1 UNK         0.3000 
    196 H196       -5.8265  -24.2395  -44.7900 H         1 UNK         0.0600 
    197 H197       -5.0963  -26.6310  -44.8082 H         1 UNK         0.0600 
    198 H198       -4.3376  -25.7425  -43.4971 H         1 UNK         0.0600 
    199 H199       -3.4160  -26.1283  -44.9513 H         1 UNK         0.0600 
    200 H200       -3.1667  -24.0098  -47.0901 H         1 UNK         0.3000 
    201 H201       -4.7771  -25.1148  -49.3341 H         1 UNK         0.0600 
    202 H202       -2.4016  -25.8634  -49.1027 H         1 UNK         0.0600 
    203 H203       -1.8521  -24.1936  -49.2157 H         1 UNK         0.0600 
    204 H204       -2.6494  -24.9572  -50.5840 H         1 UNK         0.0600 
    205 H205       -3.0952  -22.1552  -48.2148 H         1 UNK         0.3000 
    206 H206       -3.6580  -20.5013  -50.4120 H         1 UNK         0.0600 
    207 H207       -1.8992  -20.0368  -48.7229 H         1 UNK         0.0600 
    208 H208       -2.9743  -18.6591  -48.8957 H         1 UNK         0.0600 
    209 H209       -3.1330  -19.7196  -47.5033 H         1 UNK         0.0600 
    210 H210       -5.7684  -21.3564  -47.7280 H         1 UNK         0.3000 
    211 H211       -7.7938  -19.4036  -48.0270 H         1 UNK         0.0600 
    212 H212       -7.9486  -22.3569  -47.2130 H         1 UNK         0.0600 
    213 H213       -9.2409  -21.1832  -46.9821 H         1 UNK         0.0600 
    214 H214       -7.7179  -20.9825  -46.1327 H         1 UNK         0.0600 
    215 H215       -6.9320  -22.1011  -50.1086 H         1 UNK         0.3000 
    216 H216       -9.2574  -21.5821  -51.9161 H         1 UNK         0.0600 
    217 H217       -8.8695  -23.8849  -52.7362 H         1 UNK         0.0600 
    218 H218       -9.1463  -23.9232  -51.0033 H         1 UNK         0.0600 
    219 H219       -7.5094  -24.0878  -51.6367 H         1 UNK         0.0600 
    220 H220       -6.5526  -20.1803  -51.4958 H         1 UNK         0.3000 
    221 H221       -4.9352  -19.1906  -52.5902 H         1 UNK         0.0600 
    222 H222       -6.4284  -19.8373  -55.1837 H         1 UNK         0.0600 
    223 H223       -6.8065  -18.4859  -54.1154 H         1 UNK         0.0600 
    224 H224       -5.2562  -18.5535  -54.9310 H         1 UNK         0.0600 
    225 H225       -4.7994  -22.2111  -52.2121 H         1 UNK         0.3000 
    226 H226       -3.4758  -23.9307  -52.5499 H         1 UNK         0.0600 
    227 H227       -1.8125  -22.2548  -51.7183 H         1 UNK         0.0600 
    228 H228       -1.4024  -21.8280  -53.3794 H         1 UNK         0.0600 
    229 H229       -1.0548  -23.4399  -52.7668 H         1 UNK         0.0600 
    230 H230       -4.9560  -22.8858  -54.9899 H         1 UNK         0.3000 
    231 H231       -5.3024  -23.2111  -57.1373 H         1 UNK         0.0600 
    232 H232       -5.2598  -25.6401  -56.5117 H         1 UNK         0.0600 
    233 H233       -3.5468  -25.7131  -56.9226 H         1 UNK         0.0600 
    234 H234       -4.7417  -25.3761  -58.1674 H         1 UNK         0.0600 
    235 H235       -3.0411  -21.4976  -56.3430 H         1 UNK         0.3000 
    236 H236       -1.6599  -21.2949  -58.9463 H         1 UNK         0.0600 
    237 H237        0.5990  -21.3478  -57.8498 H         1 UNK         0.0600 
    238 H238       -0.1532  -21.7965  -56.3221 H         1 UNK         0.0600 
    239 H239       -0.2244  -22.8919  -57.7011 H         1 UNK         0.0600 
    240 H240       -2.4769  -19.8642  -55.7848 H         1 UNK         0.3000 
    241 H241       -1.0929  -17.3708  -56.3841 H         1 UNK         0.0600 
    242 H242       -4.8402  -16.8860  -57.6800 H         1 UNK         0.3800 
    243 H243       -4.0790  -18.4505  -57.5441 H         1 UNK         0.3800 
    244 H244       -1.8568  -16.6814  -54.1295 H         1 UNK         0.0800 
    245 H245       -2.8203  -18.1294  -53.9835 H         1 UNK         0.0800 
    246 H246       -1.5267  -19.4418  -51.7859 H         1 UNK         0.0800 
    247 H247       -1.3551  -17.7018  -51.7084 H         1 UNK         0.0800 
@<TRIPOS>BOND
     1    1    2 1    
     2    1  127 1    
     3    1  128 1    
     4    1  129 1    
     5    2    3 2    
     6    2    4 am   BACKBONE|DICT|INTERRES
     7    4    5 1    
     8    4  130 1    
     9    5    6 1    
    10    5   65 1    
    11    5  131 1    
    12    6    7 1    
    13    6  132 1    
    14    6  133 1    
    15    7    8 1    
    16    8    9 1    
    17    8  134 1    
    18    8  135 1    
    19    9   10 ar   
    20    9   14 ar   
    21   10   11 ar   
    22   10  136 1    
    23   11   12 ar   
    24   11  126 1    
    25   12   13 ar   
    26   12  137 1    
    27   13   14 ar   
    28   13   15 1    
    29   14  138 1    
    30   15   16 1    
    31   15  139 1    
    32   15  140 1    
    33   16   17 1    
    34   17   18 1    
    35   17  141 1    
    36   17  142 1    
    37   18   19 1    
    38   18   67 1    
    39   18  143 1    
    40   19   20 am   BACKBONE|DICT|INTERRES
    41   19  144 1    
    42   20   21 2    
    43   20   22 1    
    44   22   23 1    
    45   22   24 1    
    46   22  145 1    
    47   23  146 1    
    48   23  147 1    
    49   23  148 1    
    50   24   25 am   BACKBONE|DICT|INTERRES
    51   24  149 1    
    52   25   26 2    
    53   25   27 1    
    54   27   28 1    
    55   27   29 1    
    56   27  150 1    
    57   28  151 1    
    58   28  152 1    
    59   28  153 1    
    60   29   30 am   BACKBONE|DICT|INTERRES
    61   29  154 1    
    62   30   31 2    
    63   30   32 1    
    64   32   33 1    
    65   32   34 1    
    66   32  155 1    
    67   33  156 1    
    68   33  157 1    
    69   33  158 1    
    70   34   35 am   BACKBONE|DICT|INTERRES
    71   34  159 1    
    72   35   36 2    
    73   35   37 1    
    74   37   38 1    
    75   37   39 1    
    76   37  160 1    
    77   38  161 1    
    78   38  162 1    
    79   38  163 1    
    80   39   40 am   BACKBONE|DICT|INTERRES
    81   39  164 1    
    82   40   41 2    
    83   40   42 1    
    84   42   43 1    
    85   42   44 1    
    86   42  165 1    
    87   43  166 1    
    88   43  167 1    
    89   43  168 1    
    90   44   45 am   BACKBONE|DICT|INTERRES
    91   44  169 1    
    92   45   46 2    
    93   45   47 1    
    94   47   48 1    
    95   47   49 1    
    96   47  170 1    
    97   48  171 1    
    98   48  172 1    
    99   48  173 1    
   100   49   50 am   BACKBONE|DICT|INTERRES
   101   49  174 1    
   102   50   51 2    
   103   50   52 1    
   104   52   53 1    
   105   52   54 1    
   106   52  175 1    
   107   53  176 1    
   108   53  177 1    
   109   53  178 1    
   110   54   55 am   BACKBONE|DICT|INTERRES
   111   54  179 1    
   112   55   56 2    
   113   55   57 1    
   114   57   58 1    
   115   57   59 1    
   116   57  180 1    
   117   58  181 1    
   118   58  182 1    
   119   58  183 1    
   120   59   60 am   BACKBONE|DICT|INTERRES
   121   59  184 1    
   122   60   61 2    
   123   60   62 1    
   124   62   63 1    
   125   62   64 1    
   126   62  185 1    
   127   63  186 1    
   128   63  187 1    
   129   63  188 1    
   130   64   65 am   BACKBONE|DICT|INTERRES
   131   64  189 1    
   132   65   66 2    
   133   67   68 2    
   134   67   69 am   BACKBONE|DICT|INTERRES
   135   69   70 1    
   136   69  190 1    
   137   70   71 1    
   138   70   72 1    
   139   70  191 1    
   140   71  192 1    
   141   71  193 1    
   142   71  194 1    
   143   72   73 2    
   144   72   74 am   BACKBONE|DICT|INTERRES
   145   74   75 1    
   146   74  195 1    
   147   75   76 1    
   148   75   77 1    
   149   75  196 1    
   150   76  197 1    
   151   76  198 1    
   152   76  199 1    
   153   77   78 2    
   154   77   79 am   BACKBONE|DICT|INTERRES
   155   79   80 1    
   156   79  200 1    
   157   80   81 1    
   158   80   82 1    
   159   80  201 1    
   160   81  202 1    
   161   81  203 1    
   162   81  204 1    
   163   82   83 2    
   164   82   84 am   BACKBONE|DICT|INTERRES
   165   84   85 1    
   166   84  205 1    
   167   85   86 1    
   168   85   87 1    
   169   85  206 1    
   170   86  207 1    
   171   86  208 1    
   172   86  209 1    
   173   87   88 2    
   174   87   89 am   BACKBONE|DICT|INTERRES
   175   89   90 1    
   176   89  210 1    
   177   90   91 1    
   178   90   92 1    
   179   90  211 1    
   180   91  212 1    
   181   91  213 1    
   182   91  214 1    
   183   92   93 2    
   184   92   94 am   BACKBONE|DICT|INTERRES
   185   94   95 1    
   186   94  215 1    
   187   95   96 1    
   188   95   97 1    
   189   95  216 1    
   190   96  217 1    
   191   96  218 1    
   192   96  219 1    
   193   97   98 2    
   194   97   99 am   BACKBONE|DICT|INTERRES
   195   99  100 1    
   196   99  220 1    
   197  100  101 1    
   198  100  102 1    
   199  100  221 1    
   200  101  222 1    
   201  101  223 1    
   202  101  224 1    
   203  102  103 2    
   204  102  104 am   BACKBONE|DICT|INTERRES
   205  104  105 1    
   206  104  225 1    
   207  105  106 1    
   208  105  107 1    
   209  105  226 1    
   210  106  227 1    
   211  106  228 1    
   212  106  229 1    
   213  107  108 2    
   214  107  109 am   BACKBONE|DICT|INTERRES
   215  109  110 1    
   216  109  230 1    
   217  110  111 1    
   218  110  112 1    
   219  110  231 1    
   220  111  232 1    
   221  111  233 1    
   222  111  234 1    
   223  112  113 2    
   224  112  114 am   BACKBONE|DICT|INTERRES
   225  114  115 1    
   226  114  235 1    
   227  115  116 1    
   228  115  117 1    
   229  115  236 1    
   230  116  237 1    
   231  116  238 1    
   232  116  239 1    
   233  117  118 2    
   234  117  119 am   BACKBONE|DICT|INTERRES
   235  119  120 1    
   236  119  240 1    
   237  120  121 1    
   238  120  124 1    
   239  120  241 1    
   240  121  122 am   BACKBONE|DICT|INTERRES
   241  121  123 2    
   242  122  242 1    
   243  122  243 1    
   244  124  125 1    
   245  124  244 1    
   246  124  245 1    
   247  125  126 1    
   248  126  246 1    
   249  126  247 1    
@<TRIPOS>SUBSTRUCTURE
     1 UNK         1 GROUP             0       ****    0 ROOT    
