@<TRIPOS>MOLECULE
3R540
247   249    1
SMALL
USER_CHARGES


@<TRIPOS>ATOM
      1 CA         -4.8658  -14.4756  -50.4853 C.3       0 UNK        -0.1800 
      2 C          -3.5882  -14.9573  -49.8152 C.2       0 UNK         0.5000 
      3 O          -3.4678  -16.1402  -49.5025 O.2       0 UNK        -0.5000 
      4 N          -2.6393  -14.0422  -49.5711 N.am      1 UNK        -0.5000 
      5 CA         -1.2897  -14.2634  -49.0215 C.3       1 UNK         0.1400 
      6 C6         -0.4516  -15.2409  -49.8905 C.3       23 UNK        -0.0398 
      7 S7          1.3404  -14.9261  -49.7639 S.3       23 UNK        -0.2404 
      8 C8          1.8878  -16.3906  -48.8223 C.3       23 UNK        -0.0205 
      9 C9          2.3511  -17.5835  -49.6598 C.ar      23 UNK        -0.0193 
     10 C10         2.0302  -17.7428  -51.0166 C.ar      23 UNK        -0.1150 
     11 C11         2.5244  -18.8317  -51.7422 C.ar      23 UNK        -0.0193 
     12 C12         3.3213  -19.7814  -51.0987 C.ar      23 UNK        -0.1150 
     13 C13         3.6233  -19.6547  -49.7427 C.ar      23 UNK        -0.0193 
     14 C14         3.1435  -18.5507  -49.0343 C.ar      23 UNK        -0.1150 
     15 C15         4.4810  -20.7055  -49.0556 C.3       23 UNK        -0.0205 
     16 S16         3.5125  -22.1819  -48.6154 S.3       23 UNK        -0.2404 
     17 C17         2.5832  -21.5696  -47.1727 C.3       23 UNK        -0.0398 
     18 CA          1.2970  -22.3793  -46.8929 C.3       11 UNK         0.1400 
     19 N           0.8842  -22.2318  -45.4966 N.am      11 UNK        -0.5000 
     20 C          -0.0449  -22.9796  -44.8885 C.2       10 UNK         0.5000 
     21 O          -0.6481  -23.9031  -45.4370 O.2       10 UNK        -0.5000 
     22 CA         -0.3832  -22.5973  -43.4342 C.3       10 UNK         0.1400 
     23 CB          0.6698  -23.1477  -42.4607 C.3       10 UNK        -0.1800 
     24 N          -0.5108  -21.1501  -43.2475 N.am      10 UNK        -0.5000 
     25 C          -1.4385  -20.3961  -43.8531 C.2       9 UNK         0.5000 
     26 O          -2.3027  -20.8456  -44.6019 O.2       9 UNK        -0.5000 
     27 CA         -1.3636  -18.8795  -43.6329 C.3       9 UNK         0.1400 
     28 CB         -1.9567  -18.4950  -42.2691 C.3       9 UNK        -0.1800 
     29 N          -0.0055  -18.3510  -43.7689 N.am      9 UNK        -0.5000 
     30 C           0.7466  -18.4330  -44.8764 C.2       8 UNK         0.5000 
     31 O           0.3571  -18.9179  -45.9336 O.2       8 UNK        -0.5000 
     32 CA          2.2024  -17.9531  -44.7809 C.3       8 UNK         0.1400 
     33 CB          2.2999  -16.4351  -44.9796 C.3       8 UNK        -0.1800 
     34 N           2.8210  -18.3392  -43.5153 N.am      8 UNK        -0.5000 
     35 C           3.0760  -19.6058  -43.1557 C.2       7 UNK         0.5000 
     36 O           2.8717  -20.5795  -43.8819 O.2       7 UNK        -0.5000 
     37 CA          3.5965  -19.8141  -41.7222 C.3       7 UNK         0.1400 
     38 CB          5.1143  -19.5886  -41.6568 C.3       7 UNK        -0.1800 
     39 N           2.9299  -18.9288  -40.7644 N.am      7 UNK        -0.5000 
     40 C           1.6371  -19.0287  -40.4223 C.2       6 UNK         0.5000 
     41 O           0.8951  -19.9245  -40.8268 O.2       6 UNK        -0.5000 
     42 CA          1.0724  -17.9133  -39.5186 C.3       6 UNK         0.1400 
     43 CB          1.3076  -18.2465  -38.0380 C.3       6 UNK        -0.1800 
     44 N           1.6360  -16.5906  -39.8175 N.am      6 UNK        -0.5000 
     45 C           1.4476  -15.9377  -40.9720 C.2       5 UNK         0.5000 
     46 O           0.7539  -16.3756  -41.8901 O.2       5 UNK        -0.5000 
     47 CA          2.2141  -14.6215  -41.1642 C.3       5 UNK         0.1400 
     48 CB          3.7097  -14.9293  -41.4004 C.3       5 UNK        -0.1800 
     49 N           1.6501  -13.8983  -42.3065 N.am      5 UNK        -0.5000 
     50 C           2.0050  -12.6732  -42.7149 C.2       4 UNK         0.5000 
     51 O           2.8132  -11.9626  -42.1154 O.2       4 UNK        -0.5000 
     52 CA          1.3653  -12.1396  -44.0128 C.3       4 UNK         0.1400 
     53 CB          2.1762  -12.5804  -45.2409 C.3       4 UNK        -0.1800 
     54 N          -0.0380  -12.5116  -44.2027 N.am      4 UNK        -0.5000 
     55 C          -1.0490  -12.0460  -43.4532 C.2       3 UNK         0.5000 
     56 O          -0.8852  -11.3238  -42.4687 O.2       3 UNK        -0.5000 
     57 CA         -2.4895  -12.4000  -43.8818 C.3       3 UNK         0.1400 
     58 CB         -3.1801  -11.1745  -44.5013 C.3       3 UNK        -0.1800 
     59 N          -2.5797  -13.5105  -44.8302 N.am      3 UNK        -0.5000 
     60 C          -2.3368  -14.7910  -44.5274 C.2       2 UNK         0.5000 
     61 O          -2.0236  -15.1687  -43.4006 O.2       2 UNK        -0.5000 
     62 CA         -2.4605  -15.8237  -45.6650 C.3       2 UNK         0.1400 
     63 CB         -3.8125  -16.5506  -45.5692 C.3       2 UNK        -0.1800 
     64 N          -2.3148  -15.2932  -47.0217 N.am      2 UNK        -0.5000 
     65 C          -1.2567  -14.6407  -47.5181 C.2       1 UNK         0.5000 
     66 O          -0.2932  -14.3049  -46.8277 O.2       1 UNK        -0.5000 
     67 C           0.1529  -22.0291  -47.8720 C.2       11 UNK         0.5000 
     68 O          -0.1266  -22.8003  -48.7897 O.2       11 UNK        -0.5000 
     69 N          -0.5283  -20.9018  -47.6291 N.am      12 UNK        -0.5000 
     70 CA         -1.6745  -20.4323  -48.4043 C.3       12 UNK         0.1400 
     71 CB         -2.0176  -18.9968  -47.9865 C.3       12 UNK        -0.1800 
     72 C          -2.9017  -21.3534  -48.2792 C.2       12 UNK         0.5000 
     73 O          -3.6326  -21.5168  -49.2554 O.2       12 UNK        -0.5000 
     74 N          -3.1048  -21.9593  -47.1001 N.am      13 UNK        -0.5000 
     75 CA         -4.1375  -22.9662  -46.8540 C.3       13 UNK         0.1400 
     76 CB         -4.2416  -23.2737  -45.3536 C.3       13 UNK        -0.1800 
     77 C          -3.9061  -24.2533  -47.6635 C.2       13 UNK         0.5000 
     78 O          -4.8614  -24.7924  -48.2244 O.2       13 UNK        -0.5000 
     79 N          -2.6426  -24.6946  -47.7510 N.am      14 UNK        -0.5000 
     80 CA         -2.2221  -25.8057  -48.6069 C.3       14 UNK         0.1400 
     81 CB         -0.7755  -26.2019  -48.2754 C.3       14 UNK        -0.1800 
     82 C          -2.3861  -25.4778  -50.1040 C.2       14 UNK         0.5000 
     83 O          -2.8420  -26.3295  -50.8682 O.2       14 UNK        -0.5000 
     84 N          -2.0813  -24.2307  -50.4867 N.am      15 UNK        -0.5000 
     85 CA         -2.2883  -23.6628  -51.8206 C.3       15 UNK         0.1400 
     86 CB         -1.3175  -22.4875  -52.0114 C.3       15 UNK        -0.1800 
     87 C          -3.7640  -23.2739  -52.0782 C.2       15 UNK         0.5000 
     88 O          -4.0564  -22.1334  -52.4490 O.2       15 UNK        -0.5000 
     89 N          -4.6568  -24.2563  -51.9009 N.am      16 UNK        -0.5000 
     90 CA         -6.0969  -24.2321  -52.1592 C.3       16 UNK         0.1400 
     91 CB         -6.3807  -24.0339  -53.6624 C.3       16 UNK        -0.1800 
     92 C          -6.8762  -23.2476  -51.2649 C.2       16 UNK         0.5000 
     93 O          -7.5934  -22.3867  -51.7746 O.2       16 UNK        -0.5000 
     94 N          -6.7603  -23.4269  -49.9413 N.am      17 UNK        -0.5000 
     95 CA         -7.6085  -22.8242  -48.9042 C.3       17 UNK         0.1400 
     96 CB         -9.0354  -23.4081  -48.9810 C.3       17 UNK        -0.1800 
     97 C          -7.5925  -21.2808  -48.8971 C.2       17 UNK         0.5000 
     98 O          -8.6496  -20.6494  -48.8489 O.2       17 UNK        -0.5000 
     99 N          -6.3822  -20.7089  -48.9457 N.am      18 UNK        -0.5000 
    100 CA        -6.0810  -19.2736  -48.9421 C.3       18 UNK         0.1400 
    101 CB        -6.6133  -18.5677  -47.6772 C.3       18 UNK        -0.1800 
    102 C         -6.4508  -18.5572  -50.2548 C.2       18 UNK         0.5000 
    103 O         -6.6064  -17.3360  -50.2631 O.2       18 UNK        -0.5000 
    104 N         -6.5340  -19.3154  -51.3571 N.am      19 UNK        -0.5000 
    105 CA        -6.5570  -18.7701  -52.7151 C.3       19 UNK         0.1400 
    106 CB        -7.1607  -19.8085  -53.6716 C.3       19 UNK        -0.1800 
    107 C         -5.1472  -18.3715  -53.1936 C.2       19 UNK         0.5000 
    108 O         -5.0343  -17.5344  -54.0895 O.2       19 UNK        -0.5000 
    109 N         -4.1125  -18.9935  -52.6026 N.am      20 UNK        -0.5000 
    110 CA        -2.6963  -18.9115  -52.9709 C.3       20 UNK         0.1400 
    111 CB        -2.1232  -17.5018  -52.7196 C.3       20 UNK        -0.1800 
    112 C         -2.4573  -19.4324  -54.4017 C.2       20 UNK         0.5000 
    113 O         -1.7600  -18.7981  -55.1967 O.2       20 UNK        -0.5000 
    114 N         -3.0541  -20.5942  -54.7040 N.am      21 UNK        -0.5000 
    115 CA        -2.9701  -21.3025  -55.9825 C.3       21 UNK         0.1400 
    116 CB        -4.1730  -22.2537  -56.0969 C.3       21 UNK        -0.1800 
    117 C         -1.6198  -22.0336  -56.1393 C.2       21 UNK         0.5000 
    118 O         -1.5793  -23.2562  -56.2882 O.2       21 UNK        -0.5000 
    119 N         -0.5335  -21.2614  -56.0642 N.am      22 UNK        -0.5000 
    120 CA         0.8595  -21.7289  -56.0890 C.3       22 UNK         0.1400 
    121 C          1.4090  -22.0569  -57.5087 C.2       22 UNK         0.5000 
    122 N          0.6912  -21.7693  -58.5878 N.am      22 UNK        -0.7600 
    123 O          2.5072  -22.5920  -57.6340 O.2       22 UNK        -0.5000 
    124 C124        1.7895  -20.7352  -55.3494 C.3       23 UNK        -0.0398 
    125 S125        1.3053  -20.4795  -53.6080 S.3       23 UNK        -0.2404 
    126 C126        2.2455  -18.9690  -53.2312 C.3       23 UNK        -0.0205 
    127 H127       -5.7153  -14.6213  -49.8180 H         1 UNK         0.0600 
    128 H128       -5.0466  -15.0481  -51.3954 H         1 UNK         0.0600 
    129 H129       -4.8143  -13.4194  -50.7502 H         1 UNK         0.0600 
    130 H130       -2.8329  -13.0817  -49.8197 H         1 UNK         0.3000 
    131 H131       -0.8194  -13.2806  -49.0846 H         1 UNK         0.0600 
    132 H132       -0.7093  -15.1120  -50.9426 H         1 UNK         0.0800 
    133 H133       -0.6838  -16.2823  -49.6603 H         1 UNK         0.0800 
    134 H134        2.7180  -16.0673  -48.1927 H         1 UNK         0.0800 
    135 H135        1.0987  -16.7164  -48.1432 H         1 UNK         0.0800 
    136 H136        1.4161  -17.0134  -51.5234 H         1 UNK         0.1150 
    137 H137        3.7027  -20.6261  -51.6555 H         1 UNK         0.1150 
    138 H138        3.3934  -18.4398  -47.9888 H         1 UNK         0.1150 
    139 H139        5.2919  -21.0027  -49.7222 H         1 UNK         0.0800 
    140 H140        4.9564  -20.2969  -48.1623 H         1 UNK         0.0800 
    141 H141        2.3530  -20.5098  -47.2791 H         1 UNK         0.0800 
    142 H142        3.2615  -21.6419  -46.3216 H         1 UNK         0.0800 
    143 H143        1.5284  -23.4376  -47.0342 H         1 UNK         0.0600 
    144 H144        1.3503  -21.5085  -44.9594 H         1 UNK         0.3000 
    145 H145       -1.3449  -23.0517  -43.1874 H         1 UNK         0.0600 
    146 H146        0.3970  -22.9374  -41.4263 H         1 UNK         0.0600 
    147 H147        0.7651  -24.2297  -42.5597 H         1 UNK         0.0600 
    148 H148        1.6534  -22.7128  -42.6403 H         1 UNK         0.0600 
    149 H149        0.1434  -20.7047  -42.6128 H         1 UNK         0.3000 
    150 H150       -1.9765  -18.4210  -44.4060 H         1 UNK         0.0600 
    151 H151       -3.0106  -18.7698  -42.2156 H         1 UNK         0.0600 
    152 H152       -1.8915  -17.4225  -42.0924 H         1 UNK         0.0600 
    153 H153       -1.4491  -18.9967  -41.4469 H         1 UNK         0.0600 
    154 H154        0.3659  -17.8481  -42.9672 H         1 UNK         0.3000 
    155 H155        2.7616  -18.4331  -45.5864 H         1 UNK         0.0600 
    156 H156        1.7747  -15.8900  -44.1994 H         1 UNK         0.0600 
    157 H157        3.3370  -16.0999  -44.9874 H         1 UNK         0.0600 
    158 H158        1.8516  -16.1361  -45.9262 H         1 UNK         0.0600 
    159 H159        2.9782  -17.6055  -42.8428 H         1 UNK         0.3000 
    160 H160        3.3902  -20.8483  -41.4380 H         1 UNK         0.0600 
    161 H161        5.3829  -18.5623  -41.9102 H         1 UNK         0.0600 
    162 H162        5.6360  -20.2464  -42.3534 H         1 UNK         0.0600 
    163 H163        5.5011  -19.8007  -40.6599 H         1 UNK         0.0600 
    164 H164        3.4767  -18.1744  -40.3772 H         1 UNK         0.3000 
    165 H165       -0.0052  -17.8657  -39.6889 H         1 UNK         0.0600 
    166 H166        0.8389  -17.5072  -37.3883 H         1 UNK         0.0600 
    167 H167        0.8802  -19.2176  -37.7843 H         1 UNK         0.0600 
    168 H168        2.3704  -18.2821  -37.7955 H         1 UNK         0.0600 
    169 H169        2.2205  -16.1766  -39.1053 H         1 UNK         0.3000 
    170 H170        2.0933  -14.0143  -40.2653 H         1 UNK         0.0600 
    171 H171        3.8650  -15.4732  -42.3327 H         1 UNK         0.0600 
    172 H172        4.3078  -14.0198  -41.4451 H         1 UNK         0.0600 
    173 H173        4.1260  -15.5340  -40.5939 H         1 UNK         0.0600 
    174 H174        0.9370  -14.4119  -42.8109 H         1 UNK         0.3000 
    175 H175        1.4107  -11.0494  -43.9654 H         1 UNK         0.0600 
    176 H176        1.8075  -12.1022  -46.1486 H         1 UNK         0.0600 
    177 H177        2.1251  -13.6579  -45.3914 H         1 UNK         0.0600 
    178 H178        3.2280  -12.3117  -45.1355 H         1 UNK         0.0600 
    179 H179       -0.2483  -13.1037  -44.9982 H         1 UNK         0.3000 
    180 H180       -3.0363  -12.6783  -42.9783 H         1 UNK         0.0600 
    181 H181       -2.6839  -10.8548  -45.4185 H         1 UNK         0.0600 
    182 H182       -3.1719  -10.3291  -43.8119 H         1 UNK         0.0600 
    183 H183       -4.2228  -11.3865  -44.7386 H         1 UNK         0.0600 
    184 H184       -2.8257  -13.2821  -45.7818 H         1 UNK         0.3000 
    185 H185       -1.6536  -16.5435  -45.5305 H         1 UNK         0.0600 
    186 H186       -4.6450  -15.8652  -45.7328 H         1 UNK         0.0600 
    187 H187       -3.8928  -17.3481  -46.3068 H         1 UNK         0.0600 
    188 H188       -3.9505  -17.0017  -44.5858 H         1 UNK         0.0600 
    189 H189       -3.0250  -15.5685  -47.6925 H         1 UNK         0.3000 
    190 H190       -0.2223  -20.2881  -46.8748 H         1 UNK         0.3000 
    191 H191       -1.3772  -20.4090  -49.4532 H         1 UNK         0.0600 
    192 H192       -1.1667  -18.3301  -48.1274 H         1 UNK         0.0600 
    193 H193       -2.8354  -18.5962  -48.5832 H         1 UNK         0.0600 
    194 H194       -2.3098  -18.9492  -46.9377 H         1 UNK         0.0600 
    195 H195       -2.5240  -21.7032  -46.3064 H         1 UNK         0.3000 
    196 H196       -5.0902  -22.5414  -47.1680 H         1 UNK         0.0600 
    197 H197       -4.9994  -24.0343  -45.1618 H         1 UNK         0.0600 
    198 H198       -4.5264  -22.3855  -44.7897 H         1 UNK         0.0600 
    199 H199       -3.2984  -23.6400  -44.9488 H         1 UNK         0.0600 
    200 H200       -1.9164  -24.2096  -47.2369 H         1 UNK         0.3000 
    201 H201       -2.8635  -26.6606  -48.3831 H         1 UNK         0.0600 
    202 H202       -0.6721  -26.4708  -47.2239 H         1 UNK         0.0600 
    203 H203       -0.0733  -25.3950  -48.4829 H         1 UNK         0.0600 
    204 H204       -0.4645  -27.0651  -48.8650 H         1 UNK         0.0600 
    205 H205       -1.6757  -23.6074  -49.7958 H         1 UNK         0.3000 
    206 H206       -2.0271  -24.4207  -52.5618 H         1 UNK         0.0600 
    207 H207       -0.2870  -22.7894  -51.8232 H         1 UNK         0.0600 
    208 H208       -1.3586  -22.1067  -53.0311 H         1 UNK         0.0600 
    209 H209       -1.5509  -21.6654  -51.3381 H         1 UNK         0.0600 
    210 H210       -4.2871  -25.1429  -51.5724 H         1 UNK         0.3000 
    211 H211       -6.4614  -25.2261  -51.8959 H         1 UNK         0.0600 
    212 H212       -6.1035  -23.0354  -53.9969 H         1 UNK         0.0600 
    213 H213       -7.4419  -24.1634  -53.8779 H         1 UNK         0.0600 
    214 H214       -5.8355  -24.7573  -54.2685 H         1 UNK         0.0600 
    215 H215       -6.0868  -24.1062  -49.5977 H         1 UNK         0.3000 
    216 H216       -7.1926  -23.1367  -47.9465 H         1 UNK         0.0600 
    217 H217       -9.6459  -23.0619  -48.1462 H         1 UNK         0.0600 
    218 H218       -9.0182  -24.4972  -48.9376 H         1 UNK         0.0600 
    219 H219       -9.5438  -23.1171  -49.9009 H         1 UNK         0.0600 
    220 H220       -5.5656  -21.3046  -49.0541 H         1 UNK         0.3000 
    221 H221       -4.9960  -19.2097  -48.8936 H         1 UNK         0.0600 
    222 H222       -7.7010  -18.4975  -47.6749 H         1 UNK         0.0600 
    223 H223       -6.3051  -19.0931  -46.7733 H         1 UNK         0.0600 
    224 H224       -6.2237  -17.5514  -47.6076 H         1 UNK         0.0600 
    225 H225       -6.4757  -20.3219  -51.2701 H         1 UNK         0.3000 
    226 H226       -7.1880  -17.8790  -52.7364 H         1 UNK         0.0600 
    227 H227       -8.1632  -20.1000  -53.3582 H         1 UNK         0.0600 
    228 H228       -7.2377  -19.4097  -54.6838 H         1 UNK         0.0600 
    229 H229       -6.5479  -20.7089  -53.7207 H         1 UNK         0.0600 
    230 H230       -4.3335  -19.7040  -51.9182 H         1 UNK         0.3000 
    231 H231       -2.1676  -19.5947  -52.3063 H         1 UNK         0.0600 
    232 H232       -2.5752  -16.7529  -53.3698 H         1 UNK         0.0600 
    233 H233       -1.0470  -17.4830  -52.8964 H         1 UNK         0.0600 
    234 H234       -2.2854  -17.1941  -51.6875 H         1 UNK         0.0600 
    235 H235       -3.5625  -21.0716  -53.9636 H         1 UNK         0.3000 
    236 H236       -3.0439  -20.5725  -56.7911 H         1 UNK         0.0600 
    237 H237       -5.1150  -21.7171  -55.9819 H         1 UNK         0.0600 
    238 H238       -4.1937  -22.7428  -57.0714 H         1 UNK         0.0600 
    239 H239       -4.1345  -23.0356  -55.3382 H         1 UNK         0.0600 
    240 H240       -0.6733  -20.2693  -55.8995 H         1 UNK         0.3000 
    241 H241        0.8965  -22.6721  -55.5402 H         1 UNK         0.0600 
    242 H242        1.0551  -21.9910  -59.5016 H         1 UNK         0.3800 
    243 H243       -0.2119  -21.3319  -58.4997 H         1 UNK         0.3800 
    244 H244        2.8201  -21.0947  -55.3551 H         1 UNK         0.0800 
    245 H245        1.7945  -19.7720  -55.8628 H         1 UNK         0.0800 
    246 H246        3.2004  -18.9887  -53.7587 H         1 UNK         0.0800 
    247 H247        1.6973  -18.1055  -53.6113 H         1 UNK         0.0800 
@<TRIPOS>BOND
     1    1    2 1    
     2    1  127 1    
     3    1  128 1    
     4    1  129 1    
     5    2    3 2    
     6    2    4 am   BACKBONE|DICT|INTERRES
     7    4    5 1    
     8    4  130 1    
     9    5    6 1    
    10    5   65 1    
    11    5  131 1    
    12    6    7 1    
    13    6  132 1    
    14    6  133 1    
    15    7    8 1    
    16    8    9 1    
    17    8  134 1    
    18    8  135 1    
    19    9   10 ar   
    20    9   14 ar   
    21   10   11 ar   
    22   10  136 1    
    23   11   12 ar   
    24   11  126 1    
    25   12   13 ar   
    26   12  137 1    
    27   13   14 ar   
    28   13   15 1    
    29   14  138 1    
    30   15   16 1    
    31   15  139 1    
    32   15  140 1    
    33   16   17 1    
    34   17   18 1    
    35   17  141 1    
    36   17  142 1    
    37   18   19 1    
    38   18   67 1    
    39   18  143 1    
    40   19   20 am   BACKBONE|DICT|INTERRES
    41   19  144 1    
    42   20   21 2    
    43   20   22 1    
    44   22   23 1    
    45   22   24 1    
    46   22  145 1    
    47   23  146 1    
    48   23  147 1    
    49   23  148 1    
    50   24   25 am   BACKBONE|DICT|INTERRES
    51   24  149 1    
    52   25   26 2    
    53   25   27 1    
    54   27   28 1    
    55   27   29 1    
    56   27  150 1    
    57   28  151 1    
    58   28  152 1    
    59   28  153 1    
    60   29   30 am   BACKBONE|DICT|INTERRES
    61   29  154 1    
    62   30   31 2    
    63   30   32 1    
    64   32   33 1    
    65   32   34 1    
    66   32  155 1    
    67   33  156 1    
    68   33  157 1    
    69   33  158 1    
    70   34   35 am   BACKBONE|DICT|INTERRES
    71   34  159 1    
    72   35   36 2    
    73   35   37 1    
    74   37   38 1    
    75   37   39 1    
    76   37  160 1    
    77   38  161 1    
    78   38  162 1    
    79   38  163 1    
    80   39   40 am   BACKBONE|DICT|INTERRES
    81   39  164 1    
    82   40   41 2    
    83   40   42 1    
    84   42   43 1    
    85   42   44 1    
    86   42  165 1    
    87   43  166 1    
    88   43  167 1    
    89   43  168 1    
    90   44   45 am   BACKBONE|DICT|INTERRES
    91   44  169 1    
    92   45   46 2    
    93   45   47 1    
    94   47   48 1    
    95   47   49 1    
    96   47  170 1    
    97   48  171 1    
    98   48  172 1    
    99   48  173 1    
   100   49   50 am   BACKBONE|DICT|INTERRES
   101   49  174 1    
   102   50   51 2    
   103   50   52 1    
   104   52   53 1    
   105   52   54 1    
   106   52  175 1    
   107   53  176 1    
   108   53  177 1    
   109   53  178 1    
   110   54   55 am   BACKBONE|DICT|INTERRES
   111   54  179 1    
   112   55   56 2    
   113   55   57 1    
   114   57   58 1    
   115   57   59 1    
   116   57  180 1    
   117   58  181 1    
   118   58  182 1    
   119   58  183 1    
   120   59   60 am   BACKBONE|DICT|INTERRES
   121   59  184 1    
   122   60   61 2    
   123   60   62 1    
   124   62   63 1    
   125   62   64 1    
   126   62  185 1    
   127   63  186 1    
   128   63  187 1    
   129   63  188 1    
   130   64   65 am   BACKBONE|DICT|INTERRES
   131   64  189 1    
   132   65   66 2    
   133   67   68 2    
   134   67   69 am   BACKBONE|DICT|INTERRES
   135   69   70 1    
   136   69  190 1    
   137   70   71 1    
   138   70   72 1    
   139   70  191 1    
   140   71  192 1    
   141   71  193 1    
   142   71  194 1    
   143   72   73 2    
   144   72   74 am   BACKBONE|DICT|INTERRES
   145   74   75 1    
   146   74  195 1    
   147   75   76 1    
   148   75   77 1    
   149   75  196 1    
   150   76  197 1    
   151   76  198 1    
   152   76  199 1    
   153   77   78 2    
   154   77   79 am   BACKBONE|DICT|INTERRES
   155   79   80 1    
   156   79  200 1    
   157   80   81 1    
   158   80   82 1    
   159   80  201 1    
   160   81  202 1    
   161   81  203 1    
   162   81  204 1    
   163   82   83 2    
   164   82   84 am   BACKBONE|DICT|INTERRES
   165   84   85 1    
   166   84  205 1    
   167   85   86 1    
   168   85   87 1    
   169   85  206 1    
   170   86  207 1    
   171   86  208 1    
   172   86  209 1    
   173   87   88 2    
   174   87   89 am   BACKBONE|DICT|INTERRES
   175   89   90 1    
   176   89  210 1    
   177   90   91 1    
   178   90   92 1    
   179   90  211 1    
   180   91  212 1    
   181   91  213 1    
   182   91  214 1    
   183   92   93 2    
   184   92   94 am   BACKBONE|DICT|INTERRES
   185   94   95 1    
   186   94  215 1    
   187   95   96 1    
   188   95   97 1    
   189   95  216 1    
   190   96  217 1    
   191   96  218 1    
   192   96  219 1    
   193   97   98 2    
   194   97   99 am   BACKBONE|DICT|INTERRES
   195   99  100 1    
   196   99  220 1    
   197  100  101 1    
   198  100  102 1    
   199  100  221 1    
   200  101  222 1    
   201  101  223 1    
   202  101  224 1    
   203  102  103 2    
   204  102  104 am   BACKBONE|DICT|INTERRES
   205  104  105 1    
   206  104  225 1    
   207  105  106 1    
   208  105  107 1    
   209  105  226 1    
   210  106  227 1    
   211  106  228 1    
   212  106  229 1    
   213  107  108 2    
   214  107  109 am   BACKBONE|DICT|INTERRES
   215  109  110 1    
   216  109  230 1    
   217  110  111 1    
   218  110  112 1    
   219  110  231 1    
   220  111  232 1    
   221  111  233 1    
   222  111  234 1    
   223  112  113 2    
   224  112  114 am   BACKBONE|DICT|INTERRES
   225  114  115 1    
   226  114  235 1    
   227  115  116 1    
   228  115  117 1    
   229  115  236 1    
   230  116  237 1    
   231  116  238 1    
   232  116  239 1    
   233  117  118 2    
   234  117  119 am   BACKBONE|DICT|INTERRES
   235  119  120 1    
   236  119  240 1    
   237  120  121 1    
   238  120  124 1    
   239  120  241 1    
   240  121  122 am   BACKBONE|DICT|INTERRES
   241  121  123 2    
   242  122  242 1    
   243  122  243 1    
   244  124  125 1    
   245  124  244 1    
   246  124  245 1    
   247  125  126 1    
   248  126  246 1    
   249  126  247 1    
@<TRIPOS>SUBSTRUCTURE
     1 UNK         1 GROUP             0       ****    0 ROOT    
