@<TRIPOS>MOLECULE
3R540
247   249    1
SMALL
USER_CHARGES


@<TRIPOS>ATOM
      1 CA          2.7038  -11.2067  -49.9282 C.3       0 UNK        -0.1800 
      2 C           1.2931  -10.9414  -49.4203 C.2       0 UNK         0.5000 
      3 O           0.5867  -10.1129  -49.9946 O.2       0 UNK        -0.5000 
      4 N           0.8947  -11.6542  -48.3601 N.am      1 UNK        -0.5000 
      5 CA         -0.3723  -11.5652  -47.6295 C.3       1 UNK         0.1400 
      6 C6         -1.6371  -11.5528  -48.5315 C.3       23 UNK        -0.0398 
      7 S7         -3.1220  -12.1969  -47.6864 S.3       23 UNK        -0.2404 
      8 C8         -4.1673  -12.7041  -49.0899 C.3       23 UNK        -0.0205 
      9 C9         -3.8608  -14.1216  -49.5520 C.ar      23 UNK        -0.0193 
     10 C10        -2.9611  -14.3467  -50.5989 C.ar      23 UNK        -0.1150 
     11 C11        -2.6679  -15.6488  -51.0153 C.ar      23 UNK        -0.0193 
     12 C12        -3.2997  -16.7274  -50.3918 C.ar      23 UNK        -0.1150 
     13 C13        -4.2234  -16.5167  -49.3650 C.ar      23 UNK        -0.0193 
     14 C14        -4.4938  -15.2113  -48.9426 C.ar      23 UNK        -0.1150 
     15 C15        -4.9399  -17.7020  -48.7366 C.3       23 UNK        -0.0205 
     16 S16        -4.0203  -18.3657  -47.3200 S.3       23 UNK        -0.2404 
     17 C17        -4.8419  -19.9718  -47.0324 C.3       23 UNK        -0.0398 
     18 CA         -3.8182  -21.1340  -46.9596 C.3       11 UNK         0.1400 
     19 N          -2.8741  -20.9344  -45.8489 N.am      11 UNK        -0.5000 
     20 C          -1.8522  -21.7266  -45.5001 C.2       10 UNK         0.5000 
     21 O          -1.5952  -22.7926  -46.0600 O.2       10 UNK        -0.5000 
     22 CA         -1.0219  -21.2511  -44.2919 C.3       10 UNK         0.1400 
     23 CB         -0.9895  -22.2810  -43.1471 C.3       10 UNK        -0.1800 
     24 N           0.3167  -20.8011  -44.6732 N.am      10 UNK        -0.5000 
     25 C           1.3602  -21.5108  -45.1249 C.2       9 UNK         0.5000 
     26 O           1.3935  -22.7374  -45.2189 O.2       9 UNK        -0.5000 
     27 CA          2.6079  -20.6937  -45.5075 C.3       9 UNK         0.1400 
     28 CB          2.4477  -20.0396  -46.8863 C.3       9 UNK        -0.1800 
     29 N           2.9194  -19.6635  -44.5150 N.am      9 UNK        -0.5000 
     30 C           3.5761  -19.8951  -43.3724 C.2       8 UNK         0.5000 
     31 O           3.9884  -21.0057  -43.0361 O.2       8 UNK        -0.5000 
     32 CA          3.8241  -18.6913  -42.4435 C.3       8 UNK         0.1400 
     33 CB          4.8675  -17.7213  -43.0337 C.3       8 UNK        -0.1800 
     34 N           2.6011  -17.9945  -42.0282 N.am      8 UNK        -0.5000 
     35 C           1.7708  -17.2459  -42.7636 C.2       7 UNK         0.5000 
     36 O           1.9340  -17.0054  -43.9650 O.2       7 UNK        -0.5000 
     37 CA          0.5709  -16.6540  -42.0069 C.3       7 UNK         0.1400 
     38 CB          0.9621  -15.3451  -41.3040 C.3       7 UNK        -0.1800 
     39 N          -0.5041  -16.3771  -42.9486 N.am      7 UNK        -0.5000 
     40 C          -1.6043  -17.1198  -43.1051 C.2       6 UNK         0.5000 
     41 O          -1.9203  -18.0548  -42.3685 O.2       6 UNK        -0.5000 
     42 CA         -2.4805  -16.7861  -44.3257 C.3       6 UNK         0.1400 
     43 CB         -3.4522  -15.6405  -44.0062 C.3       6 UNK        -0.1800 
     44 N          -1.6964  -16.4282  -45.5079 N.am      6 UNK        -0.5000 
     45 C          -0.8228  -17.2285  -46.1336 C.2       5 UNK         0.5000 
     46 O          -0.5947  -18.3857  -45.7894 O.2       5 UNK        -0.5000 
     47 CA         -0.0395  -16.6370  -47.3103 C.3       5 UNK         0.1400 
     48 CB         -0.6552  -15.3425  -47.8699 C.3       5 UNK        -0.1800 
     49 N           1.3117  -16.3925  -46.8309 N.am      5 UNK        -0.5000 
     50 C           2.3983  -16.2310  -47.5925 C.2       4 UNK         0.5000 
     51 O           2.3949  -16.2914  -48.8218 O.2       4 UNK        -0.5000 
     52 CA          3.7046  -15.9264  -46.8285 C.3       4 UNK         0.1400 
     53 CB          4.8441  -15.4288  -47.7422 C.3       4 UNK        -0.1800 
     54 N           3.4892  -15.0017  -45.7078 N.am      4 UNK        -0.5000 
     55 C           3.0003  -13.7561  -45.7826 C.2       3 UNK         0.5000 
     56 O           2.7381  -13.1695  -46.8355 O.2       3 UNK        -0.5000 
     57 CA          2.7625  -13.0388  -44.4430 C.3       3 UNK         0.1400 
     58 CB          3.9155  -12.0720  -44.1364 C.3       3 UNK        -0.1800 
     59 N           1.5031  -12.2945  -44.4527 N.am      3 UNK        -0.5000 
     60 C           0.2885  -12.8558  -44.5116 C.2       2 UNK         0.5000 
     61 O           0.0922  -14.0703  -44.5023 O.2       2 UNK        -0.5000 
     62 CA         -0.9171  -11.9070  -44.6373 C.3       2 UNK         0.1400 
     63 CB         -1.5010  -11.6162  -43.2474 C.3       2 UNK        -0.1800 
     64 N          -0.6009  -10.6350  -45.3008 N.am      2 UNK        -0.5000 
     65 C          -0.3339  -10.4079  -46.5995 C.2       1 UNK         0.5000 
     66 O          -0.0596   -9.2721  -46.9863 O.2       1 UNK        -0.5000 
     67 C          -4.5379  -22.5017  -46.9243 C.2       11 UNK         0.5000 
     68 O          -4.7794  -23.0910  -47.9792 O.2       11 UNK        -0.5000 
     69 N          -4.8438  -22.9933  -45.7154 N.am      12 UNK        -0.5000 
     70 CA         -5.4564  -24.3031  -45.4910 C.3       12 UNK         0.1400 
     71 CB         -6.0740  -24.3350  -44.0851 C.3       12 UNK        -0.1800 
     72 C          -4.4646  -25.4685  -45.6683 C.2       12 UNK         0.5000 
     73 O          -4.8673  -26.5375  -46.1266 O.2       12 UNK        -0.5000 
     74 N          -3.1915  -25.2486  -45.3093 N.am      13 UNK        -0.5000 
     75 CA         -2.1236  -26.2471  -45.4054 C.3       13 UNK         0.1400 
     76 CB         -0.9695  -25.8611  -44.4703 C.3       13 UNK        -0.1800 
     77 C          -1.6094  -26.4159  -46.8444 C.2       13 UNK         0.5000 
     78 O          -1.1541  -27.5039  -47.2007 O.2       13 UNK        -0.5000 
     79 N          -1.7154  -25.3535  -47.6544 N.am      14 UNK        -0.5000 
     80 CA         -1.3691  -25.3008  -49.0754 C.3       14 UNK         0.1400 
     81 CB         -1.2421  -23.8245  -49.4871 C.3       14 UNK        -0.1800 
     82 C          -2.3780  -26.0762  -49.9517 C.2       14 UNK         0.5000 
     83 O          -3.0434  -25.4887  -50.8067 O.2       14 UNK        -0.5000 
     84 N          -2.5127  -27.3825  -49.6777 N.am      15 UNK        -0.5000 
     85 CA         -3.3921  -28.3703  -50.3204 C.3       15 UNK         0.1400 
     86 CB         -2.9362  -28.6116  -51.7744 C.3       15 UNK        -0.1800 
     87 C          -4.8990  -28.0340  -50.2395 C.2       15 UNK         0.5000 
     88 O          -5.6876  -28.5920  -51.0038 O.2       15 UNK        -0.5000 
     89 N          -5.2628  -27.0985  -49.3479 N.am      16 UNK        -0.5000 
     90 CA         -6.5547  -26.4109  -49.2447 C.3       16 UNK         0.1400 
     91 CB         -7.6589  -27.3806  -48.7774 C.3       16 UNK        -0.1800 
     92 C          -6.9409  -25.6302  -50.5245 C.2       16 UNK         0.5000 
     93 O          -8.1190  -25.3314  -50.7259 O.2       16 UNK        -0.5000 
     94 N          -5.9472  -25.3039  -51.3649 N.am      17 UNK        -0.5000 
     95 CA         -6.1154  -24.5981  -52.6358 C.3       17 UNK         0.1400 
     96 CB         -5.0195  -25.0653  -53.6064 C.3       17 UNK        -0.1800 
     97 C          -6.0819  -23.0681  -52.4702 C.2       17 UNK         0.5000 
     98 O          -6.3819  -22.3544  -53.4283 O.2       17 UNK        -0.5000 
     99 N          -5.7196  -22.5955  -51.2686 N.am      18 UNK        -0.5000 
    100 CA        -5.6138  -21.2045  -50.8329 C.3       18 UNK         0.1400 
    101 CB        -6.9707  -20.4732  -50.9135 C.3       18 UNK        -0.1800 
    102 C         -4.4781  -20.4465  -51.5361 C.2       18 UNK         0.5000 
    103 O         -3.4283  -20.2416  -50.9283 O.2       18 UNK        -0.5000 
    104 N         -4.6946  -20.0630  -52.8013 N.am      19 UNK        -0.5000 
    105 CA        -3.7919  -19.2514  -53.6258 C.3       19 UNK         0.1400 
    106 CB        -4.4567  -18.9921  -54.9852 C.3       19 UNK        -0.1800 
    107 C         -2.3872  -19.8554  -53.8195 C.2       19 UNK         0.5000 
    108 O         -1.4271  -19.1108  -54.0210 O.2       19 UNK        -0.5000 
    109 N         -2.2883  -21.1871  -53.7051 N.am      20 UNK        -0.5000 
    110 CA        -1.0473  -21.9610  -53.7291 C.3       20 UNK         0.1400 
    111 CB        -1.3959  -23.4550  -53.6544 C.3       20 UNK        -0.1800 
    112 C         -0.0483  -21.5871  -52.6149 C.2       20 UNK         0.5000 
    113 O          1.1516  -21.7959  -52.7988 O.2       20 UNK        -0.5000 
    114 N         -0.5364  -21.0153  -51.5015 N.am      21 UNK        -0.5000 
    115 CA         0.2784  -20.5485  -50.3756 C.3       21 UNK         0.1400 
    116 CB        -0.6451  -20.0790  -49.2431 C.3       21 UNK        -0.1800 
    117 C          1.2813  -19.4419  -50.7557 C.2       21 UNK         0.5000 
    118 O          2.3619  -19.3845  -50.1701 O.2       21 UNK        -0.5000 
    119 N          0.9273  -18.6263  -51.7572 N.am      22 UNK        -0.5000 
    120 CA         1.8021  -17.5997  -52.3448 C.3       22 UNK         0.1400 
    121 C          2.8028  -18.1543  -53.4041 C.2       22 UNK         0.5000 
    122 N          2.8149  -19.4451  -53.7199 N.am      22 UNK        -0.7600 
    123 O          3.6013  -17.3965  -53.9486 O.2       22 UNK        -0.5000 
    124 C124        0.9907  -16.4024  -52.9053 C.3       23 UNK        -0.0398 
    125 S125        0.0280  -15.5545  -51.6070 S.3       23 UNK        -0.2404 
    126 C126       -1.6751  -15.8950  -52.1401 C.3       23 UNK        -0.0205 
    127 H127        2.6743  -11.5194  -50.9720 H         1 UNK         0.0600 
    128 H128        3.2012  -11.9897  -49.3547 H         1 UNK         0.0600 
    129 H129        3.3048  -10.3001  -49.8584 H         1 UNK         0.0600 
    130 H130        1.5761  -12.2765  -47.9260 H         1 UNK         0.3000 
    131 H131       -0.3835  -12.5041  -47.0959 H         1 UNK         0.0600 
    132 H132       -1.4581  -12.1770  -49.4068 H         1 UNK         0.0800 
    133 H133       -1.8458  -10.5513  -48.9112 H         1 UNK         0.0800 
    134 H134       -4.0532  -11.9974  -49.9134 H         1 UNK         0.0800 
    135 H135       -5.2127  -12.6421  -48.7841 H         1 UNK         0.0800 
    136 H136       -2.4749  -13.5120  -51.0833 H         1 UNK         0.1150 
    137 H137       -3.0747  -17.7348  -50.7081 H         1 UNK         0.1150 
    138 H138       -5.1985  -15.0432  -48.1403 H         1 UNK         0.1150 
    139 H139       -5.0606  -18.4831  -49.4836 H         1 UNK         0.0800 
    140 H140       -5.9434  -17.4160  -48.4185 H         1 UNK         0.0800 
    141 H141       -5.5786  -20.1441  -47.8169 H         1 UNK         0.0800 
    142 H142       -5.4092  -19.9026  -46.1027 H         1 UNK         0.0800 
    143 H143       -3.2381  -21.1240  -47.8820 H         1 UNK         0.0600 
    144 H144       -2.9765  -20.0567  -45.3612 H         1 UNK         0.3000 
    145 H145       -1.5132  -20.3637  -43.8903 H         1 UNK         0.0600 
    146 H146       -0.5239  -21.8575  -42.2573 H         1 UNK         0.0600 
    147 H147       -1.9982  -22.5897  -42.8707 H         1 UNK         0.0600 
    148 H148       -0.4352  -23.1786  -43.4122 H         1 UNK         0.0600 
    149 H149        0.3807  -19.7931  -44.7695 H         1 UNK         0.3000 
    150 H150        3.4491  -21.3876  -45.5716 H         1 UNK         0.0600 
    151 H151        1.6714  -19.2765  -46.8837 H         1 UNK         0.0600 
    152 H152        2.1814  -20.7801  -47.6414 H         1 UNK         0.0600 
    153 H153        3.3750  -19.5667  -47.2096 H         1 UNK         0.0600 
    154 H154        2.5649  -18.7263  -44.6738 H         1 UNK         0.3000 
    155 H155        4.2514  -19.0934  -41.5234 H         1 UNK         0.0600 
    156 H156        4.5499  -17.3014  -43.9870 H         1 UNK         0.0600 
    157 H157        5.8142  -18.2338  -43.2085 H         1 UNK         0.0600 
    158 H158        5.0671  -16.8945  -42.3521 H         1 UNK         0.0600 
    159 H159        2.3582  -18.1350  -41.0573 H         1 UNK         0.3000 
    160 H160        0.2440  -17.3715  -41.2515 H         1 UNK         0.0600 
    161 H161        1.2874  -14.5857  -42.0135 H         1 UNK         0.0600 
    162 H162        1.7757  -15.5049  -40.5955 H         1 UNK         0.0600 
    163 H163        0.1204  -14.9356  -40.7452 H         1 UNK         0.0600 
    164 H164       -0.3059  -15.6492  -43.6325 H         1 UNK         0.3000 
    165 H165       -3.0642  -17.6762  -44.5651 H         1 UNK         0.0600 
    166 H166       -2.9221  -14.7119  -43.7905 H         1 UNK         0.0600 
    167 H167       -4.1287  -15.4551  -44.8410 H         1 UNK         0.0600 
    168 H168       -4.0660  -15.8795  -43.1369 H         1 UNK         0.0600 
    169 H169       -1.7904  -15.4796  -45.8370 H         1 UNK         0.3000 
    170 H170       -0.0091  -17.3843  -48.1046 H         1 UNK         0.0600 
    171 H171       -1.6580  -15.5285  -48.2492 H         1 UNK         0.0600 
    172 H172       -0.7305  -14.5797  -47.1018 H         1 UNK         0.0600 
    173 H173       -0.0663  -14.9330  -48.6898 H         1 UNK         0.0600 
    174 H174        1.4190  -16.3726  -45.8203 H         1 UNK         0.3000 
    175 H175        4.0242  -16.8733  -46.3911 H         1 UNK         0.0600 
    176 H176        4.5730  -14.5126  -48.2676 H         1 UNK         0.0600 
    177 H177        5.7509  -15.2327  -47.1703 H         1 UNK         0.0600 
    178 H178        5.0916  -16.1759  -48.4971 H         1 UNK         0.0600 
    179 H179        3.6119  -15.4082  -44.7908 H         1 UNK         0.3000 
    180 H180        2.7159  -13.7840  -43.6474 H         1 UNK         0.0600 
    181 H181        3.9996  -11.2928  -44.8952 H         1 UNK         0.0600 
    182 H182        4.8691  -12.6004  -44.1016 H         1 UNK         0.0600 
    183 H183        3.7778  -11.5871  -43.1698 H         1 UNK         0.0600 
    184 H184        1.5725  -11.2889  -44.5024 H         1 UNK         0.3000 
    185 H185       -1.6877  -12.4250  -45.2081 H         1 UNK         0.0600 
    186 H186       -1.7618  -12.5414  -42.7311 H         1 UNK         0.0600 
    187 H187       -0.7933  -11.0773  -42.6161 H         1 UNK         0.0600 
    188 H188       -2.4105  -11.0194  -43.3190 H         1 UNK         0.0600 
    189 H189       -0.5749   -9.8368  -44.6835 H         1 UNK         0.3000 
    190 H190       -4.6166  -22.4478  -44.8971 H         1 UNK         0.3000 
    191 H191       -6.2620  -24.4391  -46.2158 H         1 UNK         0.0600 
    192 H192       -6.5602  -25.2928  -43.8943 H         1 UNK         0.0600 
    193 H193       -6.8311  -23.5592  -43.9693 H         1 UNK         0.0600 
    194 H194       -5.3211  -24.1889  -43.3095 H         1 UNK         0.0600 
    195 H195       -2.9132  -24.3198  -45.0257 H         1 UNK         0.3000 
    196 H196       -2.5187  -27.2100  -45.0745 H         1 UNK         0.0600 
    197 H197       -0.4519  -24.9692  -44.8239 H         1 UNK         0.0600 
    198 H198       -1.3211  -25.6737  -43.4557 H         1 UNK         0.0600 
    199 H199       -0.2310  -26.6618  -44.4173 H         1 UNK         0.0600 
    200 H200       -2.0368  -24.4848  -47.2422 H         1 UNK         0.3000 
    201 H201       -0.3929  -25.7707  -49.2100 H         1 UNK         0.0600 
    202 H202       -2.1921  -23.2954  -49.3983 H         1 UNK         0.0600 
    203 H203       -0.9091  -23.7379  -50.5208 H         1 UNK         0.0600 
    204 H204       -0.5115  -23.3054  -48.8663 H         1 UNK         0.0600 
    205 H205       -1.9596  -27.7338  -48.8994 H         1 UNK         0.3000 
    206 H206       -3.2595  -29.3019  -49.7687 H         1 UNK         0.0600 
    207 H207       -1.8751  -28.8568  -51.8196 H         1 UNK         0.0600 
    208 H208       -3.4780  -29.4440  -52.2249 H         1 UNK         0.0600 
    209 H209       -3.1048  -27.7348  -52.4008 H         1 UNK         0.0600 
    210 H210       -4.5372  -26.7322  -48.7478 H         1 UNK         0.3000 
    211 H211       -6.4292  -25.6570  -48.4666 H         1 UNK         0.0600 
    212 H212       -8.5818  -26.8448  -48.5528 H         1 UNK         0.0600 
    213 H213       -7.3614  -27.9047  -47.8690 H         1 UNK         0.0600 
    214 H214       -7.8916  -28.1275  -49.5365 H         1 UNK         0.0600 
    215 H215       -4.9923  -25.5492  -51.1177 H         1 UNK         0.3000 
    216 H216       -7.0832  -24.8584  -53.0692 H         1 UNK         0.0600 
    217 H217       -4.0242  -24.8282  -53.2325 H         1 UNK         0.0600 
    218 H218       -5.1270  -24.5886  -54.5815 H         1 UNK         0.0600 
    219 H219       -5.0676  -26.1430  -53.7641 H         1 UNK         0.0600 
    220 H220       -5.4599  -23.2782  -50.5691 H         1 UNK         0.3000 
    221 H221       -5.3380  -21.2511  -49.7818 H         1 UNK         0.0600 
    222 H222       -7.7198  -20.9786  -50.3040 H         1 UNK         0.0600 
    223 H223       -7.3574  -20.4171  -51.9309 H         1 UNK         0.0600 
    224 H224       -6.8920  -19.4510  -50.5444 H         1 UNK         0.0600 
    225 H225       -5.5508  -20.3797  -53.2410 H         1 UNK         0.3000 
    226 H226       -3.6659  -18.2926  -53.1206 H         1 UNK         0.0600 
    227 H227       -4.6477  -19.9222  -55.5221 H         1 UNK         0.0600 
    228 H228       -5.4070  -18.4711  -54.8667 H         1 UNK         0.0600 
    229 H229       -3.8233  -18.3698  -55.6189 H         1 UNK         0.0600 
    230 H230       -3.1373  -21.7032  -53.5294 H         1 UNK         0.3000 
    231 H231       -0.5557  -21.7681  -54.6846 H         1 UNK         0.0600 
    232 H232       -1.9313  -23.6956  -52.7354 H         1 UNK         0.0600 
    233 H233       -0.4957  -24.0706  -53.6800 H         1 UNK         0.0600 
    234 H234       -2.0189  -23.7582  -54.4960 H         1 UNK         0.0600 
    235 H235       -1.5359  -20.8546  -51.4268 H         1 UNK         0.3000 
    236 H236        0.8552  -21.4012  -50.0119 H         1 UNK         0.0600 
    237 H237       -1.3063  -20.8832  -48.9297 H         1 UNK         0.0600 
    238 H238       -0.0755  -19.7763  -48.3660 H         1 UNK         0.0600 
    239 H239       -1.2617  -19.2314  -49.5451 H         1 UNK         0.0600 
    240 H240        0.0416  -18.7755  -52.2215 H         1 UNK         0.3000 
    241 H241        2.4313  -17.2035  -51.5452 H         1 UNK         0.0600 
    242 H242        3.4771  -19.7754  -54.4037 H         1 UNK         0.3800 
    243 H243        2.1908  -20.1067  -53.2733 H         1 UNK         0.3800 
    244 H244        0.3336  -16.7299  -53.7127 H         1 UNK         0.0800 
    245 H245        1.6581  -15.6577  -53.3420 H         1 UNK         0.0800 
    246 H246       -1.7427  -16.9282  -52.4794 H         1 UNK         0.0800 
    247 H247       -1.9221  -15.2672  -52.9973 H         1 UNK         0.0800 
@<TRIPOS>BOND
     1    1    2 1    
     2    1  127 1    
     3    1  128 1    
     4    1  129 1    
     5    2    3 2    
     6    2    4 am   BACKBONE|DICT|INTERRES
     7    4    5 1    
     8    4  130 1    
     9    5    6 1    
    10    5   65 1    
    11    5  131 1    
    12    6    7 1    
    13    6  132 1    
    14    6  133 1    
    15    7    8 1    
    16    8    9 1    
    17    8  134 1    
    18    8  135 1    
    19    9   10 ar   
    20    9   14 ar   
    21   10   11 ar   
    22   10  136 1    
    23   11   12 ar   
    24   11  126 1    
    25   12   13 ar   
    26   12  137 1    
    27   13   14 ar   
    28   13   15 1    
    29   14  138 1    
    30   15   16 1    
    31   15  139 1    
    32   15  140 1    
    33   16   17 1    
    34   17   18 1    
    35   17  141 1    
    36   17  142 1    
    37   18   19 1    
    38   18   67 1    
    39   18  143 1    
    40   19   20 am   BACKBONE|DICT|INTERRES
    41   19  144 1    
    42   20   21 2    
    43   20   22 1    
    44   22   23 1    
    45   22   24 1    
    46   22  145 1    
    47   23  146 1    
    48   23  147 1    
    49   23  148 1    
    50   24   25 am   BACKBONE|DICT|INTERRES
    51   24  149 1    
    52   25   26 2    
    53   25   27 1    
    54   27   28 1    
    55   27   29 1    
    56   27  150 1    
    57   28  151 1    
    58   28  152 1    
    59   28  153 1    
    60   29   30 am   BACKBONE|DICT|INTERRES
    61   29  154 1    
    62   30   31 2    
    63   30   32 1    
    64   32   33 1    
    65   32   34 1    
    66   32  155 1    
    67   33  156 1    
    68   33  157 1    
    69   33  158 1    
    70   34   35 am   BACKBONE|DICT|INTERRES
    71   34  159 1    
    72   35   36 2    
    73   35   37 1    
    74   37   38 1    
    75   37   39 1    
    76   37  160 1    
    77   38  161 1    
    78   38  162 1    
    79   38  163 1    
    80   39   40 am   BACKBONE|DICT|INTERRES
    81   39  164 1    
    82   40   41 2    
    83   40   42 1    
    84   42   43 1    
    85   42   44 1    
    86   42  165 1    
    87   43  166 1    
    88   43  167 1    
    89   43  168 1    
    90   44   45 am   BACKBONE|DICT|INTERRES
    91   44  169 1    
    92   45   46 2    
    93   45   47 1    
    94   47   48 1    
    95   47   49 1    
    96   47  170 1    
    97   48  171 1    
    98   48  172 1    
    99   48  173 1    
   100   49   50 am   BACKBONE|DICT|INTERRES
   101   49  174 1    
   102   50   51 2    
   103   50   52 1    
   104   52   53 1    
   105   52   54 1    
   106   52  175 1    
   107   53  176 1    
   108   53  177 1    
   109   53  178 1    
   110   54   55 am   BACKBONE|DICT|INTERRES
   111   54  179 1    
   112   55   56 2    
   113   55   57 1    
   114   57   58 1    
   115   57   59 1    
   116   57  180 1    
   117   58  181 1    
   118   58  182 1    
   119   58  183 1    
   120   59   60 am   BACKBONE|DICT|INTERRES
   121   59  184 1    
   122   60   61 2    
   123   60   62 1    
   124   62   63 1    
   125   62   64 1    
   126   62  185 1    
   127   63  186 1    
   128   63  187 1    
   129   63  188 1    
   130   64   65 am   BACKBONE|DICT|INTERRES
   131   64  189 1    
   132   65   66 2    
   133   67   68 2    
   134   67   69 am   BACKBONE|DICT|INTERRES
   135   69   70 1    
   136   69  190 1    
   137   70   71 1    
   138   70   72 1    
   139   70  191 1    
   140   71  192 1    
   141   71  193 1    
   142   71  194 1    
   143   72   73 2    
   144   72   74 am   BACKBONE|DICT|INTERRES
   145   74   75 1    
   146   74  195 1    
   147   75   76 1    
   148   75   77 1    
   149   75  196 1    
   150   76  197 1    
   151   76  198 1    
   152   76  199 1    
   153   77   78 2    
   154   77   79 am   BACKBONE|DICT|INTERRES
   155   79   80 1    
   156   79  200 1    
   157   80   81 1    
   158   80   82 1    
   159   80  201 1    
   160   81  202 1    
   161   81  203 1    
   162   81  204 1    
   163   82   83 2    
   164   82   84 am   BACKBONE|DICT|INTERRES
   165   84   85 1    
   166   84  205 1    
   167   85   86 1    
   168   85   87 1    
   169   85  206 1    
   170   86  207 1    
   171   86  208 1    
   172   86  209 1    
   173   87   88 2    
   174   87   89 am   BACKBONE|DICT|INTERRES
   175   89   90 1    
   176   89  210 1    
   177   90   91 1    
   178   90   92 1    
   179   90  211 1    
   180   91  212 1    
   181   91  213 1    
   182   91  214 1    
   183   92   93 2    
   184   92   94 am   BACKBONE|DICT|INTERRES
   185   94   95 1    
   186   94  215 1    
   187   95   96 1    
   188   95   97 1    
   189   95  216 1    
   190   96  217 1    
   191   96  218 1    
   192   96  219 1    
   193   97   98 2    
   194   97   99 am   BACKBONE|DICT|INTERRES
   195   99  100 1    
   196   99  220 1    
   197  100  101 1    
   198  100  102 1    
   199  100  221 1    
   200  101  222 1    
   201  101  223 1    
   202  101  224 1    
   203  102  103 2    
   204  102  104 am   BACKBONE|DICT|INTERRES
   205  104  105 1    
   206  104  225 1    
   207  105  106 1    
   208  105  107 1    
   209  105  226 1    
   210  106  227 1    
   211  106  228 1    
   212  106  229 1    
   213  107  108 2    
   214  107  109 am   BACKBONE|DICT|INTERRES
   215  109  110 1    
   216  109  230 1    
   217  110  111 1    
   218  110  112 1    
   219  110  231 1    
   220  111  232 1    
   221  111  233 1    
   222  111  234 1    
   223  112  113 2    
   224  112  114 am   BACKBONE|DICT|INTERRES
   225  114  115 1    
   226  114  235 1    
   227  115  116 1    
   228  115  117 1    
   229  115  236 1    
   230  116  237 1    
   231  116  238 1    
   232  116  239 1    
   233  117  118 2    
   234  117  119 am   BACKBONE|DICT|INTERRES
   235  119  120 1    
   236  119  240 1    
   237  120  121 1    
   238  120  124 1    
   239  120  241 1    
   240  121  122 am   BACKBONE|DICT|INTERRES
   241  121  123 2    
   242  122  242 1    
   243  122  243 1    
   244  124  125 1    
   245  124  244 1    
   246  124  245 1    
   247  125  126 1    
   248  126  246 1    
   249  126  247 1    
@<TRIPOS>SUBSTRUCTURE
     1 UNK         1 GROUP             0       ****    0 ROOT    
