@<TRIPOS>MOLECULE
3R540
247   249    1
SMALL
USER_CHARGES


@<TRIPOS>ATOM
      1 CA          1.4119  -10.9454  -50.8238 C.3       0 UNK        -0.1800 
      2 C           0.9434  -12.1481  -50.0176 C.2       0 UNK         0.5000 
      3 O           1.4206  -12.3645  -48.9030 O.2       0 UNK        -0.5000 
      4 N           0.0013  -12.9259  -50.5663 N.am      1 UNK        -0.5000 
      5 CA         -0.5863  -14.1242  -49.9530 C.3       1 UNK         0.1400 
      6 C6         -1.0756  -15.1239  -51.0379 C.3       23 UNK        -0.0398 
      7 S7         -0.9306  -16.8681  -50.5140 S.3       23 UNK        -0.2404 
      8 C8          0.3795  -17.4528  -51.6351 C.3       23 UNK        -0.0205 
      9 C9          0.5287  -18.9640  -51.5874 C.ar      23 UNK        -0.0193 
     10 C10        -0.1932  -19.7666  -52.4746 C.ar      23 UNK        -0.1150 
     11 C11        -0.0550  -21.1569  -52.4494 C.ar      23 UNK        -0.0193 
     12 C12         0.8093  -21.7438  -51.5206 C.ar      23 UNK        -0.1150 
     13 C13         1.5464  -20.9532  -50.6322 C.ar      23 UNK        -0.0193 
     14 C14         1.4054  -19.5609  -50.6778 C.ar      23 UNK        -0.1150 
     15 C15         2.4983  -21.6206  -49.6410 C.3       23 UNK        -0.0205 
     16 S16         2.4289  -20.9303  -47.9513 S.3       23 UNK        -0.2404 
     17 C17         0.6625  -21.1204  -47.5509 C.3       23 UNK        -0.0398 
     18 CA          0.3606  -22.3734  -46.7023 C.3       11 UNK         0.1400 
     19 N           1.0337  -22.3492  -45.4001 N.am      11 UNK        -0.5000 
     20 C           0.9858  -23.3064  -44.4638 C.2       10 UNK         0.5000 
     21 O           0.3899  -24.3726  -44.6245 O.2       10 UNK        -0.5000 
     22 CA          1.6296  -22.9940  -43.0965 C.3       10 UNK         0.1400 
     23 CB          2.4053  -24.1971  -42.5237 C.3       10 UNK        -0.1800 
     24 N           2.4321  -21.7645  -43.0805 N.am      10 UNK        -0.5000 
     25 C           3.6113  -21.5315  -43.6760 C.2       9 UNK         0.5000 
     26 O           4.2437  -22.3806  -44.3039 O.2       9 UNK        -0.5000 
     27 CA          4.1679  -20.0954  -43.5895 C.3       9 UNK         0.1400 
     28 CB          4.1032  -19.4174  -44.9670 C.3       9 UNK        -0.1800 
     29 N           3.4647  -19.2499  -42.6215 N.am      9 UNK        -0.5000 
     30 C           3.6344  -19.2990  -41.2939 C.2       8 UNK         0.5000 
     31 O           4.4271  -20.0569  -40.7336 O.2       8 UNK        -0.5000 
     32 CA          2.7514  -18.3605  -40.4495 C.3       8 UNK         0.1400 
     33 CB          3.3401  -16.9418  -40.4170 C.3       8 UNK        -0.1800 
     34 N           1.3628  -18.3020  -40.9132 N.am      8 UNK        -0.5000 
     35 C           0.5043  -19.3321  -40.8827 C.2       7 UNK         0.5000 
     36 O           0.7936  -20.4532  -40.4647 O.2       7 UNK        -0.5000 
     37 CA         -0.9040  -19.0797  -41.4495 C.3       7 UNK         0.1400 
     38 CB         -1.7739  -18.3082  -40.4462 C.3       7 UNK        -0.1800 
     39 N          -0.8607  -18.3648  -42.7237 N.am      7 UNK        -0.5000 
     40 C          -0.3822  -18.8894  -43.8591 C.2       6 UNK         0.5000 
     41 O          -0.0296  -20.0625  -43.9692 O.2       6 UNK        -0.5000 
     42 CA         -0.2547  -17.9561  -45.0735 C.3       6 UNK         0.1400 
     43 CB         -1.5616  -17.9371  -45.8764 C.3       6 UNK        -0.1800 
     44 N           0.1229  -16.5927  -44.7132 N.am      6 UNK        -0.5000 
     45 C           1.2877  -16.2457  -44.1505 C.2       5 UNK         0.5000 
     46 O           2.1856  -17.0433  -43.8867 O.2       5 UNK        -0.5000 
     47 CA          1.4505  -14.7670  -43.7653 C.3       5 UNK         0.1400 
     48 CB          1.7962  -13.9095  -44.9929 C.3       5 UNK        -0.1800 
     49 N           0.2495  -14.2440  -43.1151 N.am      5 UNK        -0.5000 
     50 C          -0.1844  -14.6290  -41.9065 C.2       4 UNK         0.5000 
     51 O           0.4031  -15.4442  -41.1947 O.2       4 UNK        -0.5000 
     52 CA         -1.5222  -14.0304  -41.4357 C.3       4 UNK         0.1400 
     53 CB         -1.3104  -12.6337  -40.8328 C.3       4 UNK        -0.1800 
     54 N          -2.5097  -13.9509  -42.5139 N.am      4 UNK        -0.5000 
     55 C          -3.0772  -15.0177  -43.0942 C.2       3 UNK         0.5000 
     56 O          -2.8432  -16.1797  -42.7649 O.2       3 UNK        -0.5000 
     57 CA         -4.0305  -14.7404  -44.2717 C.3       3 UNK         0.1400 
     58 CB         -5.4374  -14.3970  -43.7598 C.3       3 UNK        -0.1800 
     59 N          -3.5651  -13.6792  -45.1713 N.am      3 UNK        -0.5000 
     60 C          -2.4129  -13.7167  -45.8530 C.2       2 UNK         0.5000 
     61 O          -1.5794  -14.6157  -45.7328 O.2       2 UNK        -0.5000 
     62 CA         -2.1177  -12.5330  -46.7891 C.3       2 UNK         0.1400 
     63 CB         -1.3954  -11.4144  -46.0225 C.3       2 UNK        -0.1800 
     64 N          -1.2811  -12.9470  -47.9146 N.am      2 UNK        -0.5000 
     65 C          -1.6755  -13.7361  -48.9222 C.2       1 UNK         0.5000 
     66 O          -2.8419  -14.1052  -49.0686 O.2       1 UNK        -0.5000 
     67 C          -1.1648  -22.5231  -46.5680 C.2       11 UNK         0.5000 
     68 O          -1.7765  -23.1648  -47.4159 O.2       11 UNK        -0.5000 
     69 N          -1.7423  -21.9605  -45.4970 N.am      12 UNK        -0.5000 
     70 CA         -3.1640  -22.0683  -45.1646 C.3       12 UNK         0.1400 
     71 CB         -3.4739  -21.1043  -44.0084 C.3       12 UNK        -0.1800 
     72 C          -3.6176  -23.5026  -44.8138 C.2       12 UNK         0.5000 
     73 O          -4.8150  -23.7828  -44.8803 O.2       12 UNK        -0.5000 
     74 N          -2.6696  -24.3739  -44.4404 N.am      13 UNK        -0.5000 
     75 CA         -2.8978  -25.7935  -44.1799 C.3       13 UNK         0.1400 
     76 CB         -2.1674  -26.1925  -42.8873 C.3       13 UNK        -0.1800 
     77 C          -2.4189  -26.6562  -45.3600 C.2       13 UNK         0.5000 
     78 O          -3.1130  -27.5996  -45.7406 O.2       13 UNK        -0.5000 
     79 N          -1.2384  -26.3333  -45.9075 N.am      14 UNK        -0.5000 
     80 CA         -0.5806  -27.0883  -46.9758 C.3       14 UNK         0.1400 
     81 CB          0.8984  -26.6753  -47.0351 C.3       14 UNK        -0.1800 
     82 C          -1.2358  -26.9279  -48.3612 C.2       14 UNK         0.5000 
     83 O          -1.1090  -27.8290  -49.1918 O.2       14 UNK        -0.5000 
     84 N          -1.9036  -25.7948  -48.5964 N.am      15 UNK        -0.5000 
     85 CA         -2.5600  -25.4341  -49.8483 C.3       15 UNK         0.1400 
     86 CB         -1.5680  -24.6414  -50.7227 C.3       15 UNK        -0.1800 
     87 C          -3.8480  -24.6458  -49.5454 C.2       15 UNK         0.5000 
     88 O          -4.3202  -24.6462  -48.4057 O.2       15 UNK        -0.5000 
     89 N          -4.4163  -24.0051  -50.5752 N.am      16 UNK        -0.5000 
     90 CA         -5.5872  -23.1371  -50.4440 C.3       16 UNK         0.1400 
     91 CB         -6.2725  -22.9881  -51.8128 C.3       16 UNK        -0.1800 
     92 C          -5.2176  -21.7575  -49.8701 C.2       16 UNK         0.5000 
     93 O          -5.9187  -21.2594  -48.9893 O.2       16 UNK        -0.5000 
     94 N          -4.1357  -21.1675  -50.4056 N.am      17 UNK        -0.5000 
     95 CA         -3.6081  -19.8264  -50.1165 C.3       17 UNK         0.1400 
     96 CB         -2.9902  -19.7849  -48.7071 C.3       17 UNK        -0.1800 
     97 C          -4.6361  -18.6969  -50.3595 C.2       17 UNK         0.5000 
     98 O          -4.6363  -17.6890  -49.6520 O.2       17 UNK        -0.5000 
     99 N          -5.5170  -18.9016  -51.3489 N.am      18 UNK        -0.5000 
    100 CA        -6.6219  -18.0013  -51.6849 C.3       18 UNK         0.1400 
    101 CB        -7.6895  -18.8048  -52.4443 C.3       18 UNK        -0.1800 
    102 C         -6.1827  -16.7773  -52.5106 C.2       18 UNK         0.5000 
    103 O         -6.8985  -15.7753  -52.5387 O.2       18 UNK        -0.5000 
    104 N         -5.0288  -16.8843  -53.1740 N.am      19 UNK        -0.5000 
    105 CA        -4.4136  -15.8820  -54.0335 C.3       19 UNK         0.1400 
    106 CB        -5.1615  -15.8102  -55.3810 C.3       19 UNK        -0.1800 
    107 C         -2.9349  -16.2602  -54.2143 C.2       19 UNK         0.5000 
    108 O         -2.4821  -17.2501  -53.6347 O.2       19 UNK        -0.5000 
    109 N         -2.2095  -15.4790  -55.0272 N.am      20 UNK        -0.5000 
    110 CA        -0.7905  -15.6716  -55.3549 C.3       20 UNK         0.1400 
    111 CB        -0.3266  -14.5139  -56.2519 C.3       20 UNK        -0.1800 
    112 C         -0.4586  -17.0291  -56.0127 C.2       20 UNK         0.5000 
    113 O          0.6770  -17.4919  -55.9004 O.2       20 UNK        -0.5000 
    114 N         -1.4530  -17.6438  -56.6615 N.am      21 UNK        -0.5000 
    115 CA        -1.4354  -19.0204  -57.1366 C.3       21 UNK         0.1400 
    116 CB        -1.3721  -19.0328  -58.6718 C.3       21 UNK        -0.1800 
    117 C         -2.7155  -19.6996  -56.6307 C.2       21 UNK         0.5000 
    118 O         -3.7706  -19.0606  -56.5951 O.2       21 UNK        -0.5000 
    119 N         -2.5982  -20.9738  -56.2521 N.am      22 UNK        -0.5000 
    120 CA        -3.7024  -21.8044  -55.7528 C.3       22 UNK         0.1400 
    121 C         -4.4213  -22.5385  -56.9157 C.2       22 UNK         0.5000 
    122 N         -5.7311  -22.7237  -56.8249 N.am      22 UNK        -0.7600 
    123 O         -3.7991  -22.9761  -57.8815 O.2       22 UNK        -0.5000 
    124 C124       -3.2065  -22.8154  -54.6879 C.3       23 UNK        -0.0398 
    125 S125       -2.6017  -21.9799  -53.1820 S.3       23 UNK        -0.2404 
    126 C126       -0.8038  -22.0138  -53.4586 C.3       23 UNK        -0.0205 
    127 H127        1.2160  -10.0256  -50.2726 H         1 UNK         0.0600 
    128 H128        0.9051  -10.8798  -51.7868 H         1 UNK         0.0600 
    129 H129        2.4842  -11.0122  -51.0076 H         1 UNK         0.0600 
    130 H130       -0.3797  -12.6663  -51.4650 H         1 UNK         0.3000 
    131 H131        0.2081  -14.6183  -49.3886 H         1 UNK         0.0600 
    132 H132       -2.1036  -14.9290  -51.3473 H         1 UNK         0.0800 
    133 H133       -0.4857  -14.9987  -51.9463 H         1 UNK         0.0800 
    134 H134        1.3228  -16.9701  -51.3753 H         1 UNK         0.0800 
    135 H135        0.1477  -17.1515  -52.6568 H         1 UNK         0.0800 
    136 H136       -0.8613  -19.3089  -53.1912 H         1 UNK         0.1150 
    137 H137        0.9206  -22.8188  -51.5007 H         1 UNK         0.1150 
    138 H138        1.9731  -18.9396  -49.9997 H         1 UNK         0.1150 
    139 H139        2.2954  -22.6910  -49.5789 H         1 UNK         0.0800 
    140 H140        3.5170  -21.5214  -50.0173 H         1 UNK         0.0800 
    141 H141        0.0846  -21.1415  -48.4754 H         1 UNK         0.0800 
    142 H142        0.3400  -20.2205  -47.0286 H         1 UNK         0.0800 
    143 H143        0.7253  -23.2488  -47.2424 H         1 UNK         0.0600 
    144 H144        1.4861  -21.4818  -45.1507 H         1 UNK         0.3000 
    145 H145        0.7949  -22.7983  -42.4219 H         1 UNK         0.0600 
    146 H146        2.8496  -23.9564  -41.5580 H         1 UNK         0.0600 
    147 H147        1.7428  -25.0500  -42.3718 H         1 UNK         0.0600 
    148 H148        3.2029  -24.5238  -43.1910 H         1 UNK         0.0600 
    149 H149        1.9961  -20.9833  -42.6083 H         1 UNK         0.3000 
    150 H150        5.2165  -20.1681  -43.2941 H         1 UNK         0.0600 
    151 H151        4.6441  -19.9952  -45.7176 H         1 UNK         0.0600 
    152 H152        4.5500  -18.4235  -44.9389 H         1 UNK         0.0600 
    153 H153        3.0742  -19.3108  -45.3128 H         1 UNK         0.0600 
    154 H154        2.8412  -18.5439  -43.0085 H         1 UNK         0.3000 
    155 H155        2.7440  -18.7457  -39.4277 H         1 UNK         0.0600 
    156 H156        4.3696  -16.9532  -40.0571 H         1 UNK         0.0600 
    157 H157        2.7696  -16.2943  -39.7509 H         1 UNK         0.0600 
    158 H158        3.3421  -16.4833  -41.4063 H         1 UNK         0.0600 
    159 H159        1.0359  -17.4018  -41.2489 H         1 UNK         0.3000 
    160 H160       -1.3719  -20.0512  -41.6208 H         1 UNK         0.0600 
    161 H161       -1.3858  -17.3068  -40.2591 H         1 UNK         0.0600 
    162 H162       -1.8203  -18.8279  -39.4884 H         1 UNK         0.0600 
    163 H163       -2.7962  -18.2069  -40.8107 H         1 UNK         0.0600 
    164 H164       -1.2196  -17.4162  -42.7308 H         1 UNK         0.3000 
    165 H165        0.5369  -18.3519  -45.7113 H         1 UNK         0.0600 
    166 H166       -1.4532  -17.3553  -46.7923 H         1 UNK         0.0600 
    167 H167       -1.8583  -18.9468  -46.1605 H         1 UNK         0.0600 
    168 H168       -2.3803  -17.5043  -45.3008 H         1 UNK         0.0600 
    169 H169       -0.5477  -15.8606  -44.9419 H         1 UNK         0.3000 
    170 H170        2.2786  -14.6947  -43.0571 H         1 UNK         0.0600 
    171 H171        2.7154  -14.2600  -45.4637 H         1 UNK         0.0600 
    172 H172        1.0116  -13.9419  -45.7491 H         1 UNK         0.0600 
    173 H173        1.9513  -12.8669  -44.7153 H         1 UNK         0.0600 
    174 H174       -0.3240  -13.6163  -43.6574 H         1 UNK         0.3000 
    175 H175       -1.9213  -14.6817  -40.6550 H         1 UNK         0.0600 
    176 H176       -0.5882  -12.6675  -40.0160 H         1 UNK         0.0600 
    177 H177       -0.9361  -11.9256  -41.5732 H         1 UNK         0.0600 
    178 H178       -2.2401  -12.2350  -40.4265 H         1 UNK         0.0600 
    179 H179       -2.7553  -13.0306  -42.8475 H         1 UNK         0.3000 
    180 H180       -4.0992  -15.6593  -44.8577 H         1 UNK         0.0600 
    181 H181       -5.4460  -13.4621  -43.1981 H         1 UNK         0.0600 
    182 H182       -5.8145  -15.1799  -43.1002 H         1 UNK         0.0600 
    183 H183       -6.1445  -14.3008  -44.5839 H         1 UNK         0.0600 
    184 H184       -4.1920  -12.8996  -45.3089 H         1 UNK         0.3000 
    185 H185       -3.0606  -12.1452  -47.1800 H         1 UNK         0.0600 
    186 H186       -1.9971  -11.0594  -45.1849 H         1 UNK         0.0600 
    187 H187       -0.4393  -11.7524  -45.6210 H         1 UNK         0.0600 
    188 H188       -1.2017  -10.5573  -46.6678 H         1 UNK         0.0600 
    189 H189       -0.3025  -12.6823  -47.8834 H         1 UNK         0.3000 
    190 H190       -1.1574  -21.4360  -44.8534 H         1 UNK         0.3000 
    191 H191       -3.7374  -21.7528  -46.0391 H         1 UNK         0.0600 
    192 H192       -2.8956  -21.3498  -43.1171 H         1 UNK         0.0600 
    193 H193       -4.5295  -21.1443  -43.7369 H         1 UNK         0.0600 
    194 H194       -3.2508  -20.0729  -44.2809 H         1 UNK         0.0600 
    195 H195       -1.7053  -24.0675  -44.4338 H         1 UNK         0.3000 
    196 H196       -3.9623  -25.9893  -44.0349 H         1 UNK         0.0600 
    197 H197       -2.3218  -27.2485  -42.6624 H         1 UNK         0.0600 
    198 H198       -2.5373  -25.6214  -42.0357 H         1 UNK         0.0600 
    199 H199       -1.0919  -26.0260  -42.9589 H         1 UNK         0.0600 
    200 H200       -0.6988  -25.5734  -45.5010 H         1 UNK         0.3000 
    201 H201       -0.6235  -28.1480  -46.7155 H         1 UNK         0.0600 
    202 H202        1.3942  -26.8429  -46.0787 H         1 UNK         0.0600 
    203 H203        1.0107  -25.6213  -47.2893 H         1 UNK         0.0600 
    204 H204        1.4369  -27.2536  -47.7868 H         1 UNK         0.0600 
    205 H205       -1.9933  -25.0964  -47.8636 H         1 UNK         0.3000 
    206 H206       -2.8595  -26.3401  -50.3788 H         1 UNK         0.0600 
    207 H207       -0.6157  -25.1634  -50.8166 H         1 UNK         0.0600 
    208 H208       -1.9525  -24.5064  -51.7329 H         1 UNK         0.0600 
    209 H209       -1.3659  -23.6538  -50.3048 H         1 UNK         0.0600 
    210 H210       -3.9856  -24.0595  -51.4860 H         1 UNK         0.3000 
    211 H211       -6.3013  -23.6052  -49.7626 H         1 UNK         0.0600 
    212 H212       -7.1631  -22.3629  -51.7353 H         1 UNK         0.0600 
    213 H213       -6.5896  -23.9560  -52.2013 H         1 UNK         0.0600 
    214 H214       -5.6154  -22.5298  -52.5520 H         1 UNK         0.0600 
    215 H215       -3.6361  -21.6696  -51.1281 H         1 UNK         0.3000 
    216 H216       -2.8011  -19.6556  -50.8310 H         1 UNK         0.0600 
    217 H217       -2.4618  -18.8453  -48.5470 H         1 UNK         0.0600 
    218 H218       -2.2692  -20.5894  -48.5752 H         1 UNK         0.0600 
    219 H219       -3.7467  -19.8786  -47.9276 H         1 UNK         0.0600 
    220 H220       -5.4508  -19.7572  -51.8791 H         1 UNK         0.3000 
    221 H221       -7.0678  -17.6323  -50.7587 H         1 UNK         0.0600 
    222 H222       -7.3006  -19.2068  -53.3809 H         1 UNK         0.0600 
    223 H223       -8.0550  -19.6396  -51.8457 H         1 UNK         0.0600 
    224 H224       -8.5497  -18.1797  -52.6876 H         1 UNK         0.0600 
    225 H225       -4.4564  -17.7098  -53.0449 H         1 UNK         0.3000 
    226 H226       -4.4543  -14.9117  -53.5349 H         1 UNK         0.0600 
    227 H227       -4.7371  -15.0494  -56.0363 H         1 UNK         0.0600 
    228 H228       -5.1217  -16.7624  -55.9109 H         1 UNK         0.0600 
    229 H229       -6.2115  -15.5541  -55.2405 H         1 UNK         0.0600 
    230 H230       -2.6589  -14.6885  -55.4661 H         1 UNK         0.3000 
    231 H231       -0.2288  -15.6195  -54.4212 H         1 UNK         0.0600 
    232 H232       -0.4624  -13.5516  -55.7580 H         1 UNK         0.0600 
    233 H233       -0.8764  -14.4905  -57.1937 H         1 UNK         0.0600 
    234 H234        0.7333  -14.6061  -56.4930 H         1 UNK         0.0600 
    235 H235       -2.3709  -17.2200  -56.6464 H         1 UNK         0.3000 
    236 H236       -0.5712  -19.5543  -56.7351 H         1 UNK         0.0600 
    237 H237       -1.3671  -20.0544  -59.0538 H         1 UNK         0.0600 
    238 H238       -2.2268  -18.5194  -59.1143 H         1 UNK         0.0600 
    239 H239       -0.4658  -18.5452  -59.0313 H         1 UNK         0.0600 
    240 H240       -1.7166  -21.4469  -56.3794 H         1 UNK         0.3000 
    241 H241       -4.4365  -21.1550  -55.2704 H         1 UNK         0.0600 
    242 H242       -6.2076  -23.2119  -57.5677 H         1 UNK         0.3800 
    243 H243       -6.2643  -22.3783  -56.0421 H         1 UNK         0.3800 
    244 H244       -4.0201  -23.4766  -54.3848 H         1 UNK         0.0800 
    245 H245       -2.4282  -23.4636  -55.0945 H         1 UNK         0.0800 
    246 H246       -0.4569  -23.0476  -53.4228 H         1 UNK         0.0800 
    247 H247       -0.5760  -21.6459  -54.4588 H         1 UNK         0.0800 
@<TRIPOS>BOND
     1    1    2 1    
     2    1  127 1    
     3    1  128 1    
     4    1  129 1    
     5    2    3 2    
     6    2    4 am   BACKBONE|DICT|INTERRES
     7    4    5 1    
     8    4  130 1    
     9    5    6 1    
    10    5   65 1    
    11    5  131 1    
    12    6    7 1    
    13    6  132 1    
    14    6  133 1    
    15    7    8 1    
    16    8    9 1    
    17    8  134 1    
    18    8  135 1    
    19    9   10 ar   
    20    9   14 ar   
    21   10   11 ar   
    22   10  136 1    
    23   11   12 ar   
    24   11  126 1    
    25   12   13 ar   
    26   12  137 1    
    27   13   14 ar   
    28   13   15 1    
    29   14  138 1    
    30   15   16 1    
    31   15  139 1    
    32   15  140 1    
    33   16   17 1    
    34   17   18 1    
    35   17  141 1    
    36   17  142 1    
    37   18   19 1    
    38   18   67 1    
    39   18  143 1    
    40   19   20 am   BACKBONE|DICT|INTERRES
    41   19  144 1    
    42   20   21 2    
    43   20   22 1    
    44   22   23 1    
    45   22   24 1    
    46   22  145 1    
    47   23  146 1    
    48   23  147 1    
    49   23  148 1    
    50   24   25 am   BACKBONE|DICT|INTERRES
    51   24  149 1    
    52   25   26 2    
    53   25   27 1    
    54   27   28 1    
    55   27   29 1    
    56   27  150 1    
    57   28  151 1    
    58   28  152 1    
    59   28  153 1    
    60   29   30 am   BACKBONE|DICT|INTERRES
    61   29  154 1    
    62   30   31 2    
    63   30   32 1    
    64   32   33 1    
    65   32   34 1    
    66   32  155 1    
    67   33  156 1    
    68   33  157 1    
    69   33  158 1    
    70   34   35 am   BACKBONE|DICT|INTERRES
    71   34  159 1    
    72   35   36 2    
    73   35   37 1    
    74   37   38 1    
    75   37   39 1    
    76   37  160 1    
    77   38  161 1    
    78   38  162 1    
    79   38  163 1    
    80   39   40 am   BACKBONE|DICT|INTERRES
    81   39  164 1    
    82   40   41 2    
    83   40   42 1    
    84   42   43 1    
    85   42   44 1    
    86   42  165 1    
    87   43  166 1    
    88   43  167 1    
    89   43  168 1    
    90   44   45 am   BACKBONE|DICT|INTERRES
    91   44  169 1    
    92   45   46 2    
    93   45   47 1    
    94   47   48 1    
    95   47   49 1    
    96   47  170 1    
    97   48  171 1    
    98   48  172 1    
    99   48  173 1    
   100   49   50 am   BACKBONE|DICT|INTERRES
   101   49  174 1    
   102   50   51 2    
   103   50   52 1    
   104   52   53 1    
   105   52   54 1    
   106   52  175 1    
   107   53  176 1    
   108   53  177 1    
   109   53  178 1    
   110   54   55 am   BACKBONE|DICT|INTERRES
   111   54  179 1    
   112   55   56 2    
   113   55   57 1    
   114   57   58 1    
   115   57   59 1    
   116   57  180 1    
   117   58  181 1    
   118   58  182 1    
   119   58  183 1    
   120   59   60 am   BACKBONE|DICT|INTERRES
   121   59  184 1    
   122   60   61 2    
   123   60   62 1    
   124   62   63 1    
   125   62   64 1    
   126   62  185 1    
   127   63  186 1    
   128   63  187 1    
   129   63  188 1    
   130   64   65 am   BACKBONE|DICT|INTERRES
   131   64  189 1    
   132   65   66 2    
   133   67   68 2    
   134   67   69 am   BACKBONE|DICT|INTERRES
   135   69   70 1    
   136   69  190 1    
   137   70   71 1    
   138   70   72 1    
   139   70  191 1    
   140   71  192 1    
   141   71  193 1    
   142   71  194 1    
   143   72   73 2    
   144   72   74 am   BACKBONE|DICT|INTERRES
   145   74   75 1    
   146   74  195 1    
   147   75   76 1    
   148   75   77 1    
   149   75  196 1    
   150   76  197 1    
   151   76  198 1    
   152   76  199 1    
   153   77   78 2    
   154   77   79 am   BACKBONE|DICT|INTERRES
   155   79   80 1    
   156   79  200 1    
   157   80   81 1    
   158   80   82 1    
   159   80  201 1    
   160   81  202 1    
   161   81  203 1    
   162   81  204 1    
   163   82   83 2    
   164   82   84 am   BACKBONE|DICT|INTERRES
   165   84   85 1    
   166   84  205 1    
   167   85   86 1    
   168   85   87 1    
   169   85  206 1    
   170   86  207 1    
   171   86  208 1    
   172   86  209 1    
   173   87   88 2    
   174   87   89 am   BACKBONE|DICT|INTERRES
   175   89   90 1    
   176   89  210 1    
   177   90   91 1    
   178   90   92 1    
   179   90  211 1    
   180   91  212 1    
   181   91  213 1    
   182   91  214 1    
   183   92   93 2    
   184   92   94 am   BACKBONE|DICT|INTERRES
   185   94   95 1    
   186   94  215 1    
   187   95   96 1    
   188   95   97 1    
   189   95  216 1    
   190   96  217 1    
   191   96  218 1    
   192   96  219 1    
   193   97   98 2    
   194   97   99 am   BACKBONE|DICT|INTERRES
   195   99  100 1    
   196   99  220 1    
   197  100  101 1    
   198  100  102 1    
   199  100  221 1    
   200  101  222 1    
   201  101  223 1    
   202  101  224 1    
   203  102  103 2    
   204  102  104 am   BACKBONE|DICT|INTERRES
   205  104  105 1    
   206  104  225 1    
   207  105  106 1    
   208  105  107 1    
   209  105  226 1    
   210  106  227 1    
   211  106  228 1    
   212  106  229 1    
   213  107  108 2    
   214  107  109 am   BACKBONE|DICT|INTERRES
   215  109  110 1    
   216  109  230 1    
   217  110  111 1    
   218  110  112 1    
   219  110  231 1    
   220  111  232 1    
   221  111  233 1    
   222  111  234 1    
   223  112  113 2    
   224  112  114 am   BACKBONE|DICT|INTERRES
   225  114  115 1    
   226  114  235 1    
   227  115  116 1    
   228  115  117 1    
   229  115  236 1    
   230  116  237 1    
   231  116  238 1    
   232  116  239 1    
   233  117  118 2    
   234  117  119 am   BACKBONE|DICT|INTERRES
   235  119  120 1    
   236  119  240 1    
   237  120  121 1    
   238  120  124 1    
   239  120  241 1    
   240  121  122 am   BACKBONE|DICT|INTERRES
   241  121  123 2    
   242  122  242 1    
   243  122  243 1    
   244  124  125 1    
   245  124  244 1    
   246  124  245 1    
   247  125  126 1    
   248  126  246 1    
   249  126  247 1    
@<TRIPOS>SUBSTRUCTURE
     1 UNK         1 GROUP             0       ****    0 ROOT    
