@<TRIPOS>MOLECULE
3R540
247   249    1
SMALL
USER_CHARGES


@<TRIPOS>ATOM
      1 CA          0.1869  -18.7086  -49.6871 C.3       0 UNK        -0.1800 
      2 C           0.4743  -17.8362  -50.9058 C.2       0 UNK         0.5000 
      3 O           1.0887  -18.3118  -51.8569 O.2       0 UNK        -0.5000 
      4 N           0.0557  -16.5628  -50.9350 N.am      1 UNK        -0.5000 
      5 CA         -0.5840  -15.8176  -49.8421 C.3       1 UNK         0.1400 
      6 C6         -1.4338  -14.6479  -50.4052 C.3       23 UNK        -0.0398 
      7 S7         -2.5903  -13.9162  -49.1948 S.3       23 UNK        -0.2404 
      8 C8         -4.1826  -14.6735  -49.6671 C.3       23 UNK        -0.0205 
      9 C9         -4.2149  -16.1852  -49.4724 C.ar      23 UNK        -0.0193 
     10 C10        -4.6830  -17.0122  -50.4973 C.ar      23 UNK        -0.1150 
     11 C11        -4.7254  -18.3992  -50.3297 C.ar      23 UNK        -0.0193 
     12 C12        -4.2665  -18.9632  -49.1355 C.ar      23 UNK        -0.1150 
     13 C13        -3.8070  -18.1473  -48.0973 C.ar      23 UNK        -0.0193 
     14 C14        -3.8037  -16.7600  -48.2654 C.ar      23 UNK        -0.1150 
     15 C15        -3.3275  -18.7540  -46.7877 C.3       23 UNK        -0.0205 
     16 S16        -1.5461  -18.4814  -46.5465 S.3       23 UNK        -0.2404 
     17 C17        -1.2804  -19.2859  -44.9346 C.3       23 UNK        -0.0398 
     18 CA         -0.5000  -20.6122  -45.0756 C.3       11 UNK         0.1400 
     19 N           0.3441  -20.8799  -43.9106 N.am      11 UNK        -0.5000 
     20 C           1.2695  -21.8466  -43.8491 C.2       10 UNK         0.5000 
     21 O           1.5564  -22.5805  -44.7934 O.2       10 UNK        -0.5000 
     22 CA          1.9380  -22.0713  -42.4834 C.3       10 UNK         0.1400 
     23 CB          3.1037  -21.0924  -42.2702 C.3       10 UNK        -0.1800 
     24 N           0.9702  -21.9566  -41.3901 N.am      10 UNK        -0.5000 
     25 C          -0.0166  -22.8383  -41.1679 C.2       9 UNK         0.5000 
     26 O          -0.1683  -23.8684  -41.8233 O.2       9 UNK        -0.5000 
     27 CA         -1.0293  -22.4919  -40.0604 C.3       9 UNK         0.1400 
     28 CB         -0.5103  -22.9564  -38.6918 C.3       9 UNK        -0.1800 
     29 N          -1.3379  -21.0627  -40.0001 N.am      9 UNK        -0.5000 
     30 C          -1.9730  -20.3721  -40.9589 C.2       8 UNK         0.5000 
     31 O          -2.4191  -20.8798  -41.9865 O.2       8 UNK        -0.5000 
     32 CA         -2.0568  -18.8448  -40.7649 C.3       8 UNK         0.1400 
     33 CB         -3.2996  -18.4676  -39.9460 C.3       8 UNK        -0.1800 
     34 N          -0.8580  -18.3003  -40.1186 N.am      8 UNK        -0.5000 
     35 C           0.3651  -18.3540  -40.6600 C.2       7 UNK         0.5000 
     36 O           0.5845  -18.7963  -41.7892 O.2       7 UNK        -0.5000 
     37 CA          1.5345  -17.9528  -39.7548 C.3       7 UNK         0.1400 
     38 CB          1.9392  -19.1585  -38.8791 C.3       7 UNK        -0.1800 
     39 N           2.6570  -17.5032  -40.5746 N.am      7 UNK        -0.5000 
     40 C           3.7827  -16.9460  -40.1072 C.2       6 UNK         0.5000 
     41 O           4.0194  -16.7676  -38.9117 O.2       6 UNK        -0.5000 
     42 CA          4.7966  -16.4570  -41.1527 C.3       6 UNK         0.1400 
     43 CB          5.4302  -17.6265  -41.9255 C.3       6 UNK        -0.1800 
     44 N           4.1496  -15.5258  -42.0738 N.am      6 UNK        -0.5000 
     45 C           3.9467  -14.2264  -41.8048 C.2       5 UNK         0.5000 
     46 O           4.4017  -13.6569  -40.8119 O.2       5 UNK        -0.5000 
     47 CA          3.0836  -13.4200  -42.7953 C.3       5 UNK         0.1400 
     48 CB          3.9729  -12.6266  -43.7643 C.3       5 UNK        -0.1800 
     49 N           2.1610  -14.2627  -43.5563 N.am      5 UNK        -0.5000 
     50 C           1.0651  -14.8385  -43.0368 C.2       4 UNK         0.5000 
     51 O           0.6733  -14.6397  -41.8864 O.2       4 UNK        -0.5000 
     52 CA          0.2891  -15.8252  -43.9314 C.3       4 UNK         0.1400 
     53 CB         -0.9447  -15.1408  -44.5380 C.3       4 UNK        -0.1800 
     54 N           1.0981  -16.4153  -45.0024 N.am      4 UNK        -0.5000 
     55 C           2.1748  -17.1933  -44.8044 C.2       3 UNK         0.5000 
     56 O           2.5716  -17.5224  -43.6873 O.2       3 UNK        -0.5000 
     57 CA          2.9974  -17.6149  -46.0399 C.3       3 UNK         0.1400 
     58 CB          2.6431  -19.0434  -46.4734 C.3       3 UNK        -0.1800 
     59 N           2.8560  -16.7167  -47.1881 N.am      3 UNK        -0.5000 
     60 C           3.1754  -15.4149  -47.1955 C.2       2 UNK         0.5000 
     61 O           3.6725  -14.8318  -46.2325 O.2       2 UNK        -0.5000 
     62 CA          2.8390  -14.6175  -48.4706 C.3       2 UNK         0.1400 
     63 CB          4.0750  -14.5127  -49.3763 C.3       2 UNK        -0.1800 
     64 N           1.7179  -15.1516  -49.2535 N.am      2 UNK        -0.5000 
     65 C           0.4610  -15.3254  -48.8123 C.2       1 UNK         0.5000 
     66 O           0.1288  -15.1500  -47.6409 O.2       1 UNK        -0.5000 
     67 C          -1.4278  -21.7970  -45.4101 C.2       11 UNK         0.5000 
     68 O          -1.5349  -22.1686  -46.5773 O.2       11 UNK        -0.5000 
     69 N          -2.0397  -22.4029  -44.3833 N.am      12 UNK        -0.5000 
     70 CA         -2.8657  -23.6049  -44.5059 C.3       12 UNK         0.1400 
     71 CB         -3.5639  -23.8880  -43.1675 C.3       12 UNK        -0.1800 
     72 C          -2.0689  -24.8353  -44.9810 C.2       12 UNK         0.5000 
     73 O          -2.5819  -25.6083  -45.7902 O.2       12 UNK        -0.5000 
     74 N          -0.8280  -24.9809  -44.4933 N.am      13 UNK        -0.5000 
     75 CA          0.1086  -26.0267  -44.9069 C.3       13 UNK         0.1400 
     76 CB          1.2958  -26.0741  -43.9330 C.3       13 UNK        -0.1800 
     77 C           0.5939  -25.8496  -46.3582 C.2       13 UNK         0.5000 
     78 O           0.6773  -26.8365  -47.0905 O.2       13 UNK        -0.5000 
     79 N           0.8875  -24.6016  -46.7529 N.am      14 UNK        -0.5000 
     80 CA          1.2497  -24.2246  -48.1215 C.3       14 UNK         0.1400 
     81 CB          1.7621  -22.7748  -48.1360 C.3       14 UNK        -0.1800 
     82 C           0.0783  -24.3929  -49.1073 C.2       14 UNK         0.5000 
     83 O           0.2880  -24.8478  -50.2331 O.2       14 UNK        -0.5000 
     84 N          -1.1281  -24.0292  -48.6518 N.am      15 UNK        -0.5000 
     85 CA         -2.4335  -24.0725  -49.3134 C.3       15 UNK         0.1400 
     86 CB         -2.8205  -25.5056  -49.7254 C.3       15 UNK        -0.1800 
     87 C          -2.5646  -23.0846  -50.4847 C.2       15 UNK         0.5000 
     88 O          -3.4711  -22.2528  -50.4661 O.2       15 UNK        -0.5000 
     89 N          -1.6668  -23.1970  -51.4734 N.am      16 UNK        -0.5000 
     90 CA         -1.5155  -22.4134  -52.7076 C.3       16 UNK         0.1400 
     91 CB         -1.1816  -20.9455  -52.3914 C.3       16 UNK        -0.1800 
     92 C          -2.6909  -22.5073  -53.7013 C.2       16 UNK         0.5000 
     93 O          -2.4556  -22.7018  -54.8947 O.2       16 UNK        -0.5000 
     94 N          -3.9245  -22.3700  -53.2004 N.am      17 UNK        -0.5000 
     95 CA         -5.1920  -22.3607  -53.9306 C.3       17 UNK         0.1400 
     96 CB         -5.5365  -23.7869  -54.4147 C.3       17 UNK        -0.1800 
     97 C          -5.1964  -21.2888  -55.0415 C.2       17 UNK         0.5000 
     98 O          -4.8978  -20.1274  -54.7561 O.2       17 UNK        -0.5000 
     99 N          -5.5050  -21.6888  -56.2825 N.am      18 UNK        -0.5000 
    100 CA        -5.6042  -20.8293  -57.4648 C.3       18 UNK         0.1400 
    101 CB        -6.0365  -21.6824  -58.6664 C.3       18 UNK        -0.1800 
    102 C         -4.3249  -20.0370  -57.8009 C.2       18 UNK         0.5000 
    103 O         -4.4295  -18.9659  -58.3992 O.2       18 UNK        -0.5000 
    104 N         -3.1524  -20.5302  -57.3725 N.am      19 UNK        -0.5000 
    105 CA        -1.8634  -19.8428  -57.5094 C.3       19 UNK         0.1400 
    106 CB        -0.7286  -20.8039  -57.1248 C.3       19 UNK        -0.1800 
    107 C         -1.7690  -18.5424  -56.6835 C.2       19 UNK         0.5000 
    108 O         -0.9703  -17.6698  -57.0254 O.2       19 UNK        -0.5000 
    109 N         -2.5954  -18.4279  -55.6359 N.am      20 UNK        -0.5000 
    110 CA        -2.7491  -17.2424  -54.7943 C.3       20 UNK         0.1400 
    111 CB        -2.3616  -17.6183  -53.3559 C.3       20 UNK        -0.1800 
    112 C         -4.1831  -16.6818  -54.8838 C.2       20 UNK         0.5000 
    113 O         -4.6032  -15.9414  -53.9927 O.2       20 UNK        -0.5000 
    114 N         -4.9156  -17.0559  -55.9455 N.am      21 UNK        -0.5000 
    115 CA        -6.3214  -16.7699  -56.2582 C.3       21 UNK         0.1400 
    116 CB        -6.5760  -15.2583  -56.4136 C.3       21 UNK        -0.1800 
    117 C         -7.3204  -17.4167  -55.2790 C.2       21 UNK         0.5000 
    118 O         -8.2005  -18.1586  -55.7157 O.2       21 UNK        -0.5000 
    119 N         -7.1541  -17.1384  -53.9811 N.am      22 UNK        -0.5000 
    120 CA        -7.9357  -17.6705  -52.8520 C.3       22 UNK         0.1400 
    121 C         -9.4130  -17.1756  -52.7673 C.2       22 UNK         0.5000 
    122 N         -9.8067  -16.1407  -53.4996 N.am      22 UNK        -0.7600 
    123 O        -10.2104  -17.7108  -52.0020 O.2       22 UNK        -0.5000 
    124 C124       -7.7841  -19.2178  -52.7071 C.3       23 UNK        -0.0398 
    125 S125       -7.0259  -19.7014  -51.1220 S.3       23 UNK        -0.2404 
    126 C126       -5.2794  -19.2865  -51.4323 C.3       23 UNK        -0.0205 
    127 H127       -0.8796  -18.9264  -49.6201 H         1 UNK         0.0600 
    128 H128        0.5029  -18.2213  -48.7673 H         1 UNK         0.0600 
    129 H129        0.7185  -19.6578  -49.7572 H         1 UNK         0.0600 
    130 H130        0.2371  -16.0275  -51.7719 H         1 UNK         0.3000 
    131 H131       -1.2584  -16.4963  -49.3190 H         1 UNK         0.0600 
    132 H132       -0.7911  -13.8545  -50.7909 H         1 UNK         0.0800 
    133 H133       -2.0183  -14.9900  -51.2593 H         1 UNK         0.0800 
    134 H134       -4.9735  -14.2302  -49.0610 H         1 UNK         0.0800 
    135 H135       -4.4043  -14.4101  -50.7028 H         1 UNK         0.0800 
    136 H136       -5.0247  -16.5758  -51.4250 H         1 UNK         0.1150 
    137 H137       -4.2859  -20.0372  -49.0114 H         1 UNK         0.1150 
    138 H138       -3.4518  -16.1281  -47.4617 H         1 UNK         0.1150 
    139 H139       -3.8805  -18.3056  -45.9612 H         1 UNK         0.0800 
    140 H140       -3.5336  -19.8253  -46.7613 H         1 UNK         0.0800 
    141 H141       -0.7050  -18.5841  -44.3333 H         1 UNK         0.0800 
    142 H142       -2.2240  -19.4183  -44.4021 H         1 UNK         0.0800 
    143 H143        0.1855  -20.5192  -45.9180 H         1 UNK         0.0600 
    144 H144        0.2179  -20.2809  -43.1012 H         1 UNK         0.3000 
    145 H145        2.3442  -23.0848  -42.4724 H         1 UNK         0.0600 
    146 H146        3.5965  -21.2652  -41.3136 H         1 UNK         0.0600 
    147 H147        3.8570  -21.2136  -43.0495 H         1 UNK         0.0600 
    148 H148        2.7783  -20.0532  -42.2979 H         1 UNK         0.0600 
    149 H149        0.9980  -21.1083  -40.8462 H         1 UNK         0.3000 
    150 H150       -1.9555  -23.0288  -40.2755 H         1 UNK         0.0600 
    151 H151       -0.2892  -24.0246  -38.7008 H         1 UNK         0.0600 
    152 H152       -1.2513  -22.7862  -37.9105 H         1 UNK         0.0600 
    153 H153        0.4043  -22.4342  -38.4076 H         1 UNK         0.0600 
    154 H154       -1.0156  -20.5637  -39.1849 H         1 UNK         0.3000 
    155 H155       -2.1458  -18.3890  -41.7535 H         1 UNK         0.0600 
    156 H156       -3.4048  -17.3855  -39.8658 H         1 UNK         0.0600 
    157 H157       -3.2584  -18.8775  -38.9361 H         1 UNK         0.0600 
    158 H158       -4.2069  -18.8471  -40.4180 H         1 UNK         0.0600 
    159 H159       -0.9731  -17.9306  -39.1857 H         1 UNK         0.3000 
    160 H160        1.2135  -17.1248  -39.1198 H         1 UNK         0.0600 
    161 H161        2.3595  -19.9666  -39.4780 H         1 UNK         0.0600 
    162 H162        1.0835  -19.5613  -38.3362 H         1 UNK         0.0600 
    163 H163        2.6807  -18.8831  -38.1300 H         1 UNK         0.0600 
    164 H164        2.5215  -17.6104  -41.5774 H         1 UNK         0.3000 
    165 H165        5.6026  -15.9388  -40.6285 H         1 UNK         0.0600 
    166 H166        4.6892  -18.2384  -42.4381 H         1 UNK         0.0600 
    167 H167        6.1395  -17.2668  -42.6709 H         1 UNK         0.0600 
    168 H168        5.9763  -18.2836  -41.2478 H         1 UNK         0.0600 
    169 H169        3.6921  -15.9377  -42.8777 H         1 UNK         0.3000 
    170 H170        2.4946  -12.7051  -42.2167 H         1 UNK         0.0600 
    171 H171        4.5923  -11.9100  -43.2236 H         1 UNK         0.0600 
    172 H172        4.6443  -13.2798  -44.3221 H         1 UNK         0.0600 
    173 H173        3.3757  -12.0643  -44.4823 H         1 UNK         0.0600 
    174 H174        2.4347  -14.4875  -44.5061 H         1 UNK         0.3000 
    175 H175       -0.0553  -16.6346  -43.2870 H         1 UNK         0.0600 
    176 H176       -1.5988  -14.7511  -43.7571 H         1 UNK         0.0600 
    177 H177       -0.6643  -14.3041  -45.1787 H         1 UNK         0.0600 
    178 H178       -1.5332  -15.8362  -45.1357 H         1 UNK         0.0600 
    179 H179        0.8429  -16.1541  -45.9491 H         1 UNK         0.3000 
    180 H180        4.0472  -17.6031  -45.7397 H         1 UNK         0.0600 
    181 H181        1.6326  -19.0955  -46.8750 H         1 UNK         0.0600 
    182 H182        2.7049  -19.7373  -45.6340 H         1 UNK         0.0600 
    183 H183        3.3264  -19.4043  -47.2421 H         1 UNK         0.0600 
    184 H184        2.4512  -17.1083  -48.0242 H         1 UNK         0.3000 
    185 H185        2.5622  -13.6102  -48.1531 H         1 UNK         0.0600 
    186 H186        3.8860  -13.8611  -50.2296 H         1 UNK         0.0600 
    187 H187        4.9239  -14.0947  -48.8332 H         1 UNK         0.0600 
    188 H188        4.3777  -15.4886  -49.7579 H         1 UNK         0.0600 
    189 H189        1.9107  -15.3544  -50.2236 H         1 UNK         0.3000 
    190 H190       -1.9612  -21.9956  -43.4554 H         1 UNK         0.3000 
    191 H191       -3.6360  -23.4018  -45.2527 H         1 UNK         0.0600 
    192 H192       -4.2234  -24.7529  -43.2473 H         1 UNK         0.0600 
    193 H193       -4.1740  -23.0408  -42.8537 H         1 UNK         0.0600 
    194 H194       -2.8460  -24.0954  -42.3742 H         1 UNK         0.0600 
    195 H195       -0.5070  -24.3403  -43.7751 H         1 UNK         0.3000 
    196 H196       -0.4122  -26.9846  -44.8467 H         1 UNK         0.0600 
    197 H197        1.9914  -26.8690  -44.2045 H         1 UNK         0.0600 
    198 H198        0.9615  -26.2684  -42.9137 H         1 UNK         0.0600 
    199 H199        1.8535  -25.1378  -43.9288 H         1 UNK         0.0600 
    200 H200        0.8689  -23.8542  -46.0646 H         1 UNK         0.3000 
    201 H201        2.0610  -24.8774  -48.4501 H         1 UNK         0.0600 
    202 H202        2.0593  -22.4748  -49.1416 H         1 UNK         0.0600 
    203 H203        0.9996  -22.0729  -47.7966 H         1 UNK         0.0600 
    204 H204        2.6326  -22.6576  -47.4902 H         1 UNK         0.0600 
    205 H205       -1.1535  -23.5701  -47.7440 H         1 UNK         0.3000 
    206 H206       -3.1486  -23.7523  -48.5537 H         1 UNK         0.0600 
    207 H207       -2.7956  -26.1779  -48.8675 H         1 UNK         0.0600 
    208 H208       -3.8327  -25.5318  -50.1307 H         1 UNK         0.0600 
    209 H209       -2.1549  -25.9111  -50.4876 H         1 UNK         0.0600 
    210 H210       -0.9605  -23.9156  -51.3363 H         1 UNK         0.3000 
    211 H211       -0.6492  -22.8391  -53.2162 H         1 UNK         0.0600 
    212 H212       -1.9864  -20.4478  -51.8499 H         1 UNK         0.0600 
    213 H213       -1.0037  -20.3810  -53.3075 H         1 UNK         0.0600 
    214 H214       -0.2778  -20.8742  -51.7873 H         1 UNK         0.0600 
    215 H215       -3.9851  -22.2117  -52.1967 H         1 UNK         0.3000 
    216 H216       -5.9573  -22.0583  -53.2146 H         1 UNK         0.0600 
    217 H217       -5.5455  -24.4864  -53.5787 H         1 UNK         0.0600 
    218 H218       -6.5275  -23.8239  -54.8686 H         1 UNK         0.0600 
    219 H219       -4.8164  -24.1594  -55.1444 H         1 UNK         0.0600 
    220 H220       -5.7055  -22.6677  -56.4272 H         1 UNK         0.3000 
    221 H221       -6.3900  -20.0976  -57.2656 H         1 UNK         0.0600 
    222 H222       -5.3049  -22.4597  -58.8910 H         1 UNK         0.0600 
    223 H223       -6.9963  -22.1658  -58.4834 H         1 UNK         0.0600 
    224 H224       -6.1496  -21.0694  -59.5617 H         1 UNK         0.0600 
    225 H225       -3.1496  -21.3979  -56.8516 H         1 UNK         0.3000 
    226 H226       -1.7399  -19.5743  -58.5606 H         1 UNK         0.0600 
    227 H227       -0.7541  -21.0526  -56.0638 H         1 UNK         0.0600 
    228 H228       -0.7844  -21.7334  -57.6915 H         1 UNK         0.0600 
    229 H229        0.2447  -20.3561  -57.3292 H         1 UNK         0.0600 
    230 H230       -3.2417  -19.1857  -55.4342 H         1 UNK         0.3000 
    231 H231       -2.0861  -16.4415  -55.1265 H         1 UNK         0.0600 
    232 H232       -2.4955  -16.7831  -52.6699 H         1 UNK         0.0600 
    233 H233       -1.3145  -17.9131  -53.3072 H         1 UNK         0.0600 
    234 H234       -2.9572  -18.4510  -52.9852 H         1 UNK         0.0600 
    235 H235       -4.4633  -17.6680  -56.6131 H         1 UNK         0.3000 
    236 H236       -6.4999  -17.2279  -57.2325 H         1 UNK         0.0600 
    237 H237       -5.9112  -14.8234  -57.1599 H         1 UNK         0.0600 
    238 H238       -7.5990  -15.0697  -56.7413 H         1 UNK         0.0600 
    239 H239       -6.4296  -14.7158  -55.4794 H         1 UNK         0.0600 
    240 H240       -6.3700  -16.5371  -53.7416 H         1 UNK         0.3000 
    241 H241       -7.4742  -17.1993  -51.9840 H         1 UNK         0.0600 
    242 H242       -9.1630  -15.6801  -54.1224 H         1 UNK         0.3800 
    243 H243      -10.7592  -15.8175  -53.4319 H         1 UNK         0.3800 
    244 H244       -8.7424  -19.7322  -52.7943 H         1 UNK         0.0800 
    245 H245       -7.1777  -19.6378  -53.5079 H         1 UNK         0.0800 
    246 H246       -5.1774  -18.7877  -52.3965 H         1 UNK         0.0800 
    247 H247       -4.6957  -20.2026  -51.5035 H         1 UNK         0.0800 
@<TRIPOS>BOND
     1    1    2 1    
     2    1  127 1    
     3    1  128 1    
     4    1  129 1    
     5    2    3 2    
     6    2    4 am   BACKBONE|DICT|INTERRES
     7    4    5 1    
     8    4  130 1    
     9    5    6 1    
    10    5   65 1    
    11    5  131 1    
    12    6    7 1    
    13    6  132 1    
    14    6  133 1    
    15    7    8 1    
    16    8    9 1    
    17    8  134 1    
    18    8  135 1    
    19    9   10 ar   
    20    9   14 ar   
    21   10   11 ar   
    22   10  136 1    
    23   11   12 ar   
    24   11  126 1    
    25   12   13 ar   
    26   12  137 1    
    27   13   14 ar   
    28   13   15 1    
    29   14  138 1    
    30   15   16 1    
    31   15  139 1    
    32   15  140 1    
    33   16   17 1    
    34   17   18 1    
    35   17  141 1    
    36   17  142 1    
    37   18   19 1    
    38   18   67 1    
    39   18  143 1    
    40   19   20 am   BACKBONE|DICT|INTERRES
    41   19  144 1    
    42   20   21 2    
    43   20   22 1    
    44   22   23 1    
    45   22   24 1    
    46   22  145 1    
    47   23  146 1    
    48   23  147 1    
    49   23  148 1    
    50   24   25 am   BACKBONE|DICT|INTERRES
    51   24  149 1    
    52   25   26 2    
    53   25   27 1    
    54   27   28 1    
    55   27   29 1    
    56   27  150 1    
    57   28  151 1    
    58   28  152 1    
    59   28  153 1    
    60   29   30 am   BACKBONE|DICT|INTERRES
    61   29  154 1    
    62   30   31 2    
    63   30   32 1    
    64   32   33 1    
    65   32   34 1    
    66   32  155 1    
    67   33  156 1    
    68   33  157 1    
    69   33  158 1    
    70   34   35 am   BACKBONE|DICT|INTERRES
    71   34  159 1    
    72   35   36 2    
    73   35   37 1    
    74   37   38 1    
    75   37   39 1    
    76   37  160 1    
    77   38  161 1    
    78   38  162 1    
    79   38  163 1    
    80   39   40 am   BACKBONE|DICT|INTERRES
    81   39  164 1    
    82   40   41 2    
    83   40   42 1    
    84   42   43 1    
    85   42   44 1    
    86   42  165 1    
    87   43  166 1    
    88   43  167 1    
    89   43  168 1    
    90   44   45 am   BACKBONE|DICT|INTERRES
    91   44  169 1    
    92   45   46 2    
    93   45   47 1    
    94   47   48 1    
    95   47   49 1    
    96   47  170 1    
    97   48  171 1    
    98   48  172 1    
    99   48  173 1    
   100   49   50 am   BACKBONE|DICT|INTERRES
   101   49  174 1    
   102   50   51 2    
   103   50   52 1    
   104   52   53 1    
   105   52   54 1    
   106   52  175 1    
   107   53  176 1    
   108   53  177 1    
   109   53  178 1    
   110   54   55 am   BACKBONE|DICT|INTERRES
   111   54  179 1    
   112   55   56 2    
   113   55   57 1    
   114   57   58 1    
   115   57   59 1    
   116   57  180 1    
   117   58  181 1    
   118   58  182 1    
   119   58  183 1    
   120   59   60 am   BACKBONE|DICT|INTERRES
   121   59  184 1    
   122   60   61 2    
   123   60   62 1    
   124   62   63 1    
   125   62   64 1    
   126   62  185 1    
   127   63  186 1    
   128   63  187 1    
   129   63  188 1    
   130   64   65 am   BACKBONE|DICT|INTERRES
   131   64  189 1    
   132   65   66 2    
   133   67   68 2    
   134   67   69 am   BACKBONE|DICT|INTERRES
   135   69   70 1    
   136   69  190 1    
   137   70   71 1    
   138   70   72 1    
   139   70  191 1    
   140   71  192 1    
   141   71  193 1    
   142   71  194 1    
   143   72   73 2    
   144   72   74 am   BACKBONE|DICT|INTERRES
   145   74   75 1    
   146   74  195 1    
   147   75   76 1    
   148   75   77 1    
   149   75  196 1    
   150   76  197 1    
   151   76  198 1    
   152   76  199 1    
   153   77   78 2    
   154   77   79 am   BACKBONE|DICT|INTERRES
   155   79   80 1    
   156   79  200 1    
   157   80   81 1    
   158   80   82 1    
   159   80  201 1    
   160   81  202 1    
   161   81  203 1    
   162   81  204 1    
   163   82   83 2    
   164   82   84 am   BACKBONE|DICT|INTERRES
   165   84   85 1    
   166   84  205 1    
   167   85   86 1    
   168   85   87 1    
   169   85  206 1    
   170   86  207 1    
   171   86  208 1    
   172   86  209 1    
   173   87   88 2    
   174   87   89 am   BACKBONE|DICT|INTERRES
   175   89   90 1    
   176   89  210 1    
   177   90   91 1    
   178   90   92 1    
   179   90  211 1    
   180   91  212 1    
   181   91  213 1    
   182   91  214 1    
   183   92   93 2    
   184   92   94 am   BACKBONE|DICT|INTERRES
   185   94   95 1    
   186   94  215 1    
   187   95   96 1    
   188   95   97 1    
   189   95  216 1    
   190   96  217 1    
   191   96  218 1    
   192   96  219 1    
   193   97   98 2    
   194   97   99 am   BACKBONE|DICT|INTERRES
   195   99  100 1    
   196   99  220 1    
   197  100  101 1    
   198  100  102 1    
   199  100  221 1    
   200  101  222 1    
   201  101  223 1    
   202  101  224 1    
   203  102  103 2    
   204  102  104 am   BACKBONE|DICT|INTERRES
   205  104  105 1    
   206  104  225 1    
   207  105  106 1    
   208  105  107 1    
   209  105  226 1    
   210  106  227 1    
   211  106  228 1    
   212  106  229 1    
   213  107  108 2    
   214  107  109 am   BACKBONE|DICT|INTERRES
   215  109  110 1    
   216  109  230 1    
   217  110  111 1    
   218  110  112 1    
   219  110  231 1    
   220  111  232 1    
   221  111  233 1    
   222  111  234 1    
   223  112  113 2    
   224  112  114 am   BACKBONE|DICT|INTERRES
   225  114  115 1    
   226  114  235 1    
   227  115  116 1    
   228  115  117 1    
   229  115  236 1    
   230  116  237 1    
   231  116  238 1    
   232  116  239 1    
   233  117  118 2    
   234  117  119 am   BACKBONE|DICT|INTERRES
   235  119  120 1    
   236  119  240 1    
   237  120  121 1    
   238  120  124 1    
   239  120  241 1    
   240  121  122 am   BACKBONE|DICT|INTERRES
   241  121  123 2    
   242  122  242 1    
   243  122  243 1    
   244  124  125 1    
   245  124  244 1    
   246  124  245 1    
   247  125  126 1    
   248  126  246 1    
   249  126  247 1    
@<TRIPOS>SUBSTRUCTURE
     1 UNK         1 GROUP             0       ****    0 ROOT    
