@<TRIPOS>MOLECULE
3R540
247   249    1
SMALL
USER_CHARGES


@<TRIPOS>ATOM
      1 CA          0.2588  -10.7337  -49.2133 C.3       0 UNK        -0.1800 
      2 C           0.2217  -11.5013  -47.9010 C.2       0 UNK         0.5000 
      3 O           1.1192  -11.3435  -47.0742 O.2       0 UNK        -0.5000 
      4 N          -0.8215  -12.3165  -47.6957 N.am      1 UNK        -0.5000 
      5 CA         -1.0199  -13.2005  -46.5358 C.3       1 UNK         0.1400 
      6 C6         -2.2749  -14.0916  -46.7183 C.3       23 UNK        -0.0398 
      7 S7         -2.2749  -15.2517  -48.1358 S.3       23 UNK        -0.2404 
      8 C8         -0.5218  -15.6091  -48.4903 C.3       23 UNK        -0.0205 
      9 C9         -0.4007  -16.5318  -49.6926 C.ar      23 UNK        -0.0193 
     10 C10        -0.5896  -16.0220  -50.9798 C.ar      23 UNK        -0.1150 
     11 C11        -0.5077  -16.8499  -52.1031 C.ar      23 UNK        -0.0193 
     12 C12        -0.2220  -18.2094  -51.9196 C.ar      23 UNK        -0.1150 
     13 C13        -0.0189  -18.7322  -50.6382 C.ar      23 UNK        -0.0193 
     14 C14        -0.1057  -17.8872  -49.5274 C.ar      23 UNK        -0.1150 
     15 C15         0.3064  -20.2081  -50.4634 C.3       23 UNK        -0.0205 
     16 S16        -1.1229  -21.1419  -49.8295 S.3       23 UNK        -0.2404 
     17 C17        -0.8887  -21.0012  -48.0256 C.3       23 UNK        -0.0398 
     18 CA         -1.0024  -22.3712  -47.3143 C.3       11 UNK         0.1400 
     19 N          -0.1596  -22.4399  -46.1172 N.am      11 UNK        -0.5000 
     20 C           0.0296  -23.5240  -45.3522 C.2       10 UNK         0.5000 
     21 O          -0.5196  -24.6075  -45.5538 O.2       10 UNK        -0.5000 
     22 CA          0.9517  -23.3511  -44.1335 C.3       10 UNK         0.1400 
     23 CB          2.4298  -23.3554  -44.5519 C.3       10 UNK        -0.1800 
     24 N           0.6473  -22.1186  -43.4077 N.am      10 UNK        -0.5000 
     25 C          -0.4262  -21.9605  -42.6208 C.2       9 UNK         0.5000 
     26 O          -1.2175  -22.8656  -42.3547 O.2       9 UNK        -0.5000 
     27 CA         -0.6783  -20.5468  -42.0624 C.3       9 UNK         0.1400 
     28 CB          0.1209  -20.3259  -40.7695 C.3       9 UNK        -0.1800 
     29 N          -0.3626  -19.4805  -43.0148 N.am      9 UNK        -0.5000 
     30 C          -0.9583  -19.3149  -44.2043 C.2       8 UNK         0.5000 
     31 O          -1.8603  -20.0355  -44.6270 O.2       8 UNK        -0.5000 
     32 CA         -0.4225  -18.1846  -45.0982 C.3       8 UNK         0.1400 
     33 CB         -1.0221  -16.8412  -44.6679 C.3       8 UNK        -0.1800 
     34 N           1.0379  -18.0914  -45.1000 N.am      8 UNK        -0.5000 
     35 C           1.8770  -19.0765  -45.4518 C.2       7 UNK         0.5000 
     36 O           1.5111  -20.1909  -45.8187 O.2       7 UNK        -0.5000 
     37 CA          3.3782  -18.7847  -45.3226 C.3       7 UNK         0.1400 
     38 CB          3.8740  -17.9368  -46.5032 C.3       7 UNK        -0.1800 
     39 N           3.6735  -18.1132  -44.0586 N.am      7 UNK        -0.5000 
     40 C           3.6475  -18.7219  -42.8639 C.2       6 UNK         0.5000 
     41 O           3.4477  -19.9278  -42.7133 O.2       6 UNK        -0.5000 
     42 CA          3.8439  -17.8237  -41.6285 C.3       6 UNK         0.1400 
     43 CB          5.3381  -17.6337  -41.3279 C.3       6 UNK        -0.1800 
     44 N           3.2089  -16.5127  -41.7781 N.am      6 UNK        -0.5000 
     45 C           1.8841  -16.3176  -41.8410 C.2       5 UNK         0.5000 
     46 O           1.0561  -17.2238  -41.7497 O.2       5 UNK        -0.5000 
     47 CA          1.4081  -14.8747  -42.0901 C.3       5 UNK         0.1400 
     48 CB          1.2631  -14.1114  -40.7660 C.3       5 UNK        -0.1800 
     49 N           2.2792  -14.1160  -42.9903 N.am      5 UNK        -0.5000 
     50 C           2.5167  -14.4191  -44.2725 C.2       4 UNK         0.5000 
     51 O           2.0824  -15.4345  -44.8187 O.2       4 UNK        -0.5000 
     52 CA          3.3747  -13.4150  -45.0682 C.3       4 UNK         0.1400 
     53 CB          3.4864  -13.7836  -46.5586 C.3       4 UNK        -0.1800 
     54 N           2.8435  -12.0568  -44.9666 N.am      4 UNK        -0.5000 
     55 C           3.0618  -11.1996  -43.9613 C.2       3 UNK         0.5000 
     56 O           3.7290  -11.4768  -42.9639 O.2       3 UNK        -0.5000 
     57 CA          2.3858   -9.8254  -44.0741 C.3       3 UNK         0.1400 
     58 CB          3.0665   -8.9652  -45.1510 C.3       3 UNK        -0.1800 
     59 N           0.9713   -9.9854  -44.4032 N.am      3 UNK        -0.5000 
     60 C          -0.0247   -9.9874  -43.5066 C.2       2 UNK         0.5000 
     61 O           0.1345   -9.7764  -42.3038 O.2       2 UNK        -0.5000 
     62 CA         -1.4422  -10.2808  -44.0390 C.3       2 UNK         0.1400 
     63 CB         -2.1646   -8.9729  -44.3962 C.3       2 UNK        -0.1800 
     64 N          -1.4426  -11.1611  -45.2085 N.am      2 UNK        -0.5000 
     65 C          -1.0994  -12.4568  -45.1833 C.2       1 UNK         0.5000 
     66 O          -0.8366  -13.0668  -44.1477 O.2       1 UNK        -0.5000 
     67 C          -2.4744  -22.7306  -47.0316 C.2       11 UNK         0.5000 
     68 O          -3.1042  -23.3944  -47.8549 O.2       11 UNK        -0.5000 
     69 N          -2.9880  -22.3216  -45.8637 N.am      12 UNK        -0.5000 
     70 CA         -4.3251  -22.6408  -45.3604 C.3       12 UNK         0.1400 
     71 CB         -4.5527  -21.9076  -44.0307 C.3       12 UNK        -0.1800 
     72 C          -4.5854  -24.1501  -45.1967 C.2       12 UNK         0.5000 
     73 O          -5.7235  -24.5839  -45.3735 O.2       12 UNK        -0.5000 
     74 N          -3.5351  -24.9213  -44.8899 N.am      13 UNK        -0.5000 
     75 CA         -3.5855  -26.3790  -44.8196 C.3       13 UNK         0.1400 
     76 CB         -2.5940  -26.8700  -43.7528 C.3       13 UNK        -0.1800 
     77 C          -3.2768  -27.0157  -46.1854 C.2       13 UNK         0.5000 
     78 O          -3.9592  -27.9607  -46.5821 O.2       13 UNK        -0.5000 
     79 N          -2.2436  -26.5032  -46.8675 N.am      14 UNK        -0.5000 
     80 CA         -1.6913  -27.0842  -48.0904 C.3       14 UNK         0.1400 
     81 CB         -0.2870  -26.5081  -48.3294 C.3       14 UNK        -0.1800 
     82 C          -2.5660  -26.8914  -49.3421 C.2       14 UNK         0.5000 
     83 O          -2.6511  -27.8124  -50.1560 O.2       14 UNK        -0.5000 
     84 N          -3.1642  -25.7036  -49.4974 N.am      15 UNK        -0.5000 
     85 CA         -3.8376  -25.2778  -50.7291 C.3       15 UNK         0.1400 
     86 CB         -2.8562  -24.4196  -51.5435 C.3       15 UNK        -0.1800 
     87 C          -5.1569  -24.5252  -50.4787 C.2       15 UNK         0.5000 
     88 O          -5.7746  -24.0720  -51.4420 O.2       15 UNK        -0.5000 
     89 N          -5.5668  -24.4086  -49.2071 N.am      16 UNK        -0.5000 
     90 CA         -6.7226  -23.6497  -48.7144 C.3       16 UNK         0.1400 
     91 CB         -8.0469  -24.1777  -49.3078 C.3       16 UNK        -0.1800 
     92 C          -6.5524  -22.1200  -48.8557 C.2       16 UNK         0.5000 
     93 O          -7.5469  -21.4137  -49.0233 O.2       16 UNK        -0.5000 
     94 N          -5.2990  -21.6526  -48.7307 N.am      17 UNK        -0.5000 
     95 CA         -4.8204  -20.2659  -48.7821 C.3       17 UNK         0.1400 
     96 CB         -5.4408  -19.4038  -47.6650 C.3       17 UNK        -0.1800 
     97 C          -4.9958  -19.6426  -50.1784 C.2       17 UNK         0.5000 
     98 O          -6.1007  -19.2341  -50.5398 O.2       17 UNK        -0.5000 
     99 N          -3.8920  -19.6019  -50.9395 N.am      18 UNK        -0.5000 
    100 CA        -3.8283  -19.3024  -52.3729 C.3       18 UNK         0.1400 
    101 CB        -4.2656  -17.8512  -52.6775 C.3       18 UNK        -0.1800 
    102 C         -4.5876  -20.3953  -53.1492 C.2       18 UNK         0.5000 
    103 O         -4.2621  -21.5678  -52.9586 O.2       18 UNK        -0.5000 
    104 N         -5.5804  -20.0148  -53.9669 N.am      19 UNK        -0.5000 
    105 CA        -6.5046  -20.8791  -54.7095 C.3       19 UNK         0.1400 
    106 CB        -7.4791  -21.5845  -53.7412 C.3       19 UNK        -0.1800 
    107 C         -5.7846  -21.8562  -55.6614 C.2       19 UNK         0.5000 
    108 O         -5.5653  -21.5143  -56.8242 O.2       19 UNK        -0.5000 
    109 N         -5.4340  -23.0469  -55.1570 N.am      20 UNK        -0.5000 
    110 CA        -4.6306  -24.0460  -55.8605 C.3       20 UNK         0.1400 
    111 CB        -4.7992  -25.4045  -55.1623 C.3       20 UNK        -0.1800 
    112 C         -3.1403  -23.6579  -55.9514 C.2       20 UNK         0.5000 
    113 O         -2.4657  -24.0821  -56.8909 O.2       20 UNK        -0.5000 
    114 N         -2.6561  -22.8640  -54.9881 N.am      21 UNK        -0.5000 
    115 CA        -1.3166  -22.2816  -54.9750 C.3       21 UNK         0.1400 
    116 CB        -0.8166  -22.2228  -53.5233 C.3       21 UNK        -0.1800 
    117 C         -1.3276  -20.8740  -55.5971 C.2       21 UNK         0.5000 
    118 O         -2.3929  -20.2690  -55.7341 O.2       21 UNK        -0.5000 
    119 N         -0.1247  -20.3857  -55.9292 N.am      22 UNK        -0.5000 
    120 CA         0.1779  -19.0823  -56.5476 C.3       22 UNK         0.1400 
    121 C         -0.6053  -18.7820  -57.8660 C.2       22 UNK         0.5000 
    122 N         -0.9176  -17.5303  -58.1768 N.am      22 UNK        -0.7600 
    123 O         -0.8689  -19.6829  -58.6597 O.2       22 UNK        -0.5000 
    124 C124        0.2770  -17.9167  -55.5160 C.3       23 UNK        -0.0398 
    125 S125       -1.3005  -17.3495  -54.7898 S.3       23 UNK        -0.2404 
    126 C126       -0.7137  -16.2200  -53.4824 C.3       23 UNK        -0.0205 
    127 H127        0.2634   -9.6612  -49.0196 H         1 UNK         0.0600 
    128 H128       -0.6013  -10.9639  -49.8425 H         1 UNK         0.0600 
    129 H129        1.1632  -10.9854  -49.7669 H         1 UNK         0.0600 
    130 H130       -1.5291  -12.3901  -48.4133 H         1 UNK         0.3000 
    131 H131       -0.1399  -13.8413  -46.4593 H         1 UNK         0.0600 
    132 H132       -2.4545  -14.6871  -45.8232 H         1 UNK         0.0800 
    133 H133       -3.1603  -13.4613  -46.8194 H         1 UNK         0.0800 
    134 H134        0.0209  -14.6888  -48.7052 H         1 UNK         0.0800 
    135 H135       -0.0504  -16.0566  -47.6142 H         1 UNK         0.0800 
    136 H136       -0.8119  -14.9712  -51.1038 H         1 UNK         0.1150 
    137 H137       -0.1539  -18.8709  -52.7701 H         1 UNK         0.1150 
    138 H138        0.0518  -18.2837  -48.5353 H         1 UNK         0.1150 
    139 H139        0.6017  -20.6410  -51.4189 H         1 UNK         0.0800 
    140 H140        1.1727  -20.3271  -49.8115 H         1 UNK         0.0800 
    141 H141       -1.5804  -20.2646  -47.6138 H         1 UNK         0.0800 
    142 H142        0.1032  -20.5884  -47.8566 H         1 UNK         0.0800 
    143 H143       -0.6127  -23.1377  -47.9863 H         1 UNK         0.0600 
    144 H144        0.3639  -21.5968  -45.8899 H         1 UNK         0.3000 
    145 H145        0.7890  -24.2004  -43.4664 H         1 UNK         0.0600 
    146 H146        3.0839  -23.2792  -43.6831 H         1 UNK         0.0600 
    147 H147        2.6840  -24.2802  -45.0712 H         1 UNK         0.0600 
    148 H148        2.6680  -22.5281  -45.2208 H         1 UNK         0.0600 
    149 H149        1.2389  -21.3196  -43.5918 H         1 UNK         0.3000 
    150 H150       -1.7414  -20.4725  -41.8244 H         1 UNK         0.0600 
    151 H151       -0.0958  -21.1039  -40.0364 H         1 UNK         0.0600 
    152 H152       -0.1291  -19.3689  -40.3111 H         1 UNK         0.0600 
    153 H153        1.1957  -20.3366  -40.9549 H         1 UNK         0.0600 
    154 H154        0.3315  -18.7999  -42.7206 H         1 UNK         0.3000 
    155 H155       -0.7370  -18.3859  -46.1237 H         1 UNK         0.0600 
    156 H156       -0.8390  -16.6345  -43.6142 H         1 UNK         0.0600 
    157 H157       -2.1021  -16.8363  -44.8177 H         1 UNK         0.0600 
    158 H158       -0.6004  -16.0186  -45.2428 H         1 UNK         0.0600 
    159 H159        1.4324  -17.1888  -44.8462 H         1 UNK         0.3000 
    160 H160        3.9124  -19.7372  -45.3424 H         1 UNK         0.0600 
    161 H161        3.3281  -16.9977  -46.5861 H         1 UNK         0.0600 
    162 H162        3.7411  -18.4715  -47.4445 H         1 UNK         0.0600 
    163 H163        4.9346  -17.7043  -46.4075 H         1 UNK         0.0600 
    164 H164        3.7891  -17.1112  -44.0916 H         1 UNK         0.3000 
    165 H165        3.3848  -18.3281  -40.7755 H         1 UNK         0.0600 
    166 H166        5.4862  -17.0619  -40.4117 H         1 UNK         0.0600 
    167 H167        5.8339  -18.5959  -41.1929 H         1 UNK         0.0600 
    168 H168        5.8499  -17.1112  -42.1371 H         1 UNK         0.0600 
    169 H169        3.8183  -15.7125  -41.8621 H         1 UNK         0.3000 
    170 H170        0.4233  -14.9298  -42.5565 H         1 UNK         0.0600 
    171 H171        0.6010  -14.6414  -40.0799 H         1 UNK         0.0600 
    172 H172        2.2240  -13.9849  -40.2658 H         1 UNK         0.0600 
    173 H173        0.8358  -13.1214  -40.9291 H         1 UNK         0.0600 
    174 H174        2.6797  -13.2578  -42.6295 H         1 UNK         0.3000 
    175 H175        4.3802  -13.4368  -44.6433 H         1 UNK         0.0600 
    176 H176        2.5062  -13.8538  -47.0321 H         1 UNK         0.0600 
    177 H177        4.0682  -13.0419  -47.1059 H         1 UNK         0.0600 
    178 H178        3.9870  -14.7429  -46.6876 H         1 UNK         0.0600 
    179 H179        2.2468  -11.7609  -45.7370 H         1 UNK         0.3000 
    180 H180        2.4973   -9.3127  -43.1163 H         1 UNK         0.0600 
    181 H181        2.9843   -9.4119  -46.1427 H         1 UNK         0.0600 
    182 H182        4.1279   -8.8375  -44.9347 H         1 UNK         0.0600 
    183 H183        2.6221   -7.9709  -45.1962 H         1 UNK         0.0600 
    184 H184        0.7609  -10.2268  -45.3645 H         1 UNK         0.3000 
    185 H185       -2.0009  -10.7732  -43.2402 H         1 UNK         0.0600 
    186 H186       -2.2039   -8.3017  -43.5372 H         1 UNK         0.0600 
    187 H187       -1.6605   -8.4419  -45.2048 H         1 UNK         0.0600 
    188 H188       -3.1924   -9.1616  -44.7067 H         1 UNK         0.0600 
    189 H189       -1.6507  -10.7365  -46.1005 H         1 UNK         0.3000 
    190 H190       -2.4283  -21.7032  -45.2809 H         1 UNK         0.3000 
    191 H191       -5.0524  -22.2632  -46.0789 H         1 UNK         0.0600 
    192 H192       -4.4863  -20.8273  -44.1608 H         1 UNK         0.0600 
    193 H193       -5.5421  -22.1248  -43.6263 H         1 UNK         0.0600 
    194 H194       -3.8174  -22.2004  -43.2804 H         1 UNK         0.0600 
    195 H195       -2.6236  -24.4922  -44.7943 H         1 UNK         0.3000 
    196 H196       -4.5842  -26.7004  -44.5158 H         1 UNK         0.0600 
    197 H197       -2.6217  -27.9569  -43.6659 H         1 UNK         0.0600 
    198 H198       -2.8368  -26.4590  -42.7727 H         1 UNK         0.0600 
    199 H199       -1.5678  -26.5859  -43.9880 H         1 UNK         0.0600 
    200 H200       -1.7086  -25.7483  -46.4459 H         1 UNK         0.3000 
    201 H201       -1.5845  -28.1592  -47.9294 H         1 UNK         0.0600 
    202 H202        0.3695  -26.7023  -47.4809 H         1 UNK         0.0600 
    203 H203       -0.3165  -25.4305  -48.4896 H         1 UNK         0.0600 
    204 H204        0.1760  -26.9577  -49.2088 H         1 UNK         0.0600 
    205 H205       -3.0332  -24.9832  -48.7907 H         1 UNK         0.3000 
    206 H206       -4.1087  -26.1478  -51.3302 H         1 UNK         0.0600 
    207 H207       -1.9500  -24.9754  -51.7834 H         1 UNK         0.0600 
    208 H208       -3.2977  -24.0988  -52.4861 H         1 UNK         0.0600 
    209 H209       -2.5671  -23.5210  -50.9984 H         1 UNK         0.0600 
    210 H210       -4.9807  -24.8180  -48.4935 H         1 UNK         0.3000 
    211 H211       -6.7645  -23.8386  -47.6425 H         1 UNK         0.0600 
    212 H212       -8.1490  -23.9300  -50.3646 H         1 UNK         0.0600 
    213 H213       -8.9040  -23.7447  -48.7909 H         1 UNK         0.0600 
    214 H214       -8.1218  -25.2603  -49.2061 H         1 UNK         0.0600 
    215 H215       -4.5688  -22.3480  -48.6107 H         1 UNK         0.3000 
    216 H216       -3.7525  -20.3143  -48.5749 H         1 UNK         0.0600 
    217 H217       -5.0170  -18.3989  -47.6749 H         1 UNK         0.0600 
    218 H218       -5.2418  -19.8291  -46.6814 H         1 UNK         0.0600 
    219 H219       -6.5203  -19.3008  -47.7757 H         1 UNK         0.0600 
    220 H220       -3.0379  -19.9886  -50.5591 H         1 UNK         0.3000 
    221 H221       -2.7817  -19.3972  -52.6644 H         1 UNK         0.0600 
    222 H222       -5.3120  -17.6654  -52.4367 H         1 UNK         0.0600 
    223 H223       -3.6642  -17.1411  -52.1095 H         1 UNK         0.0600 
    224 H224       -4.1244  -17.6153  -53.7325 H         1 UNK         0.0600 
    225 H225       -5.7431  -19.0236  -54.0686 H         1 UNK         0.3000 
    226 H226       -7.1002  -20.2185  -55.3413 H         1 UNK         0.0600 
    227 H227       -8.0868  -20.8564  -53.2039 H         1 UNK         0.0600 
    228 H228       -8.1623  -22.2415  -54.2807 H         1 UNK         0.0600 
    229 H229       -6.9612  -22.1874  -52.9952 H         1 UNK         0.0600 
    230 H230       -5.5996  -23.2086  -54.1716 H         1 UNK         0.3000 
    231 H231       -5.0099  -24.1397  -56.8802 H         1 UNK         0.0600 
    232 H232       -4.4686  -25.3701  -54.1242 H         1 UNK         0.0600 
    233 H233       -4.2188  -26.1781  -55.6668 H         1 UNK         0.0600 
    234 H234       -5.8414  -25.7239  -55.1700 H         1 UNK         0.0600 
    235 H235       -3.2999  -22.4992  -54.2897 H         1 UNK         0.3000 
    236 H236       -0.6322  -22.9086  -55.5502 H         1 UNK         0.0600 
    237 H237       -0.7577  -23.2192  -53.0874 H         1 UNK         0.0600 
    238 H238        0.1834  -21.7925  -53.4694 H         1 UNK         0.0600 
    239 H239       -1.4710  -21.6183  -52.8947 H         1 UNK         0.0600 
    240 H240        0.6788  -20.9812  -55.7909 H         1 UNK         0.3000 
    241 H241        1.1969  -19.2167  -56.9122 H         1 UNK         0.0600 
    242 H242       -1.3985  -17.3461  -59.0434 H         1 UNK         0.3800 
    243 H243       -0.7375  -16.7721  -57.5379 H         1 UNK         0.3800 
    244 H244        0.9433  -18.2148  -54.7062 H         1 UNK         0.0800 
    245 H245        0.7644  -17.0568  -55.9775 H         1 UNK         0.0800 
    246 H246       -1.4525  -15.4216  -53.3985 H         1 UNK         0.0800 
    247 H247        0.2148  -15.7424  -53.7976 H         1 UNK         0.0800 
@<TRIPOS>BOND
     1    1    2 1    
     2    1  127 1    
     3    1  128 1    
     4    1  129 1    
     5    2    3 2    
     6    2    4 am   BACKBONE|DICT|INTERRES
     7    4    5 1    
     8    4  130 1    
     9    5    6 1    
    10    5   65 1    
    11    5  131 1    
    12    6    7 1    
    13    6  132 1    
    14    6  133 1    
    15    7    8 1    
    16    8    9 1    
    17    8  134 1    
    18    8  135 1    
    19    9   10 ar   
    20    9   14 ar   
    21   10   11 ar   
    22   10  136 1    
    23   11   12 ar   
    24   11  126 1    
    25   12   13 ar   
    26   12  137 1    
    27   13   14 ar   
    28   13   15 1    
    29   14  138 1    
    30   15   16 1    
    31   15  139 1    
    32   15  140 1    
    33   16   17 1    
    34   17   18 1    
    35   17  141 1    
    36   17  142 1    
    37   18   19 1    
    38   18   67 1    
    39   18  143 1    
    40   19   20 am   BACKBONE|DICT|INTERRES
    41   19  144 1    
    42   20   21 2    
    43   20   22 1    
    44   22   23 1    
    45   22   24 1    
    46   22  145 1    
    47   23  146 1    
    48   23  147 1    
    49   23  148 1    
    50   24   25 am   BACKBONE|DICT|INTERRES
    51   24  149 1    
    52   25   26 2    
    53   25   27 1    
    54   27   28 1    
    55   27   29 1    
    56   27  150 1    
    57   28  151 1    
    58   28  152 1    
    59   28  153 1    
    60   29   30 am   BACKBONE|DICT|INTERRES
    61   29  154 1    
    62   30   31 2    
    63   30   32 1    
    64   32   33 1    
    65   32   34 1    
    66   32  155 1    
    67   33  156 1    
    68   33  157 1    
    69   33  158 1    
    70   34   35 am   BACKBONE|DICT|INTERRES
    71   34  159 1    
    72   35   36 2    
    73   35   37 1    
    74   37   38 1    
    75   37   39 1    
    76   37  160 1    
    77   38  161 1    
    78   38  162 1    
    79   38  163 1    
    80   39   40 am   BACKBONE|DICT|INTERRES
    81   39  164 1    
    82   40   41 2    
    83   40   42 1    
    84   42   43 1    
    85   42   44 1    
    86   42  165 1    
    87   43  166 1    
    88   43  167 1    
    89   43  168 1    
    90   44   45 am   BACKBONE|DICT|INTERRES
    91   44  169 1    
    92   45   46 2    
    93   45   47 1    
    94   47   48 1    
    95   47   49 1    
    96   47  170 1    
    97   48  171 1    
    98   48  172 1    
    99   48  173 1    
   100   49   50 am   BACKBONE|DICT|INTERRES
   101   49  174 1    
   102   50   51 2    
   103   50   52 1    
   104   52   53 1    
   105   52   54 1    
   106   52  175 1    
   107   53  176 1    
   108   53  177 1    
   109   53  178 1    
   110   54   55 am   BACKBONE|DICT|INTERRES
   111   54  179 1    
   112   55   56 2    
   113   55   57 1    
   114   57   58 1    
   115   57   59 1    
   116   57  180 1    
   117   58  181 1    
   118   58  182 1    
   119   58  183 1    
   120   59   60 am   BACKBONE|DICT|INTERRES
   121   59  184 1    
   122   60   61 2    
   123   60   62 1    
   124   62   63 1    
   125   62   64 1    
   126   62  185 1    
   127   63  186 1    
   128   63  187 1    
   129   63  188 1    
   130   64   65 am   BACKBONE|DICT|INTERRES
   131   64  189 1    
   132   65   66 2    
   133   67   68 2    
   134   67   69 am   BACKBONE|DICT|INTERRES
   135   69   70 1    
   136   69  190 1    
   137   70   71 1    
   138   70   72 1    
   139   70  191 1    
   140   71  192 1    
   141   71  193 1    
   142   71  194 1    
   143   72   73 2    
   144   72   74 am   BACKBONE|DICT|INTERRES
   145   74   75 1    
   146   74  195 1    
   147   75   76 1    
   148   75   77 1    
   149   75  196 1    
   150   76  197 1    
   151   76  198 1    
   152   76  199 1    
   153   77   78 2    
   154   77   79 am   BACKBONE|DICT|INTERRES
   155   79   80 1    
   156   79  200 1    
   157   80   81 1    
   158   80   82 1    
   159   80  201 1    
   160   81  202 1    
   161   81  203 1    
   162   81  204 1    
   163   82   83 2    
   164   82   84 am   BACKBONE|DICT|INTERRES
   165   84   85 1    
   166   84  205 1    
   167   85   86 1    
   168   85   87 1    
   169   85  206 1    
   170   86  207 1    
   171   86  208 1    
   172   86  209 1    
   173   87   88 2    
   174   87   89 am   BACKBONE|DICT|INTERRES
   175   89   90 1    
   176   89  210 1    
   177   90   91 1    
   178   90   92 1    
   179   90  211 1    
   180   91  212 1    
   181   91  213 1    
   182   91  214 1    
   183   92   93 2    
   184   92   94 am   BACKBONE|DICT|INTERRES
   185   94   95 1    
   186   94  215 1    
   187   95   96 1    
   188   95   97 1    
   189   95  216 1    
   190   96  217 1    
   191   96  218 1    
   192   96  219 1    
   193   97   98 2    
   194   97   99 am   BACKBONE|DICT|INTERRES
   195   99  100 1    
   196   99  220 1    
   197  100  101 1    
   198  100  102 1    
   199  100  221 1    
   200  101  222 1    
   201  101  223 1    
   202  101  224 1    
   203  102  103 2    
   204  102  104 am   BACKBONE|DICT|INTERRES
   205  104  105 1    
   206  104  225 1    
   207  105  106 1    
   208  105  107 1    
   209  105  226 1    
   210  106  227 1    
   211  106  228 1    
   212  106  229 1    
   213  107  108 2    
   214  107  109 am   BACKBONE|DICT|INTERRES
   215  109  110 1    
   216  109  230 1    
   217  110  111 1    
   218  110  112 1    
   219  110  231 1    
   220  111  232 1    
   221  111  233 1    
   222  111  234 1    
   223  112  113 2    
   224  112  114 am   BACKBONE|DICT|INTERRES
   225  114  115 1    
   226  114  235 1    
   227  115  116 1    
   228  115  117 1    
   229  115  236 1    
   230  116  237 1    
   231  116  238 1    
   232  116  239 1    
   233  117  118 2    
   234  117  119 am   BACKBONE|DICT|INTERRES
   235  119  120 1    
   236  119  240 1    
   237  120  121 1    
   238  120  124 1    
   239  120  241 1    
   240  121  122 am   BACKBONE|DICT|INTERRES
   241  121  123 2    
   242  122  242 1    
   243  122  243 1    
   244  124  125 1    
   245  124  244 1    
   246  124  245 1    
   247  125  126 1    
   248  126  246 1    
   249  126  247 1    
@<TRIPOS>SUBSTRUCTURE
     1 UNK         1 GROUP             0       ****    0 ROOT    
