@<TRIPOS>MOLECULE
3R540
247   249    1
SMALL
USER_CHARGES


@<TRIPOS>ATOM
      1 CA          3.2896  -16.1237  -52.5075 C.3       0 UNK        -0.1800 
      2 C           4.0915  -14.8661  -52.2097 C.2       0 UNK         0.5000 
      3 O           4.6459  -14.2622  -53.1279 O.2       0 UNK        -0.5000 
      4 N           4.1625  -14.4891  -50.9266 N.am      1 UNK        -0.5000 
      5 CA          4.8923  -13.3257  -50.4048 C.3       1 UNK         0.1400 
      6 C6          4.8752  -13.2339  -48.8580 C.3       23 UNK        -0.0398 
      7 S7          5.5692  -14.7113  -48.0447 S.3       23 UNK        -0.2404 
      8 C8          4.1193  -15.3910  -47.1763 C.3       23 UNK        -0.0205 
      9 C9          3.2326  -16.2169  -48.0953 C.ar      23 UNK        -0.0193 
     10 C10         2.0742  -15.6657  -48.6450 C.ar      23 UNK        -0.1150 
     11 C11         1.2432  -16.4209  -49.4810 C.ar      23 UNK        -0.0193 
     12 C12         1.5915  -17.7471  -49.7642 C.ar      23 UNK        -0.1150 
     13 C13         2.7567  -18.3088  -49.2297 C.ar      23 UNK        -0.0193 
     14 C14         3.5677  -17.5395  -48.3912 C.ar      23 UNK        -0.1150 
     15 C15         3.1800  -19.7253  -49.5919 C.3       23 UNK        -0.0205 
     16 S16         2.7827  -20.9248  -48.2813 S.3       23 UNK        -0.2404 
     17 C17         1.0417  -21.2999  -48.6602 C.3       23 UNK        -0.0398 
     18 CA          0.5447  -22.6048  -47.9937 C.3       11 UNK         0.1400 
     19 N           0.6442  -22.5841  -46.5298 N.am      11 UNK        -0.5000 
     20 C           0.3867  -23.6327  -45.7336 C.2       10 UNK         0.5000 
     21 O           0.0910  -24.7527  -46.1499 O.2       10 UNK        -0.5000 
     22 CA          0.4090  -23.3782  -44.2176 C.3       10 UNK         0.1400 
     23 CB          1.8367  -23.4754  -43.6590 C.3       10 UNK        -0.1800 
     24 N          -0.1749  -22.0800  -43.8822 N.am      10 UNK        -0.5000 
     25 C          -1.4889  -21.8161  -43.9225 C.2       9 UNK         0.5000 
     26 O          -2.3445  -22.6558  -44.2018 O.2       9 UNK        -0.5000 
     27 CA         -1.9166  -20.3609  -43.6496 C.3       9 UNK         0.1400 
     28 CB         -2.0374  -20.1033  -42.1406 C.3       9 UNK        -0.1800 
     29 N          -1.0063  -19.3788  -44.2402 N.am      9 UNK        -0.5000 
     30 C          -0.7941  -19.2524  -45.5588 C.2       8 UNK         0.5000 
     31 O          -1.3817  -19.9186  -46.4072 O.2       8 UNK        -0.5000 
     32 CA          0.2801  -18.2501  -46.0090 C.3       8 UNK         0.1400 
     33 CB         -0.3471  -16.8606  -46.1484 C.3       8 UNK        -0.1800 
     34 N           1.4302  -18.1639  -45.1110 N.am      8 UNK        -0.5000 
     35 C           2.1918  -19.1750  -44.6755 C.2       7 UNK         0.5000 
     36 O           2.0072  -20.3480  -44.9978 O.2       7 UNK        -0.5000 
     37 CA          3.3027  -18.8468  -43.6552 C.3       7 UNK         0.1400 
     38 CB          4.6618  -18.6466  -44.3482 C.3       7 UNK        -0.1800 
     39 N           2.9808  -17.7400  -42.7397 N.am      7 UNK        -0.5000 
     40 C           2.8008  -16.4403  -43.0153 C.2       6 UNK         0.5000 
     41 O           2.9688  -15.9393  -44.1268 O.2       6 UNK        -0.5000 
     42 CA          2.2403  -15.5768  -41.8721 C.3       6 UNK         0.1400 
     43 CB          2.9792  -14.2322  -41.7717 C.3       6 UNK        -0.1800 
     44 N           0.8089  -15.3154  -42.0382 N.am      6 UNK        -0.5000 
     45 C          -0.1741  -16.2205  -42.1292 C.2       5 UNK         0.5000 
     46 O           0.0057  -17.4391  -42.1252 O.2       5 UNK        -0.5000 
     47 CA         -1.6145  -15.6830  -42.2329 C.3       5 UNK         0.1400 
     48 CB         -2.0853  -15.0843  -40.8939 C.3       5 UNK        -0.1800 
     49 N          -1.8582  -14.7586  -43.3475 N.am      5 UNK        -0.5000 
     50 C          -1.3543  -13.5359  -43.5658 C.2       4 UNK         0.5000 
     51 O          -0.5463  -12.9685  -42.8258 O.2       4 UNK        -0.5000 
     52 CA         -1.9054  -12.8102  -44.8076 C.3       4 UNK         0.1400 
     53 CB         -3.1416  -11.9763  -44.4373 C.3       4 UNK        -0.1800 
     54 N          -0.9243  -11.9400  -45.4540 N.am      4 UNK        -0.5000 
     55 C           0.1600  -12.3844  -46.0968 C.2       3 UNK         0.5000 
     56 O           0.4929  -13.5685  -46.1522 O.2       3 UNK        -0.5000 
     57 CA          1.0046  -11.3451  -46.8395 C.3       3 UNK         0.1400 
     58 CB          2.3004  -11.0339  -46.0676 C.3       3 UNK        -0.1800 
     59 N           1.3089  -11.9166  -48.1454 N.am      3 UNK        -0.5000 
     60 C           1.7616  -11.2567  -49.2130 C.2       2 UNK         0.5000 
     61 O           1.9642  -10.0406  -49.2363 O.2       2 UNK        -0.5000 
     62 CA          2.0380  -12.1040  -50.4670 C.3       2 UNK         0.1400 
     63 CB          0.8442  -12.0511  -51.4307 C.3       2 UNK        -0.1800 
     64 N           3.2186  -11.5789  -51.1517 N.am      2 UNK        -0.5000 
     65 C           4.4988  -11.9750  -51.0608 C.2       1 UNK         0.5000 
     66 O           5.3977  -11.2794  -51.5322 O.2       1 UNK        -0.5000 
     67 C          -0.8900  -22.9299  -48.4557 C.2       11 UNK         0.5000 
     68 O          -1.0720  -23.8062  -49.3004 O.2       11 UNK        -0.5000 
     69 N          -1.8813  -22.2521  -47.8606 N.am      12 UNK        -0.5000 
     70 CA         -3.3051  -22.4731  -48.0993 C.3       12 UNK         0.1400 
     71 CB         -4.1256  -21.4012  -47.3704 C.3       12 UNK        -0.1800 
     72 C          -3.7623  -23.8802  -47.6865 C.2       12 UNK         0.5000 
     73 O          -4.5196  -24.5014  -48.4289 O.2       12 UNK        -0.5000 
     74 N          -3.2743  -24.3764  -46.5396 N.am      13 UNK        -0.5000 
     75 CA         -3.5348  -25.7337  -46.0564 C.3       13 UNK         0.1400 
     76 CB         -2.9881  -25.9009  -44.6312 C.3       13 UNK        -0.1800 
     77 C          -2.9680  -26.8143  -46.9949 C.2       13 UNK         0.5000 
     78 O          -3.6777  -27.7688  -47.3132 O.2       13 UNK        -0.5000 
     79 N          -1.7268  -26.6214  -47.4650 N.am      14 UNK        -0.5000 
     80 CA         -1.0628  -27.4865  -48.4447 C.3       14 UNK         0.1400 
     81 CB          0.4060  -27.0609  -48.5901 C.3       14 UNK        -0.1800 
     82 C          -1.7683  -27.4955  -49.8154 C.2       14 UNK         0.5000 
     83 O          -1.8440  -28.5442  -50.4561 O.2       14 UNK        -0.5000 
     84 N          -2.3068  -26.3375  -50.2170 N.am      15 UNK        -0.5000 
     85 CA         -3.1159  -26.1485  -51.4216 C.3       15 UNK         0.1400 
     86 CB         -3.0337  -24.6704  -51.8329 C.3       15 UNK        -0.1800 
     87 C          -4.5887  -26.5833  -51.2572 C.2       15 UNK         0.5000 
     88 O          -5.3571  -26.4439  -52.2090 O.2       15 UNK        -0.5000 
     89 N          -4.9775  -27.0620  -50.0642 N.am      16 UNK        -0.5000 
     90 CA         -6.3284  -27.4855  -49.6712 C.3       16 UNK         0.1400 
     91 CB         -6.7162  -28.7880  -50.4010 C.3       16 UNK        -0.1800 
     92 C          -7.3886  -26.3711  -49.8270 C.2       16 UNK         0.5000 
     93 O          -8.5383  -26.6509  -50.1703 O.2       16 UNK        -0.5000 
     94 N          -6.9612  -25.1214  -49.5953 N.am      17 UNK        -0.5000 
     95 CA         -7.6947  -23.8597  -49.7327 C.3       17 UNK         0.1400 
     96 CB         -8.8703  -23.7968  -48.7366 C.3       17 UNK        -0.1800 
     97 C          -8.1260  -23.5142  -51.1759 C.2       17 UNK         0.5000 
     98 O          -8.8942  -22.5688  -51.3606 O.2       17 UNK        -0.5000 
     99 N          -7.6200  -24.2467  -52.1796 N.am      18 UNK        -0.5000 
    100 CA        -7.9018  -24.0067  -53.5980 C.3       18 UNK         0.1400 
    101 CB        -7.6694  -25.3065  -54.3835 C.3       18 UNK        -0.1800 
    102 C         -7.0558  -22.8617  -54.1885 C.2       18 UNK         0.5000 
    103 O         -7.4030  -22.3353  -55.2467 O.2       18 UNK        -0.5000 
    104 N         -5.9667  -22.4993  -53.5034 N.am      19 UNK        -0.5000 
    105 CA        -5.0270  -21.4442  -53.8572 C.3       19 UNK         0.1400 
    106 CB        -4.0615  -21.9512  -54.9466 C.3       19 UNK        -0.1800 
    107 C         -4.2708  -21.0204  -52.5883 C.2       19 UNK         0.5000 
    108 O         -4.4501  -21.6346  -51.5340 O.2       19 UNK        -0.5000 
    109 N         -3.4382  -19.9784  -52.7201 N.am      20 UNK        -0.5000 
    110 CA        -2.4773  -19.4621  -51.7325 C.3       20 UNK         0.1400 
    111 CB        -1.4163  -20.5280  -51.4006 C.3       20 UNK        -0.1800 
    112 C         -3.0836  -18.8452  -50.4534 C.2       20 UNK         0.5000 
    113 O         -2.3326  -18.4348  -49.5684 O.2       20 UNK        -0.5000 
    114 N         -4.4148  -18.7324  -50.3845 N.am      21 UNK        -0.5000 
    115 CA        -5.1615  -18.1142  -49.2904 C.3       21 UNK         0.1400 
    116 CB        -6.5726  -18.7285  -49.2531 C.3       21 UNK        -0.1800 
    117 C         -5.1728  -16.5778  -49.4257 C.2       21 UNK         0.5000 
    118 O         -6.2344  -15.9760  -49.5968 O.2       21 UNK        -0.5000 
    119 N         -3.9799  -15.9733  -49.3754 N.am      22 UNK        -0.5000 
    120 CA        -3.7572  -14.5228  -49.4936 C.3       22 UNK         0.1400 
    121 C         -4.1131  -13.6866  -48.2257 C.2       22 UNK         0.5000 
    122 N         -4.5012  -14.2935  -47.1101 N.am      22 UNK        -0.7600 
    123 O         -4.0605  -12.4605  -48.2630 O.2       22 UNK        -0.5000 
    124 C124       -2.3432  -14.2003  -50.0443 C.3       23 UNK        -0.0398 
    125 S125       -0.9784  -14.7792  -48.9781 S.3       23 UNK        -0.2404 
    126 C126        0.0029  -15.8028  -50.1252 C.3       23 UNK        -0.0205 
    127 H127        3.4753  -16.8888  -51.7543 H         1 UNK         0.0600 
    128 H128        2.2234  -15.8993  -52.5233 H         1 UNK         0.0600 
    129 H129        3.5666  -16.5367  -53.4776 H         1 UNK         0.0600 
    130 H130        3.7199  -15.0688  -50.2265 H         1 UNK         0.3000 
    131 H131        5.9332  -13.4964  -50.6885 H         1 UNK         0.0600 
    132 H132        5.4670  -12.3785  -48.5269 H         1 UNK         0.0800 
    133 H133        3.8701  -13.0614  -48.4808 H         1 UNK         0.0800 
    134 H134        4.4782  -16.0216  -46.3653 H         1 UNK         0.0800 
    135 H135        3.5493  -14.5930  -46.6969 H         1 UNK         0.0800 
    136 H136        1.8126  -14.6486  -48.4036 H         1 UNK         0.1150 
    137 H137        0.9679  -18.3356  -50.4215 H         1 UNK         0.1150 
    138 H138        4.4681  -17.9691  -47.9746 H         1 UNK         0.1150 
    139 H139        2.7309  -20.0341  -50.5369 H         1 UNK         0.0800 
    140 H140        4.2582  -19.7414  -49.7571 H         1 UNK         0.0800 
    141 H141        0.9570  -21.3960  -49.7432 H         1 UNK         0.0800 
    142 H142        0.4247  -20.4477  -48.3738 H         1 UNK         0.0800 
    143 H143        1.1833  -23.4191  -48.3429 H         1 UNK         0.0600 
    144 H144        0.9366  -21.7105  -46.1043 H         1 UNK         0.3000 
    145 H145       -0.1886  -24.1565  -43.7383 H         1 UNK         0.0600 
    146 H146        1.8515  -23.3076  -42.5820 H         1 UNK         0.0600 
    147 H147        2.2547  -24.4665  -43.8393 H         1 UNK         0.0600 
    148 H148        2.5079  -22.7518  -44.1212 H         1 UNK         0.0600 
    149 H149        0.4734  -21.3159  -43.7454 H         1 UNK         0.3000 
    150 H150       -2.9011  -20.2170  -44.0995 H         1 UNK         0.0600 
    151 H151       -2.7135  -20.8208  -41.6739 H         1 UNK         0.0600 
    152 H152       -2.4330  -19.1075  -41.9413 H         1 UNK         0.0600 
    153 H153       -1.0718  -20.1854  -41.6398 H         1 UNK         0.0600 
    154 H154       -0.4872  -18.7889  -43.5979 H         1 UNK         0.3000 
    155 H155        0.6513  -18.5622  -46.9858 H         1 UNK         0.0600 
    156 H156        0.3783  -16.1435  -46.5263 H         1 UNK         0.0600 
    157 H157       -0.7157  -16.4865  -45.1949 H         1 UNK         0.0600 
    158 H158       -1.1852  -16.8788  -46.8461 H         1 UNK         0.0600 
    159 H159        1.7064  -17.2312  -44.8219 H         1 UNK         0.3000 
    160 H160        3.3950  -19.7281  -43.0187 H         1 UNK         0.0600 
    161 H161        4.6505  -17.7992  -45.0297 H         1 UNK         0.0600 
    162 H162        4.9303  -19.5268  -44.9338 H         1 UNK         0.0600 
    163 H163        5.4565  -18.4833  -43.6205 H         1 UNK         0.0600 
    164 H164        2.7375  -18.0396  -41.8055 H         1 UNK         0.3000 
    165 H165        2.3768  -16.1092  -40.9289 H         1 UNK         0.0600 
    166 H166        2.8248  -13.6207  -42.6621 H         1 UNK         0.0600 
    167 H167        2.6382  -13.6585  -40.9099 H         1 UNK         0.0600 
    168 H168        4.0534  -14.3837  -41.6583 H         1 UNK         0.0600 
    169 H169        0.5365  -14.3410  -42.1387 H         1 UNK         0.3000 
    170 H170       -2.2485  -16.5479  -42.4345 H         1 UNK         0.0600 
    171 H171       -1.5114  -14.2005  -40.6143 H         1 UNK         0.0600 
    172 H172       -1.9797  -15.8093  -40.0859 H         1 UNK         0.0600 
    173 H173       -3.1365  -14.7995  -40.9387 H         1 UNK         0.0600 
    174 H174       -2.5075  -15.1119  -44.0357 H         1 UNK         0.3000 
    175 H175       -2.2047  -13.5629  -45.5404 H         1 UNK         0.0600 
    176 H176       -3.5862  -11.5168  -45.3206 H         1 UNK         0.0600 
    177 H177       -3.9098  -12.5966  -43.9737 H         1 UNK         0.0600 
    178 H178       -2.8933  -11.1816  -43.7326 H         1 UNK         0.0600 
    179 H179       -1.1134  -10.9492  -45.4247 H         1 UNK         0.3000 
    180 H180        0.4240  -10.4299  -46.9732 H         1 UNK         0.0600 
    181 H181        2.9160  -11.9258  -45.9426 H         1 UNK         0.0600 
    182 H182        2.0765  -10.6473  -45.0727 H         1 UNK         0.0600 
    183 H183        2.9004  -10.2820  -46.5800 H         1 UNK         0.0600 
    184 H184        1.0945  -12.9045  -48.2003 H         1 UNK         0.3000 
    185 H185        2.1731  -13.1400  -50.1692 H         1 UNK         0.0600 
    186 H186        1.0227  -12.6698  -52.3104 H         1 UNK         0.0600 
    187 H187       -0.0606  -12.4226  -50.9508 H         1 UNK         0.0600 
    188 H188        0.6418  -11.0344  -51.7700 H         1 UNK         0.0600 
    189 H189        3.0572  -10.6849  -51.5916 H         1 UNK         0.3000 
    190 H190       -1.6475  -21.5018  -47.2117 H         1 UNK         0.3000 
    191 H191       -3.4811  -22.3652  -49.1705 H         1 UNK         0.0600 
    192 H192       -3.8279  -20.4037  -47.6897 H         1 UNK         0.0600 
    193 H193       -5.1897  -21.5107  -47.5825 H         1 UNK         0.0600 
    194 H194       -3.9933  -21.4574  -46.2893 H         1 UNK         0.0600 
    195 H195       -2.6930  -23.7871  -45.9543 H         1 UNK         0.3000 
    196 H196       -4.6180  -25.8671  -46.0173 H         1 UNK         0.0600 
    197 H197       -3.1919  -26.9023  -44.2502 H         1 UNK         0.0600 
    198 H198       -3.4529  -25.1925  -43.9455 H         1 UNK         0.0600 
    199 H199       -1.9099  -25.7482  -44.5907 H         1 UNK         0.0600 
    200 H200       -1.1915  -25.8265  -47.1252 H         1 UNK         0.3000 
    201 H201       -1.0840  -28.5065  -48.0558 H         1 UNK         0.0600 
    202 H202        0.9312  -27.1275  -47.6372 H         1 UNK         0.0600 
    203 H203        0.4945  -26.0349  -48.9483 H         1 UNK         0.0600 
    204 H204        0.9315  -27.7034  -49.2976 H         1 UNK         0.0600 
    205 H205       -2.1376  -25.5073  -49.6575 H         1 UNK         0.3000 
    206 H206       -2.6919  -26.7487  -52.2289 H         1 UNK         0.0600 
    207 H207       -2.0034  -24.3665  -52.0187 H         1 UNK         0.0600 
    208 H208       -3.5985  -24.4782  -52.7455 H         1 UNK         0.0600 
    209 H209       -3.4352  -24.0230  -51.0536 H         1 UNK         0.0600 
    210 H210       -4.2850  -27.1048  -49.3268 H         1 UNK         0.3000 
    211 H211       -6.2782  -27.7064  -48.6043 H         1 UNK         0.0600 
    212 H212       -6.8404  -28.6296  -51.4728 H         1 UNK         0.0600 
    213 H213       -7.6559  -29.1873  -50.0180 H         1 UNK         0.0600 
    214 H214       -5.9574  -29.5579  -50.2613 H         1 UNK         0.0600 
    215 H215       -5.9946  -25.0102  -49.2880 H         1 UNK         0.3000 
    216 H216       -6.9853  -23.0813  -49.4472 H         1 UNK         0.0600 
    217 H217       -8.5391  -24.0188  -47.7222 H         1 UNK         0.0600 
    218 H218       -9.6594  -24.5032  -48.9954 H         1 UNK         0.0600 
    219 H219       -9.3170  -22.8021  -48.7190 H         1 UNK         0.0600 
    220 H220       -6.9880  -25.0103  -51.9671 H         1 UNK         0.3000 
    221 H221       -8.9532  -23.7323  -53.7070 H         1 UNK         0.0600 
    222 H222       -6.6181  -25.5955  -54.3825 H         1 UNK         0.0600 
    223 H223       -8.2458  -26.1316  -53.9647 H         1 UNK         0.0600 
    224 H224       -7.9738  -25.1913  -55.4245 H         1 UNK         0.0600 
    225 H225       -5.7777  -22.9328  -52.6083 H         1 UNK         0.3000 
    226 H226       -5.5813  -20.5792  -54.2267 H         1 UNK         0.0600 
    227 H227       -4.6001  -22.2649  -55.8408 H         1 UNK         0.0600 
    228 H228       -3.3624  -21.1727  -55.2532 H         1 UNK         0.0600 
    229 H229       -3.4738  -22.8007  -54.5971 H         1 UNK         0.0600 
    230 H230       -3.3987  -19.5226  -53.6214 H         1 UNK         0.3000 
    231 H231       -1.9608  -18.6395  -52.2292 H         1 UNK         0.0600 
    232 H232       -0.6324  -20.1044  -50.7751 H         1 UNK         0.0600 
    233 H233       -0.9399  -20.9090  -52.3038 H         1 UNK         0.0600 
    234 H234       -1.8451  -21.3743  -50.8645 H         1 UNK         0.0600 
    235 H235       -4.9574  -19.0825  -51.1592 H         1 UNK         0.3000 
    236 H236       -4.6734  -18.3467  -48.3423 H         1 UNK         0.0600 
    237 H237       -7.1562  -18.3186  -48.4279 H         1 UNK         0.0600 
    238 H238       -7.1225  -18.5348  -50.1749 H         1 UNK         0.0600 
    239 H239       -6.5272  -19.8088  -49.1127 H         1 UNK         0.0600 
    240 H240       -3.1537  -16.5477  -49.2443 H         1 UNK         0.3000 
    241 H241       -4.4566  -14.1654  -50.2519 H         1 UNK         0.0600 
    242 H242       -4.5698  -15.2967  -47.0731 H         1 UNK         0.3800 
    243 H243       -4.7735  -13.7375  -46.3166 H         1 UNK         0.3800 
    244 H244       -2.2355  -14.6405  -51.0364 H         1 UNK         0.0800 
    245 H245       -2.2318  -13.1250  -50.1907 H         1 UNK         0.0800 
    246 H246        0.3192  -15.1884  -50.9686 H         1 UNK         0.0800 
    247 H247       -0.6404  -16.5841  -50.5308 H         1 UNK         0.0800 
@<TRIPOS>BOND
     1    1    2 1    
     2    1  127 1    
     3    1  128 1    
     4    1  129 1    
     5    2    3 2    
     6    2    4 am   BACKBONE|DICT|INTERRES
     7    4    5 1    
     8    4  130 1    
     9    5    6 1    
    10    5   65 1    
    11    5  131 1    
    12    6    7 1    
    13    6  132 1    
    14    6  133 1    
    15    7    8 1    
    16    8    9 1    
    17    8  134 1    
    18    8  135 1    
    19    9   10 ar   
    20    9   14 ar   
    21   10   11 ar   
    22   10  136 1    
    23   11   12 ar   
    24   11  126 1    
    25   12   13 ar   
    26   12  137 1    
    27   13   14 ar   
    28   13   15 1    
    29   14  138 1    
    30   15   16 1    
    31   15  139 1    
    32   15  140 1    
    33   16   17 1    
    34   17   18 1    
    35   17  141 1    
    36   17  142 1    
    37   18   19 1    
    38   18   67 1    
    39   18  143 1    
    40   19   20 am   BACKBONE|DICT|INTERRES
    41   19  144 1    
    42   20   21 2    
    43   20   22 1    
    44   22   23 1    
    45   22   24 1    
    46   22  145 1    
    47   23  146 1    
    48   23  147 1    
    49   23  148 1    
    50   24   25 am   BACKBONE|DICT|INTERRES
    51   24  149 1    
    52   25   26 2    
    53   25   27 1    
    54   27   28 1    
    55   27   29 1    
    56   27  150 1    
    57   28  151 1    
    58   28  152 1    
    59   28  153 1    
    60   29   30 am   BACKBONE|DICT|INTERRES
    61   29  154 1    
    62   30   31 2    
    63   30   32 1    
    64   32   33 1    
    65   32   34 1    
    66   32  155 1    
    67   33  156 1    
    68   33  157 1    
    69   33  158 1    
    70   34   35 am   BACKBONE|DICT|INTERRES
    71   34  159 1    
    72   35   36 2    
    73   35   37 1    
    74   37   38 1    
    75   37   39 1    
    76   37  160 1    
    77   38  161 1    
    78   38  162 1    
    79   38  163 1    
    80   39   40 am   BACKBONE|DICT|INTERRES
    81   39  164 1    
    82   40   41 2    
    83   40   42 1    
    84   42   43 1    
    85   42   44 1    
    86   42  165 1    
    87   43  166 1    
    88   43  167 1    
    89   43  168 1    
    90   44   45 am   BACKBONE|DICT|INTERRES
    91   44  169 1    
    92   45   46 2    
    93   45   47 1    
    94   47   48 1    
    95   47   49 1    
    96   47  170 1    
    97   48  171 1    
    98   48  172 1    
    99   48  173 1    
   100   49   50 am   BACKBONE|DICT|INTERRES
   101   49  174 1    
   102   50   51 2    
   103   50   52 1    
   104   52   53 1    
   105   52   54 1    
   106   52  175 1    
   107   53  176 1    
   108   53  177 1    
   109   53  178 1    
   110   54   55 am   BACKBONE|DICT|INTERRES
   111   54  179 1    
   112   55   56 2    
   113   55   57 1    
   114   57   58 1    
   115   57   59 1    
   116   57  180 1    
   117   58  181 1    
   118   58  182 1    
   119   58  183 1    
   120   59   60 am   BACKBONE|DICT|INTERRES
   121   59  184 1    
   122   60   61 2    
   123   60   62 1    
   124   62   63 1    
   125   62   64 1    
   126   62  185 1    
   127   63  186 1    
   128   63  187 1    
   129   63  188 1    
   130   64   65 am   BACKBONE|DICT|INTERRES
   131   64  189 1    
   132   65   66 2    
   133   67   68 2    
   134   67   69 am   BACKBONE|DICT|INTERRES
   135   69   70 1    
   136   69  190 1    
   137   70   71 1    
   138   70   72 1    
   139   70  191 1    
   140   71  192 1    
   141   71  193 1    
   142   71  194 1    
   143   72   73 2    
   144   72   74 am   BACKBONE|DICT|INTERRES
   145   74   75 1    
   146   74  195 1    
   147   75   76 1    
   148   75   77 1    
   149   75  196 1    
   150   76  197 1    
   151   76  198 1    
   152   76  199 1    
   153   77   78 2    
   154   77   79 am   BACKBONE|DICT|INTERRES
   155   79   80 1    
   156   79  200 1    
   157   80   81 1    
   158   80   82 1    
   159   80  201 1    
   160   81  202 1    
   161   81  203 1    
   162   81  204 1    
   163   82   83 2    
   164   82   84 am   BACKBONE|DICT|INTERRES
   165   84   85 1    
   166   84  205 1    
   167   85   86 1    
   168   85   87 1    
   169   85  206 1    
   170   86  207 1    
   171   86  208 1    
   172   86  209 1    
   173   87   88 2    
   174   87   89 am   BACKBONE|DICT|INTERRES
   175   89   90 1    
   176   89  210 1    
   177   90   91 1    
   178   90   92 1    
   179   90  211 1    
   180   91  212 1    
   181   91  213 1    
   182   91  214 1    
   183   92   93 2    
   184   92   94 am   BACKBONE|DICT|INTERRES
   185   94   95 1    
   186   94  215 1    
   187   95   96 1    
   188   95   97 1    
   189   95  216 1    
   190   96  217 1    
   191   96  218 1    
   192   96  219 1    
   193   97   98 2    
   194   97   99 am   BACKBONE|DICT|INTERRES
   195   99  100 1    
   196   99  220 1    
   197  100  101 1    
   198  100  102 1    
   199  100  221 1    
   200  101  222 1    
   201  101  223 1    
   202  101  224 1    
   203  102  103 2    
   204  102  104 am   BACKBONE|DICT|INTERRES
   205  104  105 1    
   206  104  225 1    
   207  105  106 1    
   208  105  107 1    
   209  105  226 1    
   210  106  227 1    
   211  106  228 1    
   212  106  229 1    
   213  107  108 2    
   214  107  109 am   BACKBONE|DICT|INTERRES
   215  109  110 1    
   216  109  230 1    
   217  110  111 1    
   218  110  112 1    
   219  110  231 1    
   220  111  232 1    
   221  111  233 1    
   222  111  234 1    
   223  112  113 2    
   224  112  114 am   BACKBONE|DICT|INTERRES
   225  114  115 1    
   226  114  235 1    
   227  115  116 1    
   228  115  117 1    
   229  115  236 1    
   230  116  237 1    
   231  116  238 1    
   232  116  239 1    
   233  117  118 2    
   234  117  119 am   BACKBONE|DICT|INTERRES
   235  119  120 1    
   236  119  240 1    
   237  120  121 1    
   238  120  124 1    
   239  120  241 1    
   240  121  122 am   BACKBONE|DICT|INTERRES
   241  121  123 2    
   242  122  242 1    
   243  122  243 1    
   244  124  125 1    
   245  124  244 1    
   246  124  245 1    
   247  125  126 1    
   248  126  246 1    
   249  126  247 1    
@<TRIPOS>SUBSTRUCTURE
     1 UNK         1 GROUP             0       ****    0 ROOT    
