@<TRIPOS>MOLECULE
3R540
247   249    1
SMALL
USER_CHARGES


@<TRIPOS>ATOM
      1 CA          2.9369  -15.6483  -47.7593 C.3       0 UNK        -0.1800 
      2 C           2.3300  -15.4949  -49.1519 C.2       0 UNK         0.5000 
      3 O           3.0351  -15.6822  -50.1398 O.2       0 UNK        -0.5000 
      4 N           1.0371  -15.1628  -49.2834 N.am      1 UNK        -0.5000 
      5 CA          0.1082  -14.7922  -48.2047 C.3       1 UNK         0.1400 
      6 C6         -1.3760  -15.0070  -48.6151 C.3       23 UNK        -0.0398 
      7 S7         -2.0147  -16.6143  -48.0303 S.3       23 UNK        -0.2404 
      8 C8         -2.2935  -17.5428  -49.5765 C.3       23 UNK        -0.0205 
      9 C9         -1.0157  -17.9039  -50.3262 C.ar      23 UNK        -0.0193 
     10 C10        -0.9749  -17.7860  -51.7182 C.ar      23 UNK        -0.1150 
     11 C11         0.1848  -18.1116  -52.4280 C.ar      23 UNK        -0.0193 
     12 C12         1.3091  -18.5674  -51.7350 C.ar      23 UNK        -0.1150 
     13 C13         1.2828  -18.6981  -50.3435 C.ar      23 UNK        -0.0193 
     14 C14         0.1134  -18.3750  -49.6478 C.ar      23 UNK        -0.1150 
     15 C15         2.5375  -19.1348  -49.5994 C.3       23 UNK        -0.0205 
     16 S16         2.4475  -20.8574  -49.0278 S.3       23 UNK        -0.2404 
     17 C17         1.8316  -20.6281  -47.3251 C.3       23 UNK        -0.0398 
     18 CA          1.0212  -21.8342  -46.8054 C.3       11 UNK         0.1400 
     19 N           0.8811  -21.7910  -45.3504 N.am      11 UNK        -0.5000 
     20 C           0.4634  -22.8169  -44.5981 C.2       10 UNK         0.5000 
     21 O           0.1736  -23.9251  -45.0504 O.2       10 UNK        -0.5000 
     22 CA          0.3044  -22.5426  -43.0924 C.3       10 UNK         0.1400 
     23 CB          1.6680  -22.5685  -42.3861 C.3       10 UNK        -0.1800 
     24 N          -0.3686  -21.2707  -42.8220 N.am      10 UNK        -0.5000 
     25 C          -1.6317  -20.9985  -43.1809 C.2       9 UNK         0.5000 
     26 O          -2.3687  -21.8039  -43.7485 O.2       9 UNK        -0.5000 
     27 CA         -2.1538  -19.5809  -42.8927 C.3       9 UNK         0.1400 
     28 CB         -2.5703  -19.4487  -41.4205 C.3       9 UNK        -0.1800 
     29 N          -1.1946  -18.5302  -43.2368 N.am      9 UNK        -0.5000 
     30 C          -0.7233  -18.3035  -44.4722 C.2       8 UNK         0.5000 
     31 O          -1.0382  -18.9655  -45.4584 O.2       8 UNK        -0.5000 
     32 CA          0.3289  -17.1935  -44.6261 C.3       8 UNK         0.1400 
     33 CB         -0.3053  -15.8005  -44.5011 C.3       8 UNK        -0.1800 
     34 N           1.4131  -17.3236  -43.6576 N.am      8 UNK        -0.5000 
     35 C           2.2248  -18.3840  -43.5461 C.2       7 UNK         0.5000 
     36 O           2.1881  -19.3647  -44.2902 O.2       7 UNK        -0.5000 
     37 CA          3.2075  -18.3609  -42.3651 C.3       7 UNK         0.1400 
     38 CB          4.4194  -17.4682  -42.6759 C.3       7 UNK        -0.1800 
     39 N           2.5627  -17.9060  -41.1328 N.am      7 UNK        -0.5000 
     40 C           1.6182  -18.5919  -40.4730 C.2       6 UNK         0.5000 
     41 O           1.2021  -19.6969  -40.8214 O.2       6 UNK        -0.5000 
     42 CA          1.0126  -17.9080  -39.2342 C.3       6 UNK         0.1400 
     43 CB          1.9353  -18.0701  -38.0169 C.3       6 UNK        -0.1800 
     44 N           0.7396  -16.4867  -39.4532 N.am      6 UNK        -0.5000 
     45 C          -0.1880  -16.0217  -40.3012 C.2       5 UNK         0.5000 
     46 O          -0.9168  -16.7422  -40.9810 O.2       5 UNK        -0.5000 
     47 CA         -0.2934  -14.4935  -40.4466 C.3       5 UNK         0.1400 
     48 CB         -1.1754  -13.9053  -39.3351 C.3       5 UNK        -0.1800 
     49 N           0.9980  -13.8002  -40.4619 N.am      5 UNK        -0.5000 
     50 C           1.9813  -14.0307  -41.3413 C.2       4 UNK         0.5000 
     51 O           1.9679  -14.9474  -42.1661 O.2       4 UNK        -0.5000 
     52 CA          3.1987  -13.0909  -41.2752 C.3       4 UNK         0.1400 
     53 CB          4.3079  -13.7201  -40.4184 C.3       4 UNK        -0.1800 
     54 N           3.7297  -12.8093  -42.6099 N.am      4 UNK        -0.5000 
     55 C           3.0586  -12.1803  -43.5846 C.2       3 UNK         0.5000 
     56 O           1.9563  -11.6497  -43.4201 O.2       3 UNK        -0.5000 
     57 CA          3.7243  -12.1399  -44.9719 C.3       3 UNK         0.1400 
     58 CB          4.5246  -13.4211  -45.2929 C.3       3 UNK        -0.1800 
     59 N           2.6918  -11.9221  -45.9825 N.am      3 UNK        -0.5000 
     60 C           2.8667  -11.3546  -47.1793 C.2       2 UNK         0.5000 
     61 O           3.9622  -10.9772  -47.5994 O.2       2 UNK        -0.5000 
     62 CA          1.6054  -11.2258  -48.0608 C.3       2 UNK         0.1400 
     63 CB          1.8507  -10.3945  -49.3330 C.3       2 UNK        -0.1800 
     64 N           1.1152  -12.5474  -48.4530 N.am      2 UNK        -0.5000 
     65 C           0.3610  -13.3539  -47.6931 C.2       1 UNK         0.5000 
     66 O          -0.0877  -13.0160  -46.5979 O.2       1 UNK        -0.5000 
     67 C          -0.3449  -21.9893  -47.5082 C.2       11 UNK         0.5000 
     68 O          -0.4607  -22.8083  -48.4189 O.2       11 UNK        -0.5000 
     69 N          -1.3701  -21.2618  -47.0391 N.am      12 UNK        -0.5000 
     70 CA         -2.7509  -21.3835  -47.5073 C.3       12 UNK         0.1400 
     71 CB         -3.6341  -20.3142  -46.8487 C.3       12 UNK        -0.1800 
     72 C          -3.3328  -22.7861  -47.2667 C.2       12 UNK         0.5000 
     73 O          -3.9490  -23.3403  -48.1755 O.2       12 UNK        -0.5000 
     74 N          -3.0988  -23.3526  -46.0743 N.am      13 UNK        -0.5000 
     75 CA         -3.4957  -24.7136  -45.7090 C.3       13 UNK         0.1400 
     76 CB         -3.2164  -24.9588  -44.2190 C.3       13 UNK        -0.1800 
     77 C          -2.8161  -25.7842  -46.5813 C.2       13 UNK         0.5000 
     78 O          -3.4962  -26.6933  -47.0590 O.2       13 UNK        -0.5000 
     79 N          -1.5062  -25.6270  -46.8251 N.am      14 UNK        -0.5000 
     80 CA         -0.7218  -26.4684  -47.7351 C.3       14 UNK         0.1400 
     81 CB          0.7648  -26.0993  -47.6221 C.3       14 UNK        -0.1800 
     82 C          -1.1999  -26.3801  -49.1991 C.2       14 UNK         0.5000 
     83 O          -1.1712  -27.3830  -49.9123 O.2       14 UNK        -0.5000 
     84 N          -1.6831  -25.1973  -49.5984 N.am      15 UNK        -0.5000 
     85 CA         -2.3144  -24.9093  -50.8860 C.3       15 UNK         0.1400 
     86 CB         -2.0716  -23.4290  -51.2310 C.3       15 UNK        -0.1800 
     87 C          -3.8180  -25.2684  -50.9291 C.2       15 UNK         0.5000 
     88 O          -4.5214  -24.7772  -51.8113 O.2       15 UNK        -0.5000 
     89 N          -4.2946  -26.1035  -49.9920 N.am      16 UNK        -0.5000 
     90 CA         -5.6579  -26.6373  -49.8866 C.3       16 UNK         0.1400 
     91 CB         -5.9690  -27.5724  -51.0747 C.3       16 UNK        -0.1800 
     92 C          -6.7189  -25.5357  -49.6880 C.2       16 UNK         0.5000 
     93 O          -7.7195  -25.4965  -50.4059 O.2       16 UNK        -0.5000 
     94 N          -6.4550  -24.6544  -48.7136 N.am      17 UNK        -0.5000 
     95 CA         -7.2089  -23.4417  -48.3765 C.3       17 UNK         0.1400 
     96 CB         -8.6573  -23.7649  -47.9518 C.3       17 UNK        -0.1800 
     97 C          -7.1081  -22.3818  -49.4923 C.2       17 UNK         0.5000 
     98 O          -8.1062  -21.7520  -49.8466 O.2       17 UNK        -0.5000 
     99 N          -5.8821  -22.2167  -50.0116 N.am      18 UNK        -0.5000 
    100 CA        -5.4745  -21.3076  -51.0857 C.3       18 UNK         0.1400 
    101 CB        -5.5167  -19.8451  -50.5974 C.3       18 UNK        -0.1800 
    102 C         -6.2576  -21.5394  -52.3949 C.2       18 UNK         0.5000 
    103 O         -6.7961  -20.5955  -52.9770 O.2       18 UNK        -0.5000 
    104 N         -6.3126  -22.8027  -52.8357 N.am      19 UNK        -0.5000 
    105 CA        -6.8994  -23.2041  -54.1112 C.3       19 UNK         0.1400 
    106 CB        -7.0667  -24.7315  -54.1368 C.3       19 UNK        -0.1800 
    107 C         -6.0118  -22.7202  -55.2715 C.2       19 UNK         0.5000 
    108 O         -4.8169  -23.0248  -55.2827 O.2       19 UNK        -0.5000 
    109 N         -6.6094  -21.9629  -56.2039 N.am      20 UNK        -0.5000 
    110 CA        -5.9573  -21.2850  -57.3326 C.3       20 UNK         0.1400 
    111 CB        -5.4549  -22.3097  -58.3719 C.3       20 UNK        -0.1800 
    112 C         -4.8609  -20.3037  -56.8608 C.2       20 UNK         0.5000 
    113 O         -3.7090  -20.3999  -57.2901 O.2       20 UNK        -0.5000 
    114 N         -5.2470  -19.4055  -55.9422 N.am      21 UNK        -0.5000 
    115 CA        -4.3862  -18.4136  -55.2947 C.3       21 UNK         0.1400 
    116 CB        -5.2217  -17.6035  -54.2907 C.3       21 UNK        -0.1800 
    117 C         -3.6769  -17.4618  -56.2785 C.2       21 UNK         0.5000 
    118 O         -4.2221  -17.1283  -57.3335 O.2       21 UNK        -0.5000 
    119 N         -2.4790  -17.0260  -55.8807 N.am      22 UNK        -0.5000 
    120 CA        -1.5869  -16.1311  -56.6332 C.3       22 UNK         0.1400 
    121 C         -1.9684  -14.6206  -56.5876 C.2       22 UNK         0.5000 
    122 N         -2.9646  -14.2044  -55.8151 N.am      22 UNK        -0.7600 
    123 O         -1.3584  -13.8115  -57.2817 O.2       22 UNK        -0.5000 
    124 C124       -0.1030  -16.3782  -56.2450 C.3       23 UNK        -0.0398 
    125 S125        0.2275  -16.2249  -54.4514 S.3       23 UNK        -0.2404 
    126 C126        0.2169  -17.9743  -53.9420 C.3       23 UNK        -0.0205 
    127 H127        2.4783  -16.4816  -47.2279 H         1 UNK         0.0600 
    128 H128        4.0072  -15.8437  -47.8264 H         1 UNK         0.0600 
    129 H129        2.8031  -14.7421  -47.1728 H         1 UNK         0.0600 
    130 H130        0.6521  -15.1253  -50.2163 H         1 UNK         0.3000 
    131 H131        0.3162  -15.4344  -47.3484 H         1 UNK         0.0600 
    132 H132       -2.0305  -14.2510  -48.1769 H         1 UNK         0.0800 
    133 H133       -1.5101  -14.9149  -49.6939 H         1 UNK         0.0800 
    134 H134       -2.8142  -18.4688  -49.3341 H         1 UNK         0.0800 
    135 H135       -2.9685  -16.9679  -50.2122 H         1 UNK         0.0800 
    136 H136       -1.8445  -17.4317  -52.2534 H         1 UNK         0.1150 
    137 H137        2.2115  -18.8090  -52.2786 H         1 UNK         0.1150 
    138 H138        0.0824  -18.4634  -48.5732 H         1 UNK         0.1150 
    139 H139        3.4092  -19.0336  -50.2476 H         1 UNK         0.0800 
    140 H140        2.7212  -18.4714  -48.7545 H         1 UNK         0.0800 
    141 H141        2.7124  -20.4837  -46.6980 H         1 UNK         0.0800 
    142 H142        1.2534  -19.7099  -47.2310 H         1 UNK         0.0800 
    143 H143        1.5975  -22.7343  -47.0312 H         1 UNK         0.0600 
    144 H144        1.1210  -20.9136  -44.8976 H         1 UNK         0.3000 
    145 H145       -0.3103  -23.3419  -42.6733 H         1 UNK         0.0600 
    146 H146        1.5529  -22.4729  -41.3064 H         1 UNK         0.0600 
    147 H147        2.1895  -23.5074  -42.5758 H         1 UNK         0.0600 
    148 H148        2.3136  -21.7577  -42.7257 H         1 UNK         0.0600 
    149 H149        0.1676  -20.5674  -42.3233 H         1 UNK         0.3000 
    150 H150       -3.0419  -19.4269  -43.5087 H         1 UNK         0.0600 
    151 H151       -3.2810  -20.2280  -41.1425 H         1 UNK         0.0600 
    152 H152       -3.0522  -18.4891  -41.2329 H         1 UNK         0.0600 
    153 H153       -1.7131  -19.5297  -40.7511 H         1 UNK         0.0600 
    154 H154       -0.9002  -17.9242  -42.4754 H         1 UNK         0.3000 
    155 H155        0.7618  -17.2840  -45.6239 H         1 UNK         0.0600 
    156 H156       -0.7330  -15.6386  -43.5121 H         1 UNK         0.0600 
    157 H157       -1.1059  -15.6656  -45.2288 H         1 UNK         0.0600 
    158 H158        0.4314  -15.0160  -44.6753 H         1 UNK         0.0600 
    159 H159        1.5428  -16.5444  -43.0157 H         1 UNK         0.3000 
    160 H160        3.5655  -19.3804  -42.2064 H         1 UNK         0.0600 
    161 H161        5.1424  -17.4871  -41.8605 H         1 UNK         0.0600 
    162 H162        4.1292  -16.4303  -42.8425 H         1 UNK         0.0600 
    163 H163        4.9338  -17.8113  -43.5744 H         1 UNK         0.0600 
    164 H164        2.7964  -16.9774  -40.8148 H         1 UNK         0.3000 
    165 H165        0.0657  -18.4046  -39.0113 H         1 UNK         0.0600 
    166 H166        1.4755  -17.6611  -37.1170 H         1 UNK         0.0600 
    167 H167        2.1442  -19.1232  -37.8238 H         1 UNK         0.0600 
    168 H168        2.8918  -17.5670  -38.1638 H         1 UNK         0.0600 
    169 H169        1.3013  -15.8238  -38.9397 H         1 UNK         0.3000 
    170 H170       -0.7790  -14.2921  -41.4036 H         1 UNK         0.0600 
    171 H171       -2.1514  -14.3921  -39.3121 H         1 UNK         0.0600 
    172 H172       -0.7223  -14.0315  -38.3510 H         1 UNK         0.0600 
    173 H173       -1.3496  -12.8405  -39.4911 H         1 UNK         0.0600 
    174 H174        1.1007  -13.0381  -39.8074 H         1 UNK         0.3000 
    175 H175        2.8951  -12.1446  -40.8229 H         1 UNK         0.0600 
    176 H176        4.6561  -14.6644  -40.8395 H         1 UNK         0.0600 
    177 H177        5.1666  -13.0539  -40.3332 H         1 UNK         0.0600 
    178 H178        3.9542  -13.9226  -39.4067 H         1 UNK         0.0600 
    179 H179        4.6154  -13.2366  -42.8350 H         1 UNK         0.3000 
    180 H180        4.4046  -11.2860  -44.9743 H         1 UNK         0.0600 
    181 H181        3.9252  -14.3186  -45.1345 H         1 UNK         0.0600 
    182 H182        5.4113  -13.5023  -44.6639 H         1 UNK         0.0600 
    183 H183        4.8722  -13.4275  -46.3261 H         1 UNK         0.0600 
    184 H184        1.7511  -12.1709  -45.6937 H         1 UNK         0.3000 
    185 H185        0.8410  -10.7139  -47.4721 H         1 UNK         0.0600 
    186 H186        2.2072   -9.3944  -49.0833 H         1 UNK         0.0600 
    187 H187        2.5950  -10.8574  -49.9823 H         1 UNK         0.0600 
    188 H188        0.9324  -10.2762  -49.9084 H         1 UNK         0.0600 
    189 H189        1.4715  -12.9144  -49.3240 H         1 UNK         0.3000 
    190 H190       -1.1998  -20.5660  -46.3152 H         1 UNK         0.3000 
    191 H191       -2.7502  -21.2024  -48.5839 H         1 UNK         0.0600 
    192 H192       -3.6610  -20.4251  -45.7648 H         1 UNK         0.0600 
    193 H193       -4.6608  -20.3773  -47.2114 H         1 UNK         0.0600 
    194 H194       -3.2719  -19.3109  -47.0698 H         1 UNK         0.0600 
    195 H195       -2.6269  -22.8095  -45.3557 H         1 UNK         0.3000 
    196 H196       -4.5731  -24.7957  -45.8663 H         1 UNK         0.0600 
    197 H197       -3.5144  -25.9660  -43.9255 H         1 UNK         0.0600 
    198 H198       -3.7737  -24.2601  -43.5948 H         1 UNK         0.0600 
    199 H199       -2.1584  -24.8462  -43.9818 H         1 UNK         0.0600 
    200 H200       -1.0097  -24.8714  -46.3619 H         1 UNK         0.3000 
    201 H201       -0.8398  -27.5047  -47.4121 H         1 UNK         0.0600 
    202 H202        1.1244  -26.2195  -46.6000 H         1 UNK         0.0600 
    203 H203        0.9479  -25.0673  -47.9212 H         1 UNK         0.0600 
    204 H204        1.3756  -26.7392  -48.2601 H         1 UNK         0.0600 
    205 H205       -1.6084  -24.4125  -48.9593 H         1 UNK         0.3000 
    206 H206       -1.8289  -25.5115  -51.6561 H         1 UNK         0.0600 
    207 H207       -2.4770  -23.1744  -52.2111 H         1 UNK         0.0600 
    208 H208       -1.0057  -23.2017  -51.2553 H         1 UNK         0.0600 
    209 H209       -2.5328  -22.7681  -50.4981 H         1 UNK         0.0600 
    210 H210       -3.6593  -26.4049  -49.2639 H         1 UNK         0.3000 
    211 H211       -5.6773  -27.2446  -48.9805 H         1 UNK         0.0600 
    212 H212       -6.0070  -27.0307  -52.0203 H         1 UNK         0.0600 
    213 H213       -6.9336  -28.0635  -50.9418 H         1 UNK         0.0600 
    214 H214       -5.2166  -28.3555  -51.1670 H         1 UNK         0.0600 
    215 H215       -5.5509  -24.7250  -48.2617 H         1 UNK         0.3000 
    216 H216       -6.7093  -23.0103  -47.5079 H         1 UNK         0.0600 
    217 H217       -9.1510  -22.8773  -47.5550 H         1 UNK         0.0600 
    218 H218       -8.6790  -24.5245  -47.1705 H         1 UNK         0.0600 
    219 H219       -9.2596  -24.1232  -48.7867 H         1 UNK         0.0600 
    220 H220       -5.1418  -22.7869  -49.6140 H         1 UNK         0.3000 
    221 H221       -4.4347  -21.5444  -51.3110 H         1 UNK         0.0600 
    222 H222       -6.5369  -19.5122  -50.4036 H         1 UNK         0.0600 
    223 H223       -4.9444  -19.7201  -49.6788 H         1 UNK         0.0600 
    224 H224       -5.0866  -19.1729  -51.3401 H         1 UNK         0.0600 
    225 H225       -5.7847  -23.5206  -52.3434 H         1 UNK         0.3000 
    226 H226       -7.8895  -22.7508  -54.1939 H         1 UNK         0.0600 
    227 H227       -7.6932  -25.0732  -53.3125 H         1 UNK         0.0600 
    228 H228       -7.5387  -25.0565  -55.0645 H         1 UNK         0.0600 
    229 H229       -6.1066  -25.2433  -54.0589 H         1 UNK         0.0600 
    230 H230       -7.5937  -21.7627  -56.0921 H         1 UNK         0.3000 
    231 H231       -6.7237  -20.6784  -57.8175 H         1 UNK         0.0600 
    232 H232       -6.2626  -22.9617  -58.7041 H         1 UNK         0.0600 
    233 H233       -4.6587  -22.9392  -57.9738 H         1 UNK         0.0600 
    234 H234       -5.0608  -21.8058  -59.2552 H         1 UNK         0.0600 
    235 H235       -6.2082  -19.4226  -55.6340 H         1 UNK         0.3000 
    236 H236       -3.6248  -18.9678  -54.7419 H         1 UNK         0.0600 
    237 H237       -4.6023  -16.8874  -53.7493 H         1 UNK         0.0600 
    238 H238       -6.0138  -17.0430  -54.7888 H         1 UNK         0.0600 
    239 H239       -5.6870  -18.2493  -53.5476 H         1 UNK         0.0600 
    240 H240       -2.1301  -17.3060  -54.9770 H         1 UNK         0.3000 
    241 H241       -1.6791  -16.4051  -57.6860 H         1 UNK         0.0600 
    242 H242       -3.2056  -13.2257  -55.8008 H         1 UNK         0.3800 
    243 H243       -3.4799  -14.8563  -55.2471 H         1 UNK         0.3800 
    244 H244        0.1970  -17.3734  -56.5761 H         1 UNK         0.0800 
    245 H245        0.5560  -15.6907  -56.7780 H         1 UNK         0.0800 
    246 H246        1.0968  -18.4695  -54.3560 H         1 UNK         0.0800 
    247 H247       -0.6476  -18.4888  -54.3617 H         1 UNK         0.0800 
@<TRIPOS>BOND
     1    1    2 1    
     2    1  127 1    
     3    1  128 1    
     4    1  129 1    
     5    2    3 2    
     6    2    4 am   BACKBONE|DICT|INTERRES
     7    4    5 1    
     8    4  130 1    
     9    5    6 1    
    10    5   65 1    
    11    5  131 1    
    12    6    7 1    
    13    6  132 1    
    14    6  133 1    
    15    7    8 1    
    16    8    9 1    
    17    8  134 1    
    18    8  135 1    
    19    9   10 ar   
    20    9   14 ar   
    21   10   11 ar   
    22   10  136 1    
    23   11   12 ar   
    24   11  126 1    
    25   12   13 ar   
    26   12  137 1    
    27   13   14 ar   
    28   13   15 1    
    29   14  138 1    
    30   15   16 1    
    31   15  139 1    
    32   15  140 1    
    33   16   17 1    
    34   17   18 1    
    35   17  141 1    
    36   17  142 1    
    37   18   19 1    
    38   18   67 1    
    39   18  143 1    
    40   19   20 am   BACKBONE|DICT|INTERRES
    41   19  144 1    
    42   20   21 2    
    43   20   22 1    
    44   22   23 1    
    45   22   24 1    
    46   22  145 1    
    47   23  146 1    
    48   23  147 1    
    49   23  148 1    
    50   24   25 am   BACKBONE|DICT|INTERRES
    51   24  149 1    
    52   25   26 2    
    53   25   27 1    
    54   27   28 1    
    55   27   29 1    
    56   27  150 1    
    57   28  151 1    
    58   28  152 1    
    59   28  153 1    
    60   29   30 am   BACKBONE|DICT|INTERRES
    61   29  154 1    
    62   30   31 2    
    63   30   32 1    
    64   32   33 1    
    65   32   34 1    
    66   32  155 1    
    67   33  156 1    
    68   33  157 1    
    69   33  158 1    
    70   34   35 am   BACKBONE|DICT|INTERRES
    71   34  159 1    
    72   35   36 2    
    73   35   37 1    
    74   37   38 1    
    75   37   39 1    
    76   37  160 1    
    77   38  161 1    
    78   38  162 1    
    79   38  163 1    
    80   39   40 am   BACKBONE|DICT|INTERRES
    81   39  164 1    
    82   40   41 2    
    83   40   42 1    
    84   42   43 1    
    85   42   44 1    
    86   42  165 1    
    87   43  166 1    
    88   43  167 1    
    89   43  168 1    
    90   44   45 am   BACKBONE|DICT|INTERRES
    91   44  169 1    
    92   45   46 2    
    93   45   47 1    
    94   47   48 1    
    95   47   49 1    
    96   47  170 1    
    97   48  171 1    
    98   48  172 1    
    99   48  173 1    
   100   49   50 am   BACKBONE|DICT|INTERRES
   101   49  174 1    
   102   50   51 2    
   103   50   52 1    
   104   52   53 1    
   105   52   54 1    
   106   52  175 1    
   107   53  176 1    
   108   53  177 1    
   109   53  178 1    
   110   54   55 am   BACKBONE|DICT|INTERRES
   111   54  179 1    
   112   55   56 2    
   113   55   57 1    
   114   57   58 1    
   115   57   59 1    
   116   57  180 1    
   117   58  181 1    
   118   58  182 1    
   119   58  183 1    
   120   59   60 am   BACKBONE|DICT|INTERRES
   121   59  184 1    
   122   60   61 2    
   123   60   62 1    
   124   62   63 1    
   125   62   64 1    
   126   62  185 1    
   127   63  186 1    
   128   63  187 1    
   129   63  188 1    
   130   64   65 am   BACKBONE|DICT|INTERRES
   131   64  189 1    
   132   65   66 2    
   133   67   68 2    
   134   67   69 am   BACKBONE|DICT|INTERRES
   135   69   70 1    
   136   69  190 1    
   137   70   71 1    
   138   70   72 1    
   139   70  191 1    
   140   71  192 1    
   141   71  193 1    
   142   71  194 1    
   143   72   73 2    
   144   72   74 am   BACKBONE|DICT|INTERRES
   145   74   75 1    
   146   74  195 1    
   147   75   76 1    
   148   75   77 1    
   149   75  196 1    
   150   76  197 1    
   151   76  198 1    
   152   76  199 1    
   153   77   78 2    
   154   77   79 am   BACKBONE|DICT|INTERRES
   155   79   80 1    
   156   79  200 1    
   157   80   81 1    
   158   80   82 1    
   159   80  201 1    
   160   81  202 1    
   161   81  203 1    
   162   81  204 1    
   163   82   83 2    
   164   82   84 am   BACKBONE|DICT|INTERRES
   165   84   85 1    
   166   84  205 1    
   167   85   86 1    
   168   85   87 1    
   169   85  206 1    
   170   86  207 1    
   171   86  208 1    
   172   86  209 1    
   173   87   88 2    
   174   87   89 am   BACKBONE|DICT|INTERRES
   175   89   90 1    
   176   89  210 1    
   177   90   91 1    
   178   90   92 1    
   179   90  211 1    
   180   91  212 1    
   181   91  213 1    
   182   91  214 1    
   183   92   93 2    
   184   92   94 am   BACKBONE|DICT|INTERRES
   185   94   95 1    
   186   94  215 1    
   187   95   96 1    
   188   95   97 1    
   189   95  216 1    
   190   96  217 1    
   191   96  218 1    
   192   96  219 1    
   193   97   98 2    
   194   97   99 am   BACKBONE|DICT|INTERRES
   195   99  100 1    
   196   99  220 1    
   197  100  101 1    
   198  100  102 1    
   199  100  221 1    
   200  101  222 1    
   201  101  223 1    
   202  101  224 1    
   203  102  103 2    
   204  102  104 am   BACKBONE|DICT|INTERRES
   205  104  105 1    
   206  104  225 1    
   207  105  106 1    
   208  105  107 1    
   209  105  226 1    
   210  106  227 1    
   211  106  228 1    
   212  106  229 1    
   213  107  108 2    
   214  107  109 am   BACKBONE|DICT|INTERRES
   215  109  110 1    
   216  109  230 1    
   217  110  111 1    
   218  110  112 1    
   219  110  231 1    
   220  111  232 1    
   221  111  233 1    
   222  111  234 1    
   223  112  113 2    
   224  112  114 am   BACKBONE|DICT|INTERRES
   225  114  115 1    
   226  114  235 1    
   227  115  116 1    
   228  115  117 1    
   229  115  236 1    
   230  116  237 1    
   231  116  238 1    
   232  116  239 1    
   233  117  118 2    
   234  117  119 am   BACKBONE|DICT|INTERRES
   235  119  120 1    
   236  119  240 1    
   237  120  121 1    
   238  120  124 1    
   239  120  241 1    
   240  121  122 am   BACKBONE|DICT|INTERRES
   241  121  123 2    
   242  122  242 1    
   243  122  243 1    
   244  124  125 1    
   245  124  244 1    
   246  124  245 1    
   247  125  126 1    
   248  126  246 1    
   249  126  247 1    
@<TRIPOS>SUBSTRUCTURE
     1 UNK         1 GROUP             0       ****    0 ROOT    
