@<TRIPOS>MOLECULE
3R540
247   249    1
SMALL
USER_CHARGES


@<TRIPOS>ATOM
      1 CA         -4.6816  -11.9401  -49.9166 C.3       0 UNK        -0.1800 
      2 C          -3.4953  -12.4089  -50.7471 C.2       0 UNK         0.5000 
      3 O          -2.6440  -11.5982  -51.1126 O.2       0 UNK        -0.5000 
      4 N          -3.4375  -13.7127  -51.0460 N.am      1 UNK        -0.5000 
      5 CA         -2.3539  -14.3637  -51.7949 C.3       1 UNK         0.1400 
      6 C6         -2.7719  -15.7699  -52.2905 C.3       23 UNK        -0.0398 
      7 S7         -3.2702  -16.9101  -50.9476 S.3       23 UNK        -0.2404 
      8 C8         -2.7050  -18.5159  -51.5830 C.3       23 UNK        -0.0205 
      9 C9         -1.1907  -18.6801  -51.5525 C.ar      23 UNK        -0.0193 
     10 C10        -0.4448  -18.5723  -52.7284 C.ar      23 UNK        -0.1150 
     11 C11         0.9309  -18.8192  -52.7246 C.ar      23 UNK        -0.0193 
     12 C12         1.5661  -19.1712  -51.5296 C.ar      23 UNK        -0.1150 
     13 C13         0.8354  -19.2693  -50.3420 C.ar      23 UNK        -0.0193 
     14 C14        -0.5391  -19.0081  -50.3607 C.ar      23 UNK        -0.1150 
     15 C15         1.5226  -19.6694  -49.0433 C.3       23 UNK        -0.0205 
     16 S16         1.2283  -21.4236  -48.6529 S.3       23 UNK        -0.2404 
     17 C17         1.6857  -21.4993  -46.8850 C.3       23 UNK        -0.0398 
     18 CA          1.3756  -22.8805  -46.2508 C.3       11 UNK         0.1400 
     19 N           1.9079  -23.0179  -44.8930 N.am      11 UNK        -0.5000 
     20 C           2.0495  -24.1995  -44.2719 C.2       10 UNK         0.5000 
     21 O           1.9899  -25.2781  -44.8661 O.2       10 UNK        -0.5000 
     22 CA          2.2085  -24.1903  -42.7388 C.3       10 UNK         0.1400 
     23 CB          2.8355  -25.4856  -42.1784 C.3       10 UNK        -0.1800 
     24 N           2.8651  -22.9973  -42.2043 N.am      10 UNK        -0.5000 
     25 C           4.1607  -22.6616  -42.2831 C.2       9 UNK         0.5000 
     26 O           4.9976  -23.3187  -42.9037 O.2       9 UNK        -0.5000 
     27 CA          4.6116  -21.3878  -41.5307 C.3       9 UNK         0.1400 
     28 CB          5.4321  -20.4620  -42.4441 C.3       9 UNK        -0.1800 
     29 N           3.5001  -20.6272  -40.9508 N.am      9 UNK        -0.5000 
     30 C           2.8830  -20.9015  -39.7927 C.2       8 UNK         0.5000 
     31 O           3.2417  -21.7934  -39.0238 O.2       8 UNK        -0.5000 
     32 CA          1.6189  -20.0785  -39.4654 C.3       8 UNK         0.1400 
     33 CB          1.9807  -18.8209  -38.6619 C.3       8 UNK        -0.1800 
     34 N           0.8588  -19.6915  -40.6579 N.am      8 UNK        -0.5000 
     35 C           0.2567  -20.5480  -41.4969 C.2       7 UNK         0.5000 
     36 O           0.2220  -21.7655  -41.3207 O.2       7 UNK        -0.5000 
     37 CA         -0.3308  -19.9515  -42.7894 C.3       7 UNK         0.1400 
     38 CB         -1.7271  -19.3598  -42.5459 C.3       7 UNK        -0.1800 
     39 N           0.5539  -18.9363  -43.3669 N.am      7 UNK        -0.5000 
     40 C           1.7704  -19.2019  -43.8651 C.2       6 UNK         0.5000 
     41 O           2.2350  -20.3373  -43.9507 O.2       6 UNK        -0.5000 
     42 CA          2.6308  -18.0037  -44.2954 C.3       6 UNK         0.1400 
     43 CB          2.3131  -17.5957  -45.7399 C.3       6 UNK        -0.1800 
     44 N           2.4533  -16.8642  -43.3958 N.am      6 UNK        -0.5000 
     45 C           2.9825  -16.8038  -42.1634 C.2       5 UNK         0.5000 
     46 O           3.7092  -17.6797  -41.6974 O.2       5 UNK        -0.5000 
     47 CA          2.6155  -15.5913  -41.2839 C.3       5 UNK         0.1400 
     48 CB          3.6416  -14.4640  -41.4703 C.3       5 UNK        -0.1800 
     49 N           1.2770  -15.0675  -41.5508 N.am      5 UNK        -0.5000 
     50 C           0.1351  -15.7527  -41.3978 C.2       4 UNK         0.5000 
     51 O           0.0815  -16.8803  -40.9075 O.2       4 UNK        -0.5000 
     52 CA         -1.1496  -15.0966  -41.9470 C.3       4 UNK         0.1400 
     53 CB         -1.9356  -14.4239  -40.8125 C.3       4 UNK        -0.1800 
     54 N          -0.9036  -14.1159  -43.0135 N.am      4 UNK        -0.5000 
     55 C          -0.3138  -14.3897  -44.1858 C.2       3 UNK         0.5000 
     56 O           0.0712  -15.5177  -44.5027 O.2       3 UNK        -0.5000 
     57 CA         -0.0230  -13.1854  -45.1004 C.3       3 UNK         0.1400 
     58 CB          1.1629  -12.3764  -44.5486 C.3       3 UNK        -0.1800 
     59 N           0.2997  -13.5986  -46.4658 N.am      3 UNK        -0.5000 
     60 C          -0.5962  -14.0283  -47.3595 C.2       2 UNK         0.5000 
     61 O          -1.8130  -14.0682  -47.1505 O.2       2 UNK        -0.5000 
     62 CA         -0.0360  -14.4806  -48.7160 C.3       2 UNK         0.1400 
     63 CB          0.5701  -15.8924  -48.6323 C.3       2 UNK        -0.1800 
     64 N          -1.1276  -14.4668  -49.6764 N.am      2 UNK        -0.5000 
     65 C          -1.0247  -14.4090  -51.0076 C.2       1 UNK         0.5000 
     66 O           0.0470  -14.3720  -51.6138 O.2       1 UNK        -0.5000 
     67 C          -0.1386  -23.1728  -46.1965 C.2       11 UNK         0.5000 
     68 O          -0.9139  -22.3190  -45.7587 O.2       11 UNK        -0.5000 
     69 N          -0.5297  -24.3810  -46.6238 N.am      12 UNK        -0.5000 
     70 CA         -1.9153  -24.8577  -46.6317 C.3       12 UNK         0.1400 
     71 CB         -1.9464  -26.3226  -47.0908 C.3       12 UNK        -0.1800 
     72 C          -2.8486  -23.9972  -47.5020 C.2       12 UNK         0.5000 
     73 O          -4.0170  -23.8295  -47.1575 O.2       12 UNK        -0.5000 
     74 N          -2.2995  -23.4256  -48.5817 N.am      13 UNK        -0.5000 
     75 CA         -2.9783  -22.4788  -49.4623 C.3       13 UNK         0.1400 
     76 CB         -2.0922  -22.2278  -50.6921 C.3       13 UNK        -0.1800 
     77 C          -3.3501  -21.1648  -48.7459 C.2       13 UNK         0.5000 
     78 O          -4.4410  -20.6443  -48.9734 O.2       13 UNK        -0.5000 
     79 N          -2.4741  -20.6735  -47.8547 N.am      14 UNK        -0.5000 
     80 CA         -2.7325  -19.4860  -47.0340 C.3       14 UNK         0.1400 
     81 CB         -1.4243  -18.9427  -46.4410 C.3       14 UNK        -0.1800 
     82 C          -3.7383  -19.7749  -45.9113 C.2       14 UNK         0.5000 
     83 O          -4.5811  -18.9262  -45.6228 O.2       14 UNK        -0.5000 
     84 N          -3.6432  -20.9723  -45.3153 N.am      15 UNK        -0.5000 
     85 CA         -4.5617  -21.4565  -44.2844 C.3       15 UNK         0.1400 
     86 CB         -4.0064  -22.7507  -43.6718 C.3       15 UNK        -0.1800 
     87 C          -5.9936  -21.6581  -44.8190 C.2       15 UNK         0.5000 
     88 O          -6.9527  -21.2840  -44.1431 O.2       15 UNK        -0.5000 
     89 N          -6.1096  -22.2131  -46.0334 N.am      16 UNK        -0.5000 
     90 CA         -7.3699  -22.3630  -46.7631 C.3       16 UNK         0.1400 
     91 CB         -7.1757  -23.3916  -47.8886 C.3       16 UNK        -0.1800 
     92 C          -7.8889  -21.0367  -47.3516 C.2       16 UNK         0.5000 
     93 O          -9.0979  -20.8979  -47.5398 O.2       16 UNK        -0.5000 
     94 N          -6.9648  -20.1107  -47.6502 N.am      17 UNK        -0.5000 
     95 CA         -7.1516  -18.8529  -48.3807 C.3       17 UNK         0.1400 
     96 CB         -8.0247  -17.8668  -47.5777 C.3       17 UNK        -0.1800 
     97 C          -7.6653  -19.1132  -49.8120 C.2       17 UNK         0.5000 
     98 O          -8.6572  -18.5201  -50.2414 O.2       17 UNK        -0.5000 
     99 N          -6.9964  -20.0401  -50.5063 N.am      18 UNK        -0.5000 
    100 CA        -7.3829  -20.5752  -51.8081 C.3       18 UNK         0.1400 
    101 CB        -8.4722  -21.6485  -51.6094 C.3       18 UNK        -0.1800 
    102 C         -6.1480  -21.1529  -52.5177 C.2       18 UNK         0.5000 
    103 O         -5.0596  -21.1584  -51.9433 O.2       18 UNK        -0.5000 
    104 N         -6.3433  -21.6412  -53.7517 N.am      19 UNK        -0.5000 
    105 CA        -5.3386  -22.2935  -54.6048 C.3       19 UNK         0.1400 
    106 CB        -4.8543  -23.6170  -53.9734 C.3       19 UNK        -0.1800 
    107 C         -4.1762  -21.3596  -55.0058 C.2       19 UNK         0.5000 
    108 O         -3.0305  -21.8000  -55.1206 O.2       19 UNK        -0.5000 
    109 N         -4.4976  -20.0801  -55.2389 N.am      20 UNK        -0.5000 
    110 CA        -3.5690  -19.0124  -55.6157 C.3       20 UNK         0.1400 
    111 CB        -4.2091  -17.6601  -55.2523 C.3       20 UNK        -0.1800 
    112 C         -3.1353  -19.0869  -57.0972 C.2       20 UNK         0.5000 
    113 O         -3.2891  -18.1154  -57.8396 O.2       20 UNK        -0.5000 
    114 N         -2.6145  -20.2494  -57.5090 N.am      21 UNK        -0.5000 
    115 CA        -2.0387  -20.4841  -58.8346 C.3       21 UNK         0.1400 
    116 CB        -1.9435  -21.9972  -59.0839 C.3       21 UNK        -0.1800 
    117 C         -0.6590  -19.8156  -58.9806 C.2       21 UNK         0.5000 
    118 O         -0.3427  -19.2835  -60.0455 O.2       21 UNK        -0.5000 
    119 N          0.1231  -19.8444  -57.8959 N.am      22 UNK        -0.5000 
    120 CA         1.3761  -19.1003  -57.7226 C.3       22 UNK         0.1400 
    121 C          1.1393  -17.5812  -57.4875 C.2       22 UNK         0.5000 
    122 N          2.1019  -16.7397  -57.8401 N.am      22 UNK        -0.7600 
    123 O          0.1135  -17.1580  -56.9588 O.2       22 UNK        -0.5000 
    124 C124        2.2654  -19.7273  -56.6123 C.3       23 UNK        -0.0398 
    125 S125        1.3779  -20.1714  -55.0757 S.3       23 UNK        -0.2404 
    126 C126        1.7158  -18.7282  -54.0223 C.3       23 UNK        -0.0205 
    127 H127       -5.3621  -12.7593  -49.6830 H         1 UNK         0.0600 
    128 H128       -5.2411  -11.1771  -50.4577 H         1 UNK         0.0600 
    129 H129       -4.3341  -11.5090  -48.9776 H         1 UNK         0.0600 
    130 H130       -4.1643  -14.3324  -50.7163 H         1 UNK         0.3000 
    131 H131       -2.1656  -13.7543  -52.6816 H         1 UNK         0.0600 
    132 H132       -1.9677  -16.2113  -52.8795 H         1 UNK         0.0800 
    133 H133       -3.6155  -15.6727  -52.9744 H         1 UNK         0.0800 
    134 H134       -3.0905  -18.6703  -52.5904 H         1 UNK         0.0800 
    135 H135       -3.1626  -19.2943  -50.9749 H         1 UNK         0.0800 
    136 H136       -0.9343  -18.3230  -53.6584 H         1 UNK         0.1150 
    137 H137        2.6270  -19.3785  -51.5258 H         1 UNK         0.1150 
    138 H138       -1.1124  -19.0882  -49.4522 H         1 UNK         0.1150 
    139 H139        2.5975  -19.4942  -49.1081 H         1 UNK         0.0800 
    140 H140        1.1629  -19.0367  -48.2353 H         1 UNK         0.0800 
    141 H141        1.1671  -20.7020  -46.3536 H         1 UNK         0.0800 
    142 H142        2.7514  -21.2830  -46.7992 H         1 UNK         0.0800 
    143 H143        1.8560  -23.6345  -46.8786 H         1 UNK         0.0600 
    144 H144        1.9917  -22.1567  -44.3577 H         1 UNK         0.3000 
    145 H145        1.1894  -24.1475  -42.3528 H         1 UNK         0.0600 
    146 H146        2.9206  -25.4455  -41.0925 H         1 UNK         0.0600 
    147 H147        2.2210  -26.3533  -42.4210 H         1 UNK         0.0600 
    148 H148        3.8289  -25.6685  -42.5882 H         1 UNK         0.0600 
    149 H149        2.2471  -22.3670  -41.7081 H         1 UNK         0.3000 
    150 H150        5.2653  -21.7155  -40.7199 H         1 UNK         0.0600 
    151 H151        6.3294  -20.9637  -42.8080 H         1 UNK         0.0600 
    152 H152        5.7570  -19.5677  -41.9122 H         1 UNK         0.0600 
    153 H153        4.8595  -20.1469  -43.3153 H         1 UNK         0.0600 
    154 H154        3.1692  -19.8418  -41.4965 H         1 UNK         0.3000 
    155 H155        0.9697  -20.7020  -38.8472 H         1 UNK         0.0600 
    156 H156        2.4864  -19.0848  -37.7323 H         1 UNK         0.0600 
    157 H157        1.0900  -18.2500  -38.3982 H         1 UNK         0.0600 
    158 H158        2.6463  -18.1641  -39.2211 H         1 UNK         0.0600 
    159 H159        0.7827  -18.6962  -40.8481 H         1 UNK         0.3000 
    160 H160       -0.4311  -20.7616  -43.5151 H         1 UNK         0.0600 
    161 H161       -1.7138  -18.5765  -41.7888 H         1 UNK         0.0600 
    162 H162       -2.4174  -20.1312  -42.2033 H         1 UNK         0.0600 
    163 H163       -2.1430  -18.9343  -43.4583 H         1 UNK         0.0600 
    164 H164        0.2509  -17.9745  -43.3133 H         1 UNK         0.3000 
    165 H165        3.6787  -18.3074  -44.2618 H         1 UNK         0.0600 
    166 H166        2.8653  -16.7014  -46.0286 H         1 UNK         0.0600 
    167 H167        2.5972  -18.3890  -46.4311 H         1 UNK         0.0600 
    168 H168        1.2508  -17.3990  -45.8849 H         1 UNK         0.0600 
    169 H169        1.8076  -16.1451  -43.7034 H         1 UNK         0.3000 
    170 H170        2.6460  -15.9150  -40.2418 H         1 UNK         0.0600 
    171 H171        3.4391  -13.6303  -40.7977 H         1 UNK         0.0600 
    172 H172        4.6513  -14.8161  -41.2545 H         1 UNK         0.0600 
    173 H173        3.6385  -14.0811  -42.4917 H         1 UNK         0.0600 
    174 H174        1.2254  -14.1437  -41.9521 H         1 UNK         0.3000 
    175 H175       -1.7662  -15.8946  -42.3659 H         1 UNK         0.0600 
    176 H176       -2.1561  -15.1351  -40.0151 H         1 UNK         0.0600 
    177 H177       -1.3773  -13.5977  -40.3705 H         1 UNK         0.0600 
    178 H178       -2.8888  -14.0337  -41.1698 H         1 UNK         0.0600 
    179 H179       -1.1806  -13.1647  -42.8166 H         1 UNK         0.3000 
    180 H180       -0.9079  -12.5457  -45.1240 H         1 UNK         0.0600 
    181 H181        0.9534  -11.9953  -43.5485 H         1 UNK         0.0600 
    182 H182        2.0694  -12.9804  -44.4869 H         1 UNK         0.0600 
    183 H183        1.3785  -11.5141  -45.1800 H         1 UNK         0.0600 
    184 H184        1.2804  -13.6303  -46.7019 H         1 UNK         0.3000 
    185 H185        0.7278  -13.7675  -49.0332 H         1 UNK         0.0600 
    186 H186        1.4048  -15.9185  -47.9328 H         1 UNK         0.0600 
    187 H187       -0.1681  -16.6212  -48.2985 H         1 UNK         0.0600 
    188 H188        0.9495  -16.2229  -49.5995 H         1 UNK         0.0600 
    189 H189       -2.0459  -14.4506  -49.2500 H         1 UNK         0.3000 
    190 H190        0.1749  -25.0426  -46.9186 H         1 UNK         0.3000 
    191 H191       -2.2856  -24.8132  -45.6060 H         1 UNK         0.0600 
    192 H192       -1.5572  -26.4362  -48.1034 H         1 UNK         0.0600 
    193 H193       -2.9656  -26.7117  -47.0848 H         1 UNK         0.0600 
    194 H194       -1.3544  -26.9558  -46.4296 H         1 UNK         0.0600 
    195 H195       -1.3288  -23.6157  -48.7820 H         1 UNK         0.3000 
    196 H196       -3.9077  -22.9399  -49.8037 H         1 UNK         0.0600 
    197 H197       -1.9106  -23.1521  -51.2403 H         1 UNK         0.0600 
    198 H198       -1.1256  -21.8081  -50.4172 H         1 UNK         0.0600 
    199 H199       -2.5614  -21.5342  -51.3881 H         1 UNK         0.0600 
    200 H200       -1.6275  -21.1896  -47.6597 H         1 UNK         0.3000 
    201 H201       -3.1582  -18.7095  -47.6739 H         1 UNK         0.0600 
    202 H202       -1.6103  -18.0650  -45.8201 H         1 UNK         0.0600 
    203 H203       -0.9220  -19.6811  -45.8181 H         1 UNK         0.0600 
    204 H204       -0.7374  -18.6335  -47.2218 H         1 UNK         0.0600 
    205 H205       -2.8859  -21.5892  -45.5873 H         1 UNK         0.3000 
    206 H206       -4.6045  -20.7012  -43.4969 H         1 UNK         0.0600 
    207 H207       -2.9983  -22.6040  -43.2829 H         1 UNK         0.0600 
    208 H208       -4.6308  -23.0868  -42.8433 H         1 UNK         0.0600 
    209 H209       -3.9702  -23.5588  -44.4019 H         1 UNK         0.0600 
    210 H210       -5.2763  -22.5749  -46.4904 H         1 UNK         0.3000 
    211 H211       -8.1275  -22.7450  -46.0757 H         1 UNK         0.0600 
    212 H212       -8.1043  -23.5517  -48.4379 H         1 UNK         0.0600 
    213 H213       -6.8615  -24.3569  -47.4913 H         1 UNK         0.0600 
    214 H214       -6.4220  -23.0635  -48.6061 H         1 UNK         0.0600 
    215 H215       -5.9963  -20.3681  -47.5093 H         1 UNK         0.3000 
    216 H216       -6.1609  -18.4073  -48.4836 H         1 UNK         0.0600 
    217 H217       -8.0659  -16.8951  -48.0708 H         1 UNK         0.0600 
    218 H218       -7.6175  -17.7077  -46.5790 H         1 UNK         0.0600 
    219 H219       -9.0498  -18.2218  -47.4699 H         1 UNK         0.0600 
    220 H220       -6.1309  -20.4197  -50.1278 H         1 UNK         0.3000 
    221 H221       -7.7727  -19.7659  -52.4287 H         1 UNK         0.0600 
    222 H222       -8.1024  -22.4851  -51.0149 H         1 UNK         0.0600 
    223 H223       -9.3443  -21.2396  -51.0988 H         1 UNK         0.0600 
    224 H224       -8.8200  -22.0489  -52.5619 H         1 UNK         0.0600 
    225 H225       -7.2723  -21.5856  -54.1456 H         1 UNK         0.3000 
    226 H226       -5.8496  -22.5470  -55.5346 H         1 UNK         0.0600 
    227 H227       -5.6946  -24.2572  -53.7053 H         1 UNK         0.0600 
    228 H228       -4.2307  -24.1773  -54.6709 H         1 UNK         0.0600 
    229 H229       -4.2620  -23.4459  -53.0739 H         1 UNK         0.0600 
    230 H230       -5.4675  -19.8149  -55.1529 H         1 UNK         0.3000 
    231 H231       -2.6625  -19.1220  -55.0184 H         1 UNK         0.0600 
    232 H232       -4.5063  -17.6290  -54.2044 H         1 UNK         0.0600 
    233 H233       -5.0972  -17.4612  -55.8534 H         1 UNK         0.0600 
    234 H234       -3.5087  -16.8402  -55.4170 H         1 UNK         0.0600 
    235 H235       -2.5528  -21.0027  -56.8301 H         1 UNK         0.3000 
    236 H236       -2.7036  -20.0548  -59.5872 H         1 UNK         0.0600 
    237 H237       -1.5277  -22.2042  -60.0708 H         1 UNK         0.0600 
    238 H238       -2.9269  -22.4657  -59.0406 H         1 UNK         0.0600 
    239 H239       -1.3055  -22.4886  -58.3481 H         1 UNK         0.0600 
    240 H240       -0.2341  -20.2784  -57.0575 H         1 UNK         0.3000 
    241 H241        1.9290  -19.1850  -58.6604 H         1 UNK         0.0600 
    242 H242        1.9677  -15.7526  -57.6836 H         1 UNK         0.3800 
    243 H243        2.9553  -17.0578  -58.2735 H         1 UNK         0.3800 
    244 H244        2.6997  -20.6505  -56.9980 H         1 UNK         0.0800 
    245 H245        3.1190  -19.0889  -56.3773 H         1 UNK         0.0800 
    246 H246        1.4393  -17.8118  -54.5446 H         1 UNK         0.0800 
    247 H247        2.7867  -18.6644  -53.8239 H         1 UNK         0.0800 
@<TRIPOS>BOND
     1    1    2 1    
     2    1  127 1    
     3    1  128 1    
     4    1  129 1    
     5    2    3 2    
     6    2    4 am   BACKBONE|DICT|INTERRES
     7    4    5 1    
     8    4  130 1    
     9    5    6 1    
    10    5   65 1    
    11    5  131 1    
    12    6    7 1    
    13    6  132 1    
    14    6  133 1    
    15    7    8 1    
    16    8    9 1    
    17    8  134 1    
    18    8  135 1    
    19    9   10 ar   
    20    9   14 ar   
    21   10   11 ar   
    22   10  136 1    
    23   11   12 ar   
    24   11  126 1    
    25   12   13 ar   
    26   12  137 1    
    27   13   14 ar   
    28   13   15 1    
    29   14  138 1    
    30   15   16 1    
    31   15  139 1    
    32   15  140 1    
    33   16   17 1    
    34   17   18 1    
    35   17  141 1    
    36   17  142 1    
    37   18   19 1    
    38   18   67 1    
    39   18  143 1    
    40   19   20 am   BACKBONE|DICT|INTERRES
    41   19  144 1    
    42   20   21 2    
    43   20   22 1    
    44   22   23 1    
    45   22   24 1    
    46   22  145 1    
    47   23  146 1    
    48   23  147 1    
    49   23  148 1    
    50   24   25 am   BACKBONE|DICT|INTERRES
    51   24  149 1    
    52   25   26 2    
    53   25   27 1    
    54   27   28 1    
    55   27   29 1    
    56   27  150 1    
    57   28  151 1    
    58   28  152 1    
    59   28  153 1    
    60   29   30 am   BACKBONE|DICT|INTERRES
    61   29  154 1    
    62   30   31 2    
    63   30   32 1    
    64   32   33 1    
    65   32   34 1    
    66   32  155 1    
    67   33  156 1    
    68   33  157 1    
    69   33  158 1    
    70   34   35 am   BACKBONE|DICT|INTERRES
    71   34  159 1    
    72   35   36 2    
    73   35   37 1    
    74   37   38 1    
    75   37   39 1    
    76   37  160 1    
    77   38  161 1    
    78   38  162 1    
    79   38  163 1    
    80   39   40 am   BACKBONE|DICT|INTERRES
    81   39  164 1    
    82   40   41 2    
    83   40   42 1    
    84   42   43 1    
    85   42   44 1    
    86   42  165 1    
    87   43  166 1    
    88   43  167 1    
    89   43  168 1    
    90   44   45 am   BACKBONE|DICT|INTERRES
    91   44  169 1    
    92   45   46 2    
    93   45   47 1    
    94   47   48 1    
    95   47   49 1    
    96   47  170 1    
    97   48  171 1    
    98   48  172 1    
    99   48  173 1    
   100   49   50 am   BACKBONE|DICT|INTERRES
   101   49  174 1    
   102   50   51 2    
   103   50   52 1    
   104   52   53 1    
   105   52   54 1    
   106   52  175 1    
   107   53  176 1    
   108   53  177 1    
   109   53  178 1    
   110   54   55 am   BACKBONE|DICT|INTERRES
   111   54  179 1    
   112   55   56 2    
   113   55   57 1    
   114   57   58 1    
   115   57   59 1    
   116   57  180 1    
   117   58  181 1    
   118   58  182 1    
   119   58  183 1    
   120   59   60 am   BACKBONE|DICT|INTERRES
   121   59  184 1    
   122   60   61 2    
   123   60   62 1    
   124   62   63 1    
   125   62   64 1    
   126   62  185 1    
   127   63  186 1    
   128   63  187 1    
   129   63  188 1    
   130   64   65 am   BACKBONE|DICT|INTERRES
   131   64  189 1    
   132   65   66 2    
   133   67   68 2    
   134   67   69 am   BACKBONE|DICT|INTERRES
   135   69   70 1    
   136   69  190 1    
   137   70   71 1    
   138   70   72 1    
   139   70  191 1    
   140   71  192 1    
   141   71  193 1    
   142   71  194 1    
   143   72   73 2    
   144   72   74 am   BACKBONE|DICT|INTERRES
   145   74   75 1    
   146   74  195 1    
   147   75   76 1    
   148   75   77 1    
   149   75  196 1    
   150   76  197 1    
   151   76  198 1    
   152   76  199 1    
   153   77   78 2    
   154   77   79 am   BACKBONE|DICT|INTERRES
   155   79   80 1    
   156   79  200 1    
   157   80   81 1    
   158   80   82 1    
   159   80  201 1    
   160   81  202 1    
   161   81  203 1    
   162   81  204 1    
   163   82   83 2    
   164   82   84 am   BACKBONE|DICT|INTERRES
   165   84   85 1    
   166   84  205 1    
   167   85   86 1    
   168   85   87 1    
   169   85  206 1    
   170   86  207 1    
   171   86  208 1    
   172   86  209 1    
   173   87   88 2    
   174   87   89 am   BACKBONE|DICT|INTERRES
   175   89   90 1    
   176   89  210 1    
   177   90   91 1    
   178   90   92 1    
   179   90  211 1    
   180   91  212 1    
   181   91  213 1    
   182   91  214 1    
   183   92   93 2    
   184   92   94 am   BACKBONE|DICT|INTERRES
   185   94   95 1    
   186   94  215 1    
   187   95   96 1    
   188   95   97 1    
   189   95  216 1    
   190   96  217 1    
   191   96  218 1    
   192   96  219 1    
   193   97   98 2    
   194   97   99 am   BACKBONE|DICT|INTERRES
   195   99  100 1    
   196   99  220 1    
   197  100  101 1    
   198  100  102 1    
   199  100  221 1    
   200  101  222 1    
   201  101  223 1    
   202  101  224 1    
   203  102  103 2    
   204  102  104 am   BACKBONE|DICT|INTERRES
   205  104  105 1    
   206  104  225 1    
   207  105  106 1    
   208  105  107 1    
   209  105  226 1    
   210  106  227 1    
   211  106  228 1    
   212  106  229 1    
   213  107  108 2    
   214  107  109 am   BACKBONE|DICT|INTERRES
   215  109  110 1    
   216  109  230 1    
   217  110  111 1    
   218  110  112 1    
   219  110  231 1    
   220  111  232 1    
   221  111  233 1    
   222  111  234 1    
   223  112  113 2    
   224  112  114 am   BACKBONE|DICT|INTERRES
   225  114  115 1    
   226  114  235 1    
   227  115  116 1    
   228  115  117 1    
   229  115  236 1    
   230  116  237 1    
   231  116  238 1    
   232  116  239 1    
   233  117  118 2    
   234  117  119 am   BACKBONE|DICT|INTERRES
   235  119  120 1    
   236  119  240 1    
   237  120  121 1    
   238  120  124 1    
   239  120  241 1    
   240  121  122 am   BACKBONE|DICT|INTERRES
   241  121  123 2    
   242  122  242 1    
   243  122  243 1    
   244  124  125 1    
   245  124  244 1    
   246  124  245 1    
   247  125  126 1    
   248  126  246 1    
   249  126  247 1    
@<TRIPOS>SUBSTRUCTURE
     1 UNK         1 GROUP             0       ****    0 ROOT    
