@<TRIPOS>MOLECULE
3R540
247   249    1
SMALL
USER_CHARGES


@<TRIPOS>ATOM
      1 CA          3.1293  -20.2297  -51.3446 C.3       0 UNK        -0.1800 
      2 C           2.8451  -19.0042  -50.4858 C.2       0 UNK         0.5000 
      3 O           2.8824  -17.8847  -50.9946 O.2       0 UNK        -0.5000 
      4 N           2.5402  -19.2315  -49.2006 N.am      1 UNK        -0.5000 
      5 CA          2.2523  -18.2453  -48.1519 C.3       1 UNK         0.1400 
      6 C6          1.2502  -17.1361  -48.5709 C.3       23 UNK        -0.0398 
      7 S7          0.4072  -16.3892  -47.1389 S.3       23 UNK        -0.2404 
      8 C8         -0.4224  -14.9643  -47.9061 C.3       23 UNK        -0.0205 
      9 C9         -1.6336  -15.3998  -48.7142 C.ar      23 UNK        -0.0193 
     10 C10        -1.5310  -15.6025  -50.0928 C.ar      23 UNK        -0.1150 
     11 C11        -2.6336  -16.0314  -50.8381 C.ar      23 UNK        -0.0193 
     12 C12        -3.8486  -16.2610  -50.1775 C.ar      23 UNK        -0.1150 
     13 C13        -3.9618  -16.0765  -48.7955 C.ar      23 UNK        -0.0193 
     14 C14        -2.8562  -15.6167  -48.0757 C.ar      23 UNK        -0.1150 
     15 C15        -5.2769  -16.3902  -48.0867 C.3       23 UNK        -0.0205 
     16 S16        -5.1000  -17.5555  -46.6860 S.3       23 UNK        -0.2404 
     17 C17        -4.1232  -18.9132  -47.4185 C.3       23 UNK        -0.0398 
     18 CA         -2.6706  -18.9244  -46.8548 C.3       11 UNK         0.1400 
     19 N          -2.6078  -19.3212  -45.4465 N.am      11 UNK        -0.5000 
     20 C          -2.9032  -20.5238  -44.9322 C.2       10 UNK         0.5000 
     21 O          -3.3149  -21.4698  -45.6050 O.2       10 UNK        -0.5000 
     22 CA         -2.7019  -20.7180  -43.4136 C.3       10 UNK         0.1400 
     23 CB         -1.5087  -21.6495  -43.1490 C.3       10 UNK        -0.1800 
     24 N          -2.4912  -19.4598  -42.6926 N.am      10 UNK        -0.5000 
     25 C          -3.4654  -18.5914  -42.3780 C.2       9 UNK         0.5000 
     26 O          -4.6611  -18.8200  -42.5631 O.2       9 UNK        -0.5000 
     27 CA         -3.0461  -17.2296  -41.7796 C.3       9 UNK         0.1400 
     28 CB         -3.2304  -17.2313  -40.2546 C.3       9 UNK        -0.1800 
     29 N          -1.6679  -16.8399  -42.0829 N.am      9 UNK        -0.5000 
     30 C          -1.1547  -16.6617  -43.3080 C.2       8 UNK         0.5000 
     31 O          -1.8230  -16.7247  -44.3386 O.2       8 UNK        -0.5000 
     32 CA          0.3657  -16.4319  -43.4041 C.3       8 UNK         0.1400 
     33 CB          0.6590  -14.9400  -43.6118 C.3       8 UNK        -0.1800 
     34 N           1.1196  -16.9192  -42.2445 N.am      8 UNK        -0.5000 
     35 C           1.1709  -18.1907  -41.8190 C.2       7 UNK         0.5000 
     36 O           0.5712  -19.1150  -42.3675 O.2       7 UNK        -0.5000 
     37 CA          1.9791  -18.4654  -40.5390 C.3       7 UNK         0.1400 
     38 CB          3.4638  -18.7011  -40.8496 C.3       7 UNK        -0.1800 
     39 N           1.8583  -17.3652  -39.5843 N.am      7 UNK        -0.5000 
     40 C           0.8714  -17.2476  -38.6867 C.2       6 UNK         0.5000 
     41 O          -0.0192  -18.0837  -38.5345 O.2       6 UNK        -0.5000 
     42 CA          0.8718  -15.9745  -37.8192 C.3       6 UNK         0.1400 
     43 CB          1.6938  -16.1950  -36.5403 C.3       6 UNK        -0.1800 
     44 N           1.3876  -14.7995  -38.5241 N.am      6 UNK        -0.5000 
     45 C           0.7643  -14.1936  -39.5438 C.2       5 UNK         0.5000 
     46 O          -0.3246  -14.5539  -39.9921 O.2       5 UNK        -0.5000 
     47 CA          1.4955  -13.0000  -40.1890 C.3       5 UNK         0.1400 
     48 CB          1.1354  -11.6964  -39.4607 C.3       5 UNK        -0.1800 
     49 N           2.9564  -13.1315  -40.2459 N.am      5 UNK        -0.5000 
     50 C           3.6230  -14.1241  -40.8500 C.2       4 UNK         0.5000 
     51 O           3.0852  -15.1258  -41.3241 O.2       4 UNK        -0.5000 
     52 CA          5.1520  -13.9974  -40.9170 C.3       4 UNK         0.1400 
     53 CB          5.8202  -15.0636  -40.0349 C.3       4 UNK        -0.1800 
     54 N           5.6129  -14.1559  -42.2952 N.am      4 UNK        -0.5000 
     55 C           5.5206  -13.2132  -43.2445 C.2       3 UNK         0.5000 
     56 O           5.0815  -12.0808  -43.0396 O.2       3 UNK        -0.5000 
     57 CA          6.0113  -13.5904  -44.6568 C.3       3 UNK         0.1400 
     58 CB          7.4885  -13.2046  -44.8316 C.3       3 UNK        -0.1800 
     59 N           5.8526  -15.0179  -44.9439 N.am      3 UNK        -0.5000 
     60 C           4.6963  -15.5838  -45.3117 C.2       2 UNK         0.5000 
     61 O           3.6604  -14.9505  -45.5235 O.2       2 UNK        -0.5000 
     62 CA          4.7021  -17.1198  -45.4081 C.3       2 UNK         0.1400 
     63 CB          4.5977  -17.7295  -44.0034 C.3       2 UNK        -0.1800 
     64 N           3.5846  -17.6238  -46.2030 N.am      2 UNK        -0.5000 
     65 C           3.5534  -17.6826  -47.5387 C.2       1 UNK         0.5000 
     66 O           4.4946  -17.3410  -48.2586 O.2       1 UNK        -0.5000 
     67 C          -1.6409  -19.6892  -47.7201 C.2       11 UNK         0.5000 
     68 O          -0.6617  -20.2224  -47.1896 O.2       11 UNK        -0.5000 
     69 N          -1.8284  -19.6828  -49.0468 N.am      12 UNK        -0.5000 
     70 CA         -0.9717  -20.3539  -50.0187 C.3       12 UNK         0.1400 
     71 CB         -1.2928  -19.8207  -51.4233 C.3       12 UNK        -0.1800 
     72 C          -1.1152  -21.8825  -49.9326 C.2       12 UNK         0.5000 
     73 O          -1.9080  -22.4697  -50.6711 O.2       12 UNK        -0.5000 
     74 N          -0.3571  -22.5016  -49.0188 N.am      13 UNK        -0.5000 
     75 CA         -0.3172  -23.9460  -48.7647 C.3       13 UNK         0.1400 
     76 CB          0.6739  -24.2289  -47.6271 C.3       13 UNK        -0.1800 
     77 C           0.0309  -24.7840  -50.0108 C.2       13 UNK         0.5000 
     78 O          -0.5333  -25.8620  -50.1963 O.2       13 UNK        -0.5000 
     79 N           0.8946  -24.2338  -50.8764 N.am      14 UNK        -0.5000 
     80 CA          1.2631  -24.7884  -52.1828 C.3       14 UNK         0.1400 
     81 CB          2.4326  -23.9694  -52.7508 C.3       14 UNK        -0.1800 
     82 C           0.0970  -24.8293  -53.1946 C.2       14 UNK         0.5000 
     83 O           0.1438  -25.6186  -54.1381 O.2       14 UNK        -0.5000 
     84 N          -0.9293  -23.9992  -52.9690 N.am      15 UNK        -0.5000 
     85 CA         -2.1731  -23.9334  -53.7332 C.3       15 UNK         0.1400 
     86 CB         -2.4243  -22.4678  -54.1247 C.3       15 UNK        -0.1800 
     87 C          -3.3440  -24.5206  -52.9192 C.2       15 UNK         0.5000 
     88 O          -4.4862  -24.0961  -53.1040 O.2       15 UNK        -0.5000 
     89 N          -3.0365  -25.4678  -52.0183 N.am      16 UNK        -0.5000 
     90 CA         -3.9553  -26.1899  -51.1336 C.3       16 UNK         0.1400 
     91 CB         -4.8807  -27.1138  -51.9527 C.3       16 UNK        -0.1800 
     92 C          -4.7133  -25.2514  -50.1730 C.2       16 UNK         0.5000 
     93 O          -5.9352  -25.3358  -50.0567 O.2       16 UNK        -0.5000 
     94 N          -3.9603  -24.3501  -49.5256 N.am      17 UNK        -0.5000 
     95 CA         -4.4286  -23.2836  -48.6297 C.3       17 UNK         0.1400 
     96 CB         -5.1157  -23.8619  -47.3750 C.3       17 UNK        -0.1800 
     97 C          -5.2903  -22.2511  -49.3839 C.2       17 UNK         0.5000 
     98 O          -6.3446  -21.8394  -48.8989 O.2       17 UNK        -0.5000 
     99 N          -4.8140  -21.8806  -50.5817 N.am      18 UNK        -0.5000 
    100 CA        -5.4335  -20.9802  -51.5589 C.3       18 UNK         0.1400 
    101 CB        -5.5654  -19.5516  -50.9953 C.3       18 UNK        -0.1800 
    102 C         -6.7507  -21.4969  -52.1783 C.2       18 UNK         0.5000 
    103 O         -7.4575  -20.7178  -52.8198 O.2       18 UNK        -0.5000 
    104 N         -7.0464  -22.7987  -52.0449 N.am      19 UNK        -0.5000 
    105 CA        -8.1929  -23.4521  -52.6853 C.3       19 UNK         0.1400 
    106 CB        -8.3904  -24.8565  -52.1008 C.3       19 UNK        -0.1800 
    107 C         -8.0619  -23.5134  -54.2196 C.2       19 UNK         0.5000 
    108 O         -9.0747  -23.4440  -54.9159 O.2       19 UNK        -0.5000 
    109 N         -6.8194  -23.5769  -54.7198 N.am      20 UNK        -0.5000 
    110 CA        -6.4698  -23.4586  -56.1377 C.3       20 UNK         0.1400 
    111 CB        -5.2661  -24.3690  -56.4376 C.3       20 UNK        -0.1800 
    112 C         -6.2207  -21.9909  -56.5591 C.2       20 UNK         0.5000 
    113 O         -5.4858  -21.7461  -57.5180 O.2       20 UNK        -0.5000 
    114 N         -6.8195  -21.0356  -55.8287 N.am      21 UNK        -0.5000 
    115 CA        -6.8474  -19.5885  -56.0801 C.3       21 UNK         0.1400 
    116 CB        -7.6845  -19.2849  -57.3401 C.3       21 UNK        -0.1800 
    117 C         -5.4540  -18.9262  -56.1184 C.2       21 UNK         0.5000 
    118 O         -5.2629  -17.9368  -56.8278 O.2       21 UNK        -0.5000 
    119 N         -4.5063  -19.4965  -55.3622 N.am      22 UNK        -0.5000 
    120 CA        -3.0865  -19.1018  -55.3059 C.3       22 UNK         0.1400 
    121 C         -2.2921  -19.3858  -56.6192 C.2       22 UNK         0.5000 
    122 N         -2.7937  -20.2079  -57.5356 N.am      22 UNK        -0.7600 
    123 O         -1.1863  -18.8839  -56.8005 O.2       22 UNK        -0.5000 
    124 C124       -2.8663  -17.6641  -54.7531 C.3       23 UNK        -0.0398 
    125 S125       -3.5709  -17.4743  -53.0804 S.3       23 UNK        -0.2404 
    126 C126       -2.4744  -16.2129  -52.3490 C.3       23 UNK        -0.0205 
    127 H127        3.0822  -21.1535  -50.7676 H         1 UNK         0.0600 
    128 H128        4.1235  -20.1562  -51.7855 H         1 UNK         0.0600 
    129 H129        2.4014  -20.2968  -52.1533 H         1 UNK         0.0600 
    130 H130        2.5881  -20.1826  -48.8649 H         1 UNK         0.3000 
    131 H131        1.7646  -18.8400  -47.3772 H         1 UNK         0.0600 
    132 H132        0.4796  -17.5576  -49.2172 H         1 UNK         0.0800 
    133 H133        1.7457  -16.3553  -49.1504 H         1 UNK         0.0800 
    134 H134        0.2836  -14.4123  -48.5283 H         1 UNK         0.0800 
    135 H135       -0.7370  -14.2775  -47.1190 H         1 UNK         0.0800 
    136 H136       -0.5854  -15.4273  -50.5867 H         1 UNK         0.1150 
    137 H137       -4.7129  -16.5890  -50.7364 H         1 UNK         0.1150 
    138 H138       -2.9350  -15.4699  -47.0069 H         1 UNK         0.1150 
    139 H139       -5.7091  -15.4593  -47.7179 H         1 UNK         0.0800 
    140 H140       -6.0004  -16.8073  -48.7890 H         1 UNK         0.0800 
    141 H141       -4.1498  -18.7875  -48.4974 H         1 UNK         0.0800 
    142 H142       -4.6311  -19.8585  -47.2244 H         1 UNK         0.0800 
    143 H143       -2.2988  -17.9020  -46.8632 H         1 UNK         0.0600 
    144 H144       -2.2854  -18.5900  -44.8222 H         1 UNK         0.3000 
    145 H145       -3.6004  -21.1994  -43.0221 H         1 UNK         0.0600 
    146 H146       -1.3525  -21.8016  -42.0809 H         1 UNK         0.0600 
    147 H147       -1.6727  -22.6302  -43.5973 H         1 UNK         0.0600 
    148 H148       -0.5862  -21.2488  -43.5710 H         1 UNK         0.0600 
    149 H149       -1.5261  -19.2064  -42.5091 H         1 UNK         0.3000 
    150 H150       -3.7039  -16.4699  -42.2063 H         1 UNK         0.0600 
    151 H151       -4.2601  -17.4690  -39.9846 H         1 UNK         0.0600 
    152 H152       -2.9989  -16.2552  -39.8273 H         1 UNK         0.0600 
    153 H153       -2.5857  -17.9686  -39.7744 H         1 UNK         0.0600 
    154 H154       -1.0461  -16.7309  -41.2939 H         1 UNK         0.3000 
    155 H155        0.7279  -16.9812  -44.2740 H         1 UNK         0.0600 
    156 H156        0.2537  -14.3392  -42.7989 H         1 UNK         0.0600 
    157 H157        0.2102  -14.5808  -44.5386 H         1 UNK         0.0600 
    158 H158        1.7295  -14.7478  -43.6747 H         1 UNK         0.0600 
    159 H159        1.6995  -16.2296  -41.7716 H         1 UNK         0.3000 
    160 H160        1.5849  -19.3811  -40.0928 H         1 UNK         0.0600 
    161 H161        3.9972  -19.0448  -39.9633 H         1 UNK         0.0600 
    162 H162        3.9525  -17.7908  -41.1950 H         1 UNK         0.0600 
    163 H163        3.5894  -19.4628  -41.6202 H         1 UNK         0.0600 
    164 H164        2.5139  -16.6028  -39.6883 H         1 UNK         0.3000 
    165 H165       -0.1616  -15.7713  -37.5301 H         1 UNK         0.0600 
    166 H166        1.6388  -15.3282  -35.8815 H         1 UNK         0.0600 
    167 H167        1.3199  -17.0524  -35.9790 H         1 UNK         0.0600 
    168 H168        2.7450  -16.3819  -36.7637 H         1 UNK         0.0600 
    169 H169        2.2792  -14.4364  -38.2208 H         1 UNK         0.3000 
    170 H170        1.1405  -12.9159  -41.2168 H         1 UNK         0.0600 
    171 H171        0.0542  -11.5560  -39.4217 H         1 UNK         0.0600 
    172 H172        1.5042  -11.6932  -38.4343 H         1 UNK         0.0600 
    173 H173        1.5547  -10.8295  -39.9717 H         1 UNK         0.0600 
    174 H174        3.4834  -12.3551  -39.8729 H         1 UNK         0.3000 
    175 H175        5.4519  -13.0124  -40.5530 H         1 UNK         0.0600 
    176 H176        5.5773  -16.0742  -40.3654 H         1 UNK         0.0600 
    177 H177        6.9053  -14.9600  -40.0469 H         1 UNK         0.0600 
    178 H178        5.4970  -14.9710  -38.9972 H         1 UNK         0.0600 
    179 H179        5.9460  -15.0709  -42.5555 H         1 UNK         0.3000 
    180 H180        5.4254  -13.0149  -45.3770 H         1 UNK         0.0600 
    181 H181        8.1333  -13.7503  -44.1416 H         1 UNK         0.0600 
    182 H182        7.6379  -12.1398  -44.6477 H         1 UNK         0.0600 
    183 H183        7.8318  -13.4090  -45.8459 H         1 UNK         0.0600 
    184 H184        6.6656  -15.6003  -44.8034 H         1 UNK         0.3000 
    185 H185        5.6407  -17.4416  -45.8644 H         1 UNK         0.0600 
    186 H186        3.6860  -17.4017  -43.5039 H         1 UNK         0.0600 
    187 H187        5.4403  -17.4347  -43.3770 H         1 UNK         0.0600 
    188 H188        4.5887  -18.8189  -44.0419 H         1 UNK         0.0600 
    189 H189        2.7522  -17.8665  -45.6870 H         1 UNK         0.3000 
    190 H190       -2.6213  -19.1913  -49.4293 H         1 UNK         0.3000 
    191 H191        0.0654  -20.1026  -49.8013 H         1 UNK         0.0600 
    192 H192       -0.6937  -20.3248  -52.1828 H         1 UNK         0.0600 
    193 H193       -1.0731  -18.7558  -51.4945 H         1 UNK         0.0600 
    194 H194       -2.3421  -19.9640  -51.6814 H         1 UNK         0.0600 
    195 H195        0.1617  -21.9198  -48.3730 H         1 UNK         0.3000 
    196 H196       -1.3095  -24.2497  -48.4282 H         1 UNK         0.0600 
    197 H197        0.7104  -25.2943  -47.3957 H         1 UNK         0.0600 
    198 H198        0.3831  -23.7092  -46.7136 H         1 UNK         0.0600 
    199 H199        1.6855  -23.9133  -47.8854 H         1 UNK         0.0600 
    200 H200        1.3050  -23.3447  -50.6346 H         1 UNK         0.3000 
    201 H201        1.6016  -25.8153  -52.0301 H         1 UNK         0.0600 
    202 H202        2.1524  -22.9280  -52.9147 H         1 UNK         0.0600 
    203 H203        2.7647  -24.3738  -53.7079 H         1 UNK         0.0600 
    204 H204        3.2906  -23.9854  -52.0783 H         1 UNK         0.0600 
    205 H205       -0.9145  -23.4214  -52.1365 H         1 UNK         0.3000 
    206 H206       -2.0932  -24.5224  -54.6486 H         1 UNK         0.0600 
    207 H207       -1.5838  -22.0658  -54.6905 H         1 UNK         0.0600 
    208 H208       -3.3115  -22.3631  -54.7483 H         1 UNK         0.0600 
    209 H209       -2.5670  -21.8416  -53.2451 H         1 UNK         0.0600 
    210 H210       -2.0598  -25.7072  -51.9057 H         1 UNK         0.3000 
    211 H211       -3.3363  -26.8279  -50.5010 H         1 UNK         0.0600 
    212 H212       -4.3008  -27.8300  -52.5344 H         1 UNK         0.0600 
    213 H213       -5.5057  -26.5536  -52.6473 H         1 UNK         0.0600 
    214 H214       -5.5424  -27.6867  -51.3020 H         1 UNK         0.0600 
    215 H215       -2.9817  -24.3069  -49.7731 H         1 UNK         0.3000 
    216 H216       -3.5409  -22.7478  -48.2907 H         1 UNK         0.0600 
    217 H217       -5.3476  -23.0702  -46.6617 H         1 UNK         0.0600 
    218 H218       -4.4682  -24.5754  -46.8657 H         1 UNK         0.0600 
    219 H219       -6.0522  -24.3659  -47.6137 H         1 UNK         0.0600 
    220 H220       -3.9263  -22.2823  -50.8653 H         1 UNK         0.3000 
    221 H221       -4.7323  -20.9290  -52.3923 H         1 UNK         0.0600 
    222 H222       -6.2270  -19.5063  -50.1306 H         1 UNK         0.0600 
    223 H223       -4.5919  -19.1641  -50.7020 H         1 UNK         0.0600 
    224 H224       -5.9644  -18.8656  -51.7432 H         1 UNK         0.0600 
    225 H225       -6.4062  -23.3956  -51.5379 H         1 UNK         0.3000 
    226 H226       -9.0840  -22.8647  -52.4542 H         1 UNK         0.0600 
    227 H227       -9.2723  -25.3365  -52.5267 H         1 UNK         0.0600 
    228 H228       -7.5360  -25.4997  -52.3070 H         1 UNK         0.0600 
    229 H229       -8.5301  -24.8185  -51.0203 H         1 UNK         0.0600 
    230 H230       -6.0392  -23.6610  -54.0708 H         1 UNK         0.3000 
    231 H231       -7.3043  -23.8171  -56.7433 H         1 UNK         0.0600 
    232 H232       -5.4603  -25.3945  -56.1228 H         1 UNK         0.0600 
    233 H233       -4.3648  -24.0304  -55.9306 H         1 UNK         0.0600 
    234 H234       -5.0499  -24.3949  -57.5062 H         1 UNK         0.0600 
    235 H235       -7.3569  -21.3314  -55.0240 H         1 UNK         0.3000 
    236 H236       -7.3636  -19.1442  -55.2280 H         1 UNK         0.0600 
    237 H237       -8.6708  -19.7447  -57.2780 H         1 UNK         0.0600 
    238 H238       -7.8370  -18.2120  -57.4626 H         1 UNK         0.0600 
    239 H239       -7.1991  -19.6524  -58.2448 H         1 UNK         0.0600 
    240 H240       -4.7620  -20.3126  -54.8296 H         1 UNK         0.3000 
    241 H241       -2.6325  -19.7726  -54.5788 H         1 UNK         0.0600 
    242 H242       -3.7062  -20.6337  -57.4208 H         1 UNK         0.3800 
    243 H243       -2.2646  -20.3907  -58.3733 H         1 UNK         0.3800 
    244 H244       -1.7997  -17.4409  -54.7027 H         1 UNK         0.0800 
    245 H245       -3.3027  -16.9137  -55.4128 H         1 UNK         0.0800 
    246 H246       -1.4409  -16.4829  -52.5712 H         1 UNK         0.0800 
    247 H247       -2.6603  -15.2566  -52.8389 H         1 UNK         0.0800 
@<TRIPOS>BOND
     1    1    2 1    
     2    1  127 1    
     3    1  128 1    
     4    1  129 1    
     5    2    3 2    
     6    2    4 am   BACKBONE|DICT|INTERRES
     7    4    5 1    
     8    4  130 1    
     9    5    6 1    
    10    5   65 1    
    11    5  131 1    
    12    6    7 1    
    13    6  132 1    
    14    6  133 1    
    15    7    8 1    
    16    8    9 1    
    17    8  134 1    
    18    8  135 1    
    19    9   10 ar   
    20    9   14 ar   
    21   10   11 ar   
    22   10  136 1    
    23   11   12 ar   
    24   11  126 1    
    25   12   13 ar   
    26   12  137 1    
    27   13   14 ar   
    28   13   15 1    
    29   14  138 1    
    30   15   16 1    
    31   15  139 1    
    32   15  140 1    
    33   16   17 1    
    34   17   18 1    
    35   17  141 1    
    36   17  142 1    
    37   18   19 1    
    38   18   67 1    
    39   18  143 1    
    40   19   20 am   BACKBONE|DICT|INTERRES
    41   19  144 1    
    42   20   21 2    
    43   20   22 1    
    44   22   23 1    
    45   22   24 1    
    46   22  145 1    
    47   23  146 1    
    48   23  147 1    
    49   23  148 1    
    50   24   25 am   BACKBONE|DICT|INTERRES
    51   24  149 1    
    52   25   26 2    
    53   25   27 1    
    54   27   28 1    
    55   27   29 1    
    56   27  150 1    
    57   28  151 1    
    58   28  152 1    
    59   28  153 1    
    60   29   30 am   BACKBONE|DICT|INTERRES
    61   29  154 1    
    62   30   31 2    
    63   30   32 1    
    64   32   33 1    
    65   32   34 1    
    66   32  155 1    
    67   33  156 1    
    68   33  157 1    
    69   33  158 1    
    70   34   35 am   BACKBONE|DICT|INTERRES
    71   34  159 1    
    72   35   36 2    
    73   35   37 1    
    74   37   38 1    
    75   37   39 1    
    76   37  160 1    
    77   38  161 1    
    78   38  162 1    
    79   38  163 1    
    80   39   40 am   BACKBONE|DICT|INTERRES
    81   39  164 1    
    82   40   41 2    
    83   40   42 1    
    84   42   43 1    
    85   42   44 1    
    86   42  165 1    
    87   43  166 1    
    88   43  167 1    
    89   43  168 1    
    90   44   45 am   BACKBONE|DICT|INTERRES
    91   44  169 1    
    92   45   46 2    
    93   45   47 1    
    94   47   48 1    
    95   47   49 1    
    96   47  170 1    
    97   48  171 1    
    98   48  172 1    
    99   48  173 1    
   100   49   50 am   BACKBONE|DICT|INTERRES
   101   49  174 1    
   102   50   51 2    
   103   50   52 1    
   104   52   53 1    
   105   52   54 1    
   106   52  175 1    
   107   53  176 1    
   108   53  177 1    
   109   53  178 1    
   110   54   55 am   BACKBONE|DICT|INTERRES
   111   54  179 1    
   112   55   56 2    
   113   55   57 1    
   114   57   58 1    
   115   57   59 1    
   116   57  180 1    
   117   58  181 1    
   118   58  182 1    
   119   58  183 1    
   120   59   60 am   BACKBONE|DICT|INTERRES
   121   59  184 1    
   122   60   61 2    
   123   60   62 1    
   124   62   63 1    
   125   62   64 1    
   126   62  185 1    
   127   63  186 1    
   128   63  187 1    
   129   63  188 1    
   130   64   65 am   BACKBONE|DICT|INTERRES
   131   64  189 1    
   132   65   66 2    
   133   67   68 2    
   134   67   69 am   BACKBONE|DICT|INTERRES
   135   69   70 1    
   136   69  190 1    
   137   70   71 1    
   138   70   72 1    
   139   70  191 1    
   140   71  192 1    
   141   71  193 1    
   142   71  194 1    
   143   72   73 2    
   144   72   74 am   BACKBONE|DICT|INTERRES
   145   74   75 1    
   146   74  195 1    
   147   75   76 1    
   148   75   77 1    
   149   75  196 1    
   150   76  197 1    
   151   76  198 1    
   152   76  199 1    
   153   77   78 2    
   154   77   79 am   BACKBONE|DICT|INTERRES
   155   79   80 1    
   156   79  200 1    
   157   80   81 1    
   158   80   82 1    
   159   80  201 1    
   160   81  202 1    
   161   81  203 1    
   162   81  204 1    
   163   82   83 2    
   164   82   84 am   BACKBONE|DICT|INTERRES
   165   84   85 1    
   166   84  205 1    
   167   85   86 1    
   168   85   87 1    
   169   85  206 1    
   170   86  207 1    
   171   86  208 1    
   172   86  209 1    
   173   87   88 2    
   174   87   89 am   BACKBONE|DICT|INTERRES
   175   89   90 1    
   176   89  210 1    
   177   90   91 1    
   178   90   92 1    
   179   90  211 1    
   180   91  212 1    
   181   91  213 1    
   182   91  214 1    
   183   92   93 2    
   184   92   94 am   BACKBONE|DICT|INTERRES
   185   94   95 1    
   186   94  215 1    
   187   95   96 1    
   188   95   97 1    
   189   95  216 1    
   190   96  217 1    
   191   96  218 1    
   192   96  219 1    
   193   97   98 2    
   194   97   99 am   BACKBONE|DICT|INTERRES
   195   99  100 1    
   196   99  220 1    
   197  100  101 1    
   198  100  102 1    
   199  100  221 1    
   200  101  222 1    
   201  101  223 1    
   202  101  224 1    
   203  102  103 2    
   204  102  104 am   BACKBONE|DICT|INTERRES
   205  104  105 1    
   206  104  225 1    
   207  105  106 1    
   208  105  107 1    
   209  105  226 1    
   210  106  227 1    
   211  106  228 1    
   212  106  229 1    
   213  107  108 2    
   214  107  109 am   BACKBONE|DICT|INTERRES
   215  109  110 1    
   216  109  230 1    
   217  110  111 1    
   218  110  112 1    
   219  110  231 1    
   220  111  232 1    
   221  111  233 1    
   222  111  234 1    
   223  112  113 2    
   224  112  114 am   BACKBONE|DICT|INTERRES
   225  114  115 1    
   226  114  235 1    
   227  115  116 1    
   228  115  117 1    
   229  115  236 1    
   230  116  237 1    
   231  116  238 1    
   232  116  239 1    
   233  117  118 2    
   234  117  119 am   BACKBONE|DICT|INTERRES
   235  119  120 1    
   236  119  240 1    
   237  120  121 1    
   238  120  124 1    
   239  120  241 1    
   240  121  122 am   BACKBONE|DICT|INTERRES
   241  121  123 2    
   242  122  242 1    
   243  122  243 1    
   244  124  125 1    
   245  124  244 1    
   246  124  245 1    
   247  125  126 1    
   248  126  246 1    
   249  126  247 1    
@<TRIPOS>SUBSTRUCTURE
     1 UNK         1 GROUP             0       ****    0 ROOT    
