@<TRIPOS>MOLECULE
3R540
247   249    1
SMALL
USER_CHARGES


@<TRIPOS>ATOM
      1 CA          3.6623  -10.7381  -49.8721 C.3       0 UNK        -0.1800 
      2 C           3.2049  -11.9441  -49.0650 C.2       0 UNK         0.5000 
      3 O           2.6064  -11.7791  -48.0021 O.2       0 UNK        -0.5000 
      4 N           3.4682  -13.1570  -49.5718 N.am      1 UNK        -0.5000 
      5 CA          3.1171  -14.4352  -48.9364 C.3       1 UNK         0.1400 
      6 C6          3.7966  -15.6403  -49.6360 C.3       23 UNK        -0.0398 
      7 S7          3.2718  -15.8820  -51.3725 S.3       23 UNK        -0.2404 
      8 C8          3.3896  -17.6967  -51.5564 C.3       23 UNK        -0.0205 
      9 C9          2.4222  -18.5370  -50.7175 C.ar      23 UNK        -0.0193 
     10 C10         1.2459  -18.0192  -50.1564 C.ar      23 UNK        -0.1150 
     11 C11         0.3958  -18.8305  -49.3974 C.ar      23 UNK        -0.0193 
     12 C12         0.7114  -20.1803  -49.2284 C.ar      23 UNK        -0.1150 
     13 C13         1.8535  -20.7237  -49.8181 C.ar      23 UNK        -0.0193 
     14 C14         2.7119  -19.8944  -50.5434 C.ar      23 UNK        -0.1150 
     15 C15         2.1133  -22.2178  -49.7286 C.3       23 UNK        -0.0205 
     16 S16         2.7984  -22.7104  -48.1162 S.3       23 UNK        -0.2404 
     17 C17         2.4644  -24.5108  -48.1804 C.3       23 UNK        -0.0398 
     18 CA          1.2762  -24.9755  -47.2997 C.3       11 UNK         0.1400 
     19 N           1.5639  -24.8097  -45.8739 N.am      11 UNK        -0.5000 
     20 C           0.7746  -25.1887  -44.8589 C.2       10 UNK         0.5000 
     21 O          -0.2661  -25.8293  -45.0122 O.2       10 UNK        -0.5000 
     22 CA          1.1807  -24.7231  -43.4433 C.3       10 UNK         0.1400 
     23 CB          1.7637  -25.8965  -42.6419 C.3       10 UNK        -0.1800 
     24 N           2.1346  -23.6043  -43.4138 N.am      10 UNK        -0.5000 
     25 C           1.9431  -22.3983  -43.9673 C.2       9 UNK         0.5000 
     26 O           0.9155  -22.0873  -44.5801 O.2       9 UNK        -0.5000 
     27 CA          3.1093  -21.3996  -43.8696 C.3       9 UNK         0.1400 
     28 CB          4.4201  -21.9878  -44.4329 C.3       9 UNK        -0.1800 
     29 N           2.7276  -20.2133  -44.6221 N.am      9 UNK        -0.5000 
     30 C           3.2869  -19.0024  -44.5779 C.2       8 UNK         0.5000 
     31 O           4.2721  -18.7276  -43.8882 O.2       8 UNK        -0.5000 
     32 CA          2.6524  -17.9323  -45.4933 C.3       8 UNK         0.1400 
     33 CB          1.1410  -18.1570  -45.7270 C.3       8 UNK        -0.1800 
     34 N           2.9188  -16.5628  -45.0398 N.am      8 UNK        -0.5000 
     35 C           2.5021  -15.9823  -43.9054 C.2       7 UNK         0.5000 
     36 O           1.7946  -16.5453  -43.0671 O.2       7 UNK        -0.5000 
     37 CA          2.9600  -14.5256  -43.6752 C.3       7 UNK         0.1400 
     38 CB          3.0971  -13.7244  -44.9861 C.3       7 UNK        -0.1800 
     39 N           2.0189  -13.8207  -42.8087 N.am      7 UNK        -0.5000 
     40 C           2.1466  -13.6532  -41.4873 C.2       6 UNK         0.5000 
     41 O           3.1109  -14.0579  -40.8359 O.2       6 UNK        -0.5000 
     42 CA          1.0152  -12.9009  -40.7657 C.3       6 UNK         0.1400 
     43 CB          1.2135  -11.3812  -40.8862 C.3       6 UNK        -0.1800 
     44 N          -0.3036  -13.2556  -41.2938 N.am      6 UNK        -0.5000 
     45 C          -1.3488  -13.6491  -40.5516 C.2       5 UNK         0.5000 
     46 O          -1.3202  -13.7416  -39.3235 O.2       5 UNK        -0.5000 
     47 CA         -2.6577  -13.9952  -41.2948 C.3       5 UNK         0.1400 
     48 CB         -3.6232  -12.8004  -41.2640 C.3       5 UNK        -0.1800 
     49 N          -2.4405  -14.3888  -42.6865 N.am      5 UNK        -0.5000 
     50 C          -1.8461  -15.5238  -43.0760 C.2       4 UNK         0.5000 
     51 O          -1.5701  -16.4399  -42.3015 O.2       4 UNK        -0.5000 
     52 CA         -1.4806  -15.6580  -44.5698 C.3       4 UNK         0.1400 
     53 CB         -2.2997  -16.7721  -45.2386 C.3       4 UNK        -0.1800 
     54 N          -1.6098  -14.4389  -45.3767 N.am      4 UNK        -0.5000 
     55 C          -0.9486  -13.2868  -45.2109 C.2       3 UNK         0.5000 
     56 O          -0.2246  -13.0571  -44.2407 O.2       3 UNK        -0.5000 
     57 CA         -1.1314  -12.2262  -46.3176 C.3       3 UNK         0.1400 
     58 CB         -0.3733  -10.9226  -46.0105 C.3       3 UNK        -0.1800 
     59 N          -0.6914  -12.7256  -47.6209 N.am      3 UNK        -0.5000 
     60 C          -1.3555  -13.5971  -48.3935 C.2       2 UNK         0.5000 
     61 O          -2.4657  -14.0499  -48.1088 O.2       2 UNK        -0.5000 
     62 CA         -0.6608  -14.0749  -49.6823 C.3       2 UNK         0.1400 
     63 CB         -1.1776  -13.2888  -50.8950 C.3       2 UNK        -0.1800 
     64 N           0.7989  -13.9928  -49.6415 N.am      2 UNK        -0.5000 
     65 C           1.5954  -14.6518  -48.7857 C.2       1 UNK         0.5000 
     66 O           1.1792  -15.4006  -47.9044 O.2       1 UNK        -0.5000 
     67 C          -0.0556  -24.3185  -47.7353 C.2       11 UNK         0.5000 
     68 O          -0.6803  -24.8055  -48.6760 O.2       11 UNK        -0.5000 
     69 N          -0.4878  -23.2568  -47.0343 N.am      12 UNK        -0.5000 
     70 CA         -1.7588  -22.5682  -47.2651 C.3       12 UNK         0.1400 
     71 CB         -1.8304  -21.3155  -46.3788 C.3       12 UNK        -0.1800 
     72 C          -2.9815  -23.4694  -47.0192 C.2       12 UNK         0.5000 
     73 O          -3.9722  -23.3480  -47.7391 O.2       12 UNK        -0.5000 
     74 N          -2.8800  -24.3787  -46.0384 N.am      13 UNK        -0.5000 
     75 CA         -3.9108  -25.3693  -45.7312 C.3       13 UNK         0.1400 
     76 CB         -3.6704  -25.9539  -44.3313 C.3       13 UNK        -0.1800 
     77 C          -3.9663  -26.4824  -46.7910 C.2       13 UNK         0.5000 
     78 O          -5.0599  -26.9027  -47.1675 O.2       13 UNK        -0.5000 
     79 N          -2.7941  -26.9049  -47.2879 N.am      14 UNK        -0.5000 
     80 CA         -2.6547  -27.8805  -48.3734 C.3       14 UNK         0.1400 
     81 CB         -1.1877  -28.3243  -48.4801 C.3       14 UNK        -0.1800 
     82 C          -3.1664  -27.3348  -49.7210 C.2       14 UNK         0.5000 
     83 O          -3.8103  -28.0659  -50.4736 O.2       14 UNK        -0.5000 
     84 N          -2.9083  -26.0450  -49.9739 N.am      15 UNK        -0.5000 
     85 CA         -3.4140  -25.2806  -51.1152 C.3       15 UNK         0.1400 
     86 CB         -2.5721  -24.0004  -51.2472 C.3       15 UNK        -0.1800 
     87 C          -4.9093  -24.9157  -51.0038 C.2       15 UNK         0.5000 
     88 O          -5.4808  -24.4291  -51.9818 O.2       15 UNK        -0.5000 
     89 N          -5.4969  -25.1043  -49.8105 N.am      16 UNK        -0.5000 
     90 CA         -6.8559  -24.7230  -49.4081 C.3       16 UNK         0.1400 
     91 CB         -7.8938  -25.6250  -50.1060 C.3       16 UNK        -0.1800 
     92 C          -7.1267  -23.2182  -49.6204 C.2       16 UNK         0.5000 
     93 O          -8.2189  -22.8373  -50.0467 O.2       16 UNK        -0.5000 
     94 N          -6.0889  -22.4020  -49.3816 N.am      17 UNK        -0.5000 
     95 CA         -5.9196  -20.9801  -49.6978 C.3       17 UNK         0.1400 
     96 CB         -6.9279  -20.1079  -48.9263 C.3       17 UNK        -0.1800 
     97 C          -5.9433  -20.6544  -51.2060 C.2       17 UNK         0.5000 
     98 O          -5.0692  -19.9313  -51.6831 O.2       17 UNK        -0.5000 
     99 N          -6.9421  -21.1801  -51.9227 N.am      18 UNK        -0.5000 
    100 CA        -7.2763  -20.8805  -53.3118 C.3       18 UNK         0.1400 
    101 CB        -8.5543  -21.6426  -53.6931 C.3       18 UNK        -0.1800 
    102 C         -6.1562  -21.1684  -54.3245 C.2       18 UNK         0.5000 
    103 O         -5.9207  -20.3356  -55.2004 O.2       18 UNK        -0.5000 
    104 N         -5.4757  -22.3177  -54.1958 N.am      19 UNK        -0.5000 
    105 CA        -4.4550  -22.7543  -55.1577 C.3       19 UNK         0.1400 
    106 CB        -4.1721  -24.2529  -54.9767 C.3       19 UNK        -0.1800 
    107 C         -3.1497  -21.9368  -55.0913 C.2       19 UNK         0.5000 
    108 O         -2.4142  -21.8973  -56.0782 O.2       19 UNK        -0.5000 
    109 N         -2.8963  -21.2927  -53.9455 N.am      20 UNK        -0.5000 
    110 CA        -1.7559  -20.4045  -53.7122 C.3       20 UNK         0.1400 
    111 CB        -1.0853  -20.8125  -52.3907 C.3       20 UNK        -0.1800 
    112 C         -2.1634  -18.9148  -53.7232 C.2       20 UNK         0.5000 
    113 O         -1.2952  -18.0548  -53.5724 O.2       20 UNK        -0.5000 
    114 N         -3.4619  -18.6367  -53.9257 N.am      21 UNK        -0.5000 
    115 CA        -4.1084  -17.3203  -53.9654 C.3       21 UNK         0.1400 
    116 CB        -3.6566  -16.5315  -55.2121 C.3       21 UNK        -0.1800 
    117 C         -3.9547  -16.5221  -52.6519 C.2       21 UNK         0.5000 
    118 O         -3.7420  -15.3081  -52.6838 O.2       21 UNK        -0.5000 
    119 N         -4.0561  -17.2244  -51.5185 N.am      22 UNK        -0.5000 
    120 CA        -3.9401  -16.6603  -50.1663 C.3       22 UNK         0.1400 
    121 C         -5.1874  -15.8237  -49.7671 C.2       22 UNK         0.5000 
    122 N         -5.0168  -14.7878  -48.9588 N.am      22 UNK        -0.7600 
    123 O         -6.3161  -16.1313  -50.1451 O.2       22 UNK        -0.5000 
    124 C124       -3.6523  -17.7465  -49.0960 C.3       23 UNK        -0.0398 
    125 S125       -2.3532  -18.9294  -49.5871 S.3       23 UNK        -0.2404 
    126 C126       -0.8729  -18.2604  -48.7779 C.3       23 UNK        -0.0205 
    127 H127        2.8060  -10.1183  -50.1378 H         1 UNK         0.0600 
    128 H128        4.3524  -10.1337  -49.2835 H         1 UNK         0.0600 
    129 H129        4.1677  -11.0334  -50.7919 H         1 UNK         0.0600 
    130 H130        3.9474  -13.2314  -50.4585 H         1 UNK         0.3000 
    131 H131        3.5159  -14.3933  -47.9219 H         1 UNK         0.0600 
    132 H132        3.6083  -16.5524  -49.0668 H         1 UNK         0.0800 
    133 H133        4.8794  -15.5092  -49.6249 H         1 UNK         0.0800 
    134 H134        3.2227  -17.9405  -52.6063 H         1 UNK         0.0800 
    135 H135        4.4159  -17.9925  -51.3328 H         1 UNK         0.0800 
    136 H136        0.9796  -16.9854  -50.3112 H         1 UNK         0.1150 
    137 H137        0.0469  -20.8193  -48.6686 H         1 UNK         0.1150 
    138 H138        3.5977  -20.3146  -50.9992 H         1 UNK         0.1150 
    139 H139        1.1739  -22.7420  -49.9107 H         1 UNK         0.0800 
    140 H140        2.7957  -22.5365  -50.5179 H         1 UNK         0.0800 
    141 H141        2.3034  -24.8188  -49.2151 H         1 UNK         0.0800 
    142 H142        3.3720  -25.0294  -47.8689 H         1 UNK         0.0800 
    143 H143        1.1543  -26.0483  -47.4614 H         1 UNK         0.0600 
    144 H144        2.3870  -24.2702  -45.6522 H         1 UNK         0.3000 
    145 H145        0.2683  -24.3883  -42.9459 H         1 UNK         0.0600 
    146 H146        1.9619  -25.6101  -41.6089 H         1 UNK         0.0600 
    147 H147        1.0686  -26.7369  -42.6158 H         1 UNK         0.0600 
    148 H148        2.6970  -26.2558  -43.0773 H         1 UNK         0.0600 
    149 H149        3.0061  -23.7827  -42.9358 H         1 UNK         0.3000 
    150 H150        3.2416  -21.1302  -42.8201 H         1 UNK         0.0600 
    151 H151        4.7447  -22.8604  -43.8658 H         1 UNK         0.0600 
    152 H152        5.2339  -21.2643  -44.3871 H         1 UNK         0.0600 
    153 H153        4.3081  -22.2929  -45.4736 H         1 UNK         0.0600 
    154 H154        1.8879  -20.3538  -45.1713 H         1 UNK         0.3000 
    155 H155        3.1486  -18.0264  -46.4604 H         1 UNK         0.0600 
    156 H156        0.7031  -17.3354  -46.2902 H         1 UNK         0.0600 
    157 H157        0.5909  -18.2468  -44.7896 H         1 UNK         0.0600 
    158 H158        0.9636  -19.0652  -46.3029 H         1 UNK         0.0600 
    159 H159        3.5171  -16.0232  -45.6464 H         1 UNK         0.3000 
    160 H160        3.9421  -14.5648  -43.1999 H         1 UNK         0.0600 
    161 H161        2.1945  -13.7857  -45.5961 H         1 UNK         0.0600 
    162 H162        3.9339  -14.0833  -45.5848 H         1 UNK         0.0600 
    163 H163        3.2858  -12.6694  -44.7859 H         1 UNK         0.0600 
    164 H164        1.1830  -13.4777  -43.2764 H         1 UNK         0.3000 
    165 H165        1.0851  -13.1687  -39.7094 H         1 UNK         0.0600 
    166 H166        1.1417  -11.0476  -41.9224 H         1 UNK         0.0600 
    167 H167        0.4641  -10.8405  -40.3080 H         1 UNK         0.0600 
    168 H168        2.1929  -11.0827  -40.5102 H         1 UNK         0.0600 
    169 H169       -0.4114  -13.2189  -42.3022 H         1 UNK         0.3000 
    170 H170       -3.1269  -14.8300  -40.7700 H         1 UNK         0.0600 
    171 H171       -3.8335  -12.4947  -40.2382 H         1 UNK         0.0600 
    172 H172       -3.2105  -11.9360  -41.7859 H         1 UNK         0.0600 
    173 H173       -4.5769  -13.0510  -41.7289 H         1 UNK         0.0600 
    174 H174       -2.6401  -13.6952  -43.3916 H         1 UNK         0.3000 
    175 H175       -0.4296  -15.9447  -44.6030 H         1 UNK         0.0600 
    176 H176       -3.3625  -16.5290  -45.2657 H         1 UNK         0.0600 
    177 H177       -1.9650  -16.9364  -46.2614 H         1 UNK         0.0600 
    178 H178       -2.1888  -17.7184  -44.7072 H         1 UNK         0.0600 
    179 H179       -2.1651  -14.5212  -46.2221 H         1 UNK         0.3000 
    180 H180       -2.1961  -11.9905  -46.3719 H         1 UNK         0.0600 
    181 H181        0.7030  -11.0896  -45.9457 H         1 UNK         0.0600 
    182 H182       -0.6977  -10.4941  -45.0613 H         1 UNK         0.0600 
    183 H183       -0.5492  -10.1727  -46.7818 H         1 UNK         0.0600 
    184 H184        0.2389  -12.4509  -47.9081 H         1 UNK         0.3000 
    185 H185       -0.9223  -15.1228  -49.8266 H         1 UNK         0.0600 
    186 H186       -2.2642  -13.3554  -50.9694 H         1 UNK         0.0600 
    187 H187       -0.9153  -12.2320  -50.8322 H         1 UNK         0.0600 
    188 H188       -0.7684  -13.6845  -51.8249 H         1 UNK         0.0600 
    189 H189        1.2385  -13.4026  -50.3324 H         1 UNK         0.3000 
    190 H190        0.0789  -22.9135  -46.2652 H         1 UNK         0.3000 
    191 H191       -1.7854  -22.2526  -48.3098 H         1 UNK         0.0600 
    192 H192       -2.7258  -20.7325  -46.5989 H         1 UNK         0.0600 
    193 H193       -0.9716  -20.6650  -46.5379 H         1 UNK         0.0600 
    194 H194       -1.8550  -21.5736  -45.3193 H         1 UNK         0.0600 
    195 H195       -2.0104  -24.4536  -45.5270 H         1 UNK         0.3000 
    196 H196       -4.8798  -24.8653  -45.7233 H         1 UNK         0.0600 
    197 H197       -4.4678  -26.6463  -44.0585 H         1 UNK         0.0600 
    198 H198       -3.6478  -25.1699  -43.5744 H         1 UNK         0.0600 
    199 H199       -2.7299  -26.5023  -44.2751 H         1 UNK         0.0600 
    200 H200       -1.9430  -26.5000  -46.9237 H         1 UNK         0.3000 
    201 H201       -3.2559  -28.7558  -48.1184 H         1 UNK         0.0600 
    202 H202       -0.8308  -28.7397  -47.5375 H         1 UNK         0.0600 
    203 H203       -0.5319  -27.4975  -48.7524 H         1 UNK         0.0600 
    204 H204       -1.0708  -29.0970  -49.2410 H         1 UNK         0.0600 
    205 H205       -2.2897  -25.5447  -49.3406 H         1 UNK         0.3000 
    206 H206       -3.2860  -25.8787  -52.0193 H         1 UNK         0.0600 
    207 H207       -1.5188  -24.2333  -51.4043 H         1 UNK         0.0600 
    208 H208       -2.8992  -23.3949  -52.0909 H         1 UNK         0.0600 
    209 H209       -2.6470  -23.3777  -50.3554 H         1 UNK         0.0600 
    210 H210       -4.9269  -25.4945  -49.0728 H         1 UNK         0.3000 
    211 H211       -6.9232  -24.9007  -48.3340 H         1 UNK         0.0600 
    212 H212       -7.9125  -25.4607  -51.1839 H         1 UNK         0.0600 
    213 H213       -8.8981  -25.4323  -49.7272 H         1 UNK         0.0600 
    214 H214       -7.6783  -26.6792  -49.9311 H         1 UNK         0.0600 
    215 H215       -5.2619  -22.8365  -48.9760 H         1 UNK         0.3000 
    216 H216       -4.9209  -20.7235  -49.3420 H         1 UNK         0.0600 
    217 H217       -7.9595  -20.3461  -49.1854 H         1 UNK         0.0600 
    218 H218       -6.7814  -19.0498  -49.1459 H         1 UNK         0.0600 
    219 H219       -6.8145  -20.2370  -47.8500 H         1 UNK         0.0600 
    220 H220       -7.5865  -21.7874  -51.4222 H         1 UNK         0.3000 
    221 H221       -7.4927  -19.8115  -53.3639 H         1 UNK         0.0600 
    222 H222       -8.4194  -22.7214  -53.6034 H         1 UNK         0.0600 
    223 H223       -9.3894  -21.3561  -53.0536 H         1 UNK         0.0600 
    224 H224       -8.8460  -21.4307  -54.7226 H         1 UNK         0.0600 
    225 H225       -5.6926  -22.9520  -53.4325 H         1 UNK         0.3000 
    226 H226       -4.8659  -22.6193  -56.1606 H         1 UNK         0.0600 
    227 H227       -5.0904  -24.8387  -55.0218 H         1 UNK         0.0600 
    228 H228       -3.5124  -24.6208  -55.7634 H         1 UNK         0.0600 
    229 H229       -3.6869  -24.4615  -54.0253 H         1 UNK         0.0600 
    230 H230       -3.5711  -21.3615  -53.1957 H         1 UNK         0.3000 
    231 H231       -1.0137  -20.5208  -54.5043 H         1 UNK         0.0600 
    232 H232       -1.8071  -20.8728  -51.5777 H         1 UNK         0.0600 
    233 H233       -0.6103  -21.7894  -52.4794 H         1 UNK         0.0600 
    234 H234       -0.3106  -20.1027  -52.0983 H         1 UNK         0.0600 
    235 H235       -4.0907  -19.4197  -54.0411 H         1 UNK         0.3000 
    236 H236       -5.1763  -17.5159  -54.0720 H         1 UNK         0.0600 
    237 H237       -3.8038  -17.1144  -56.1213 H         1 UNK         0.0600 
    238 H238       -4.2309  -15.6109  -55.3218 H         1 UNK         0.0600 
    239 H239       -2.6033  -16.2551  -55.1566 H         1 UNK         0.0600 
    240 H240       -4.2621  -18.2183  -51.5745 H         1 UNK         0.3000 
    241 H241       -3.0841  -15.9848  -50.1813 H         1 UNK         0.0600 
    242 H242       -4.0924  -14.5148  -48.6265 H         1 UNK         0.3800 
    243 H243       -5.8197  -14.2471  -48.6798 H         1 UNK         0.3800 
    244 H244       -3.3792  -17.2810  -48.1486 H         1 UNK         0.0800 
    245 H245       -4.5522  -18.3260  -48.8939 H         1 UNK         0.0800 
    246 H246       -0.9104  -18.5127  -47.7197 H         1 UNK         0.0800 
    247 H247       -0.8743  -17.1730  -48.8384 H         1 UNK         0.0800 
@<TRIPOS>BOND
     1    1    2 1    
     2    1  127 1    
     3    1  128 1    
     4    1  129 1    
     5    2    3 2    
     6    2    4 am   BACKBONE|DICT|INTERRES
     7    4    5 1    
     8    4  130 1    
     9    5    6 1    
    10    5   65 1    
    11    5  131 1    
    12    6    7 1    
    13    6  132 1    
    14    6  133 1    
    15    7    8 1    
    16    8    9 1    
    17    8  134 1    
    18    8  135 1    
    19    9   10 ar   
    20    9   14 ar   
    21   10   11 ar   
    22   10  136 1    
    23   11   12 ar   
    24   11  126 1    
    25   12   13 ar   
    26   12  137 1    
    27   13   14 ar   
    28   13   15 1    
    29   14  138 1    
    30   15   16 1    
    31   15  139 1    
    32   15  140 1    
    33   16   17 1    
    34   17   18 1    
    35   17  141 1    
    36   17  142 1    
    37   18   19 1    
    38   18   67 1    
    39   18  143 1    
    40   19   20 am   BACKBONE|DICT|INTERRES
    41   19  144 1    
    42   20   21 2    
    43   20   22 1    
    44   22   23 1    
    45   22   24 1    
    46   22  145 1    
    47   23  146 1    
    48   23  147 1    
    49   23  148 1    
    50   24   25 am   BACKBONE|DICT|INTERRES
    51   24  149 1    
    52   25   26 2    
    53   25   27 1    
    54   27   28 1    
    55   27   29 1    
    56   27  150 1    
    57   28  151 1    
    58   28  152 1    
    59   28  153 1    
    60   29   30 am   BACKBONE|DICT|INTERRES
    61   29  154 1    
    62   30   31 2    
    63   30   32 1    
    64   32   33 1    
    65   32   34 1    
    66   32  155 1    
    67   33  156 1    
    68   33  157 1    
    69   33  158 1    
    70   34   35 am   BACKBONE|DICT|INTERRES
    71   34  159 1    
    72   35   36 2    
    73   35   37 1    
    74   37   38 1    
    75   37   39 1    
    76   37  160 1    
    77   38  161 1    
    78   38  162 1    
    79   38  163 1    
    80   39   40 am   BACKBONE|DICT|INTERRES
    81   39  164 1    
    82   40   41 2    
    83   40   42 1    
    84   42   43 1    
    85   42   44 1    
    86   42  165 1    
    87   43  166 1    
    88   43  167 1    
    89   43  168 1    
    90   44   45 am   BACKBONE|DICT|INTERRES
    91   44  169 1    
    92   45   46 2    
    93   45   47 1    
    94   47   48 1    
    95   47   49 1    
    96   47  170 1    
    97   48  171 1    
    98   48  172 1    
    99   48  173 1    
   100   49   50 am   BACKBONE|DICT|INTERRES
   101   49  174 1    
   102   50   51 2    
   103   50   52 1    
   104   52   53 1    
   105   52   54 1    
   106   52  175 1    
   107   53  176 1    
   108   53  177 1    
   109   53  178 1    
   110   54   55 am   BACKBONE|DICT|INTERRES
   111   54  179 1    
   112   55   56 2    
   113   55   57 1    
   114   57   58 1    
   115   57   59 1    
   116   57  180 1    
   117   58  181 1    
   118   58  182 1    
   119   58  183 1    
   120   59   60 am   BACKBONE|DICT|INTERRES
   121   59  184 1    
   122   60   61 2    
   123   60   62 1    
   124   62   63 1    
   125   62   64 1    
   126   62  185 1    
   127   63  186 1    
   128   63  187 1    
   129   63  188 1    
   130   64   65 am   BACKBONE|DICT|INTERRES
   131   64  189 1    
   132   65   66 2    
   133   67   68 2    
   134   67   69 am   BACKBONE|DICT|INTERRES
   135   69   70 1    
   136   69  190 1    
   137   70   71 1    
   138   70   72 1    
   139   70  191 1    
   140   71  192 1    
   141   71  193 1    
   142   71  194 1    
   143   72   73 2    
   144   72   74 am   BACKBONE|DICT|INTERRES
   145   74   75 1    
   146   74  195 1    
   147   75   76 1    
   148   75   77 1    
   149   75  196 1    
   150   76  197 1    
   151   76  198 1    
   152   76  199 1    
   153   77   78 2    
   154   77   79 am   BACKBONE|DICT|INTERRES
   155   79   80 1    
   156   79  200 1    
   157   80   81 1    
   158   80   82 1    
   159   80  201 1    
   160   81  202 1    
   161   81  203 1    
   162   81  204 1    
   163   82   83 2    
   164   82   84 am   BACKBONE|DICT|INTERRES
   165   84   85 1    
   166   84  205 1    
   167   85   86 1    
   168   85   87 1    
   169   85  206 1    
   170   86  207 1    
   171   86  208 1    
   172   86  209 1    
   173   87   88 2    
   174   87   89 am   BACKBONE|DICT|INTERRES
   175   89   90 1    
   176   89  210 1    
   177   90   91 1    
   178   90   92 1    
   179   90  211 1    
   180   91  212 1    
   181   91  213 1    
   182   91  214 1    
   183   92   93 2    
   184   92   94 am   BACKBONE|DICT|INTERRES
   185   94   95 1    
   186   94  215 1    
   187   95   96 1    
   188   95   97 1    
   189   95  216 1    
   190   96  217 1    
   191   96  218 1    
   192   96  219 1    
   193   97   98 2    
   194   97   99 am   BACKBONE|DICT|INTERRES
   195   99  100 1    
   196   99  220 1    
   197  100  101 1    
   198  100  102 1    
   199  100  221 1    
   200  101  222 1    
   201  101  223 1    
   202  101  224 1    
   203  102  103 2    
   204  102  104 am   BACKBONE|DICT|INTERRES
   205  104  105 1    
   206  104  225 1    
   207  105  106 1    
   208  105  107 1    
   209  105  226 1    
   210  106  227 1    
   211  106  228 1    
   212  106  229 1    
   213  107  108 2    
   214  107  109 am   BACKBONE|DICT|INTERRES
   215  109  110 1    
   216  109  230 1    
   217  110  111 1    
   218  110  112 1    
   219  110  231 1    
   220  111  232 1    
   221  111  233 1    
   222  111  234 1    
   223  112  113 2    
   224  112  114 am   BACKBONE|DICT|INTERRES
   225  114  115 1    
   226  114  235 1    
   227  115  116 1    
   228  115  117 1    
   229  115  236 1    
   230  116  237 1    
   231  116  238 1    
   232  116  239 1    
   233  117  118 2    
   234  117  119 am   BACKBONE|DICT|INTERRES
   235  119  120 1    
   236  119  240 1    
   237  120  121 1    
   238  120  124 1    
   239  120  241 1    
   240  121  122 am   BACKBONE|DICT|INTERRES
   241  121  123 2    
   242  122  242 1    
   243  122  243 1    
   244  124  125 1    
   245  124  244 1    
   246  124  245 1    
   247  125  126 1    
   248  126  246 1    
   249  126  247 1    
@<TRIPOS>SUBSTRUCTURE
     1 UNK         1 GROUP             0       ****    0 ROOT    
