@<TRIPOS>MOLECULE
3R540
247   249    1
SMALL
USER_CHARGES


@<TRIPOS>ATOM
      1 CA         -0.5475  -15.2305  -49.5186 C.3       0 UNK        -0.1800 
      2 C           0.6730  -14.3580  -49.2657 C.2       0 UNK         0.5000 
      3 O           0.5932  -13.3891  -48.5100 O.2       0 UNK        -0.5000 
      4 N           1.8078  -14.7112  -49.8850 N.am      1 UNK        -0.5000 
      5 CA          3.0833  -13.9745  -49.8665 C.3       1 UNK         0.1400 
      6 C6          4.1434  -14.6168  -50.7955 C.3       23 UNK        -0.0398 
      7 S7          3.5837  -14.8026  -52.5235 S.3       23 UNK        -0.2404 
      8 C8          3.6111  -16.6117  -52.7336 C.3       23 UNK        -0.0205 
      9 C9          2.3708  -17.2723  -52.1517 C.ar      23 UNK        -0.0193 
     10 C10         1.2280  -17.4229  -52.9404 C.ar      23 UNK        -0.1150 
     11 C11         0.0891  -18.0529  -52.4318 C.ar      23 UNK        -0.0193 
     12 C12         0.0921  -18.5248  -51.1165 C.ar      23 UNK        -0.1150 
     13 C13         1.2229  -18.3613  -50.3102 C.ar      23 UNK        -0.0193 
     14 C14         2.3621  -17.7433  -50.8359 C.ar      23 UNK        -0.1150 
     15 C15         1.1983  -18.8099  -48.8590 C.3       23 UNK        -0.0205 
     16 S16         2.4190  -20.1155  -48.5159 S.3       23 UNK        -0.2404 
     17 C17         2.0470  -20.4246  -46.7526 C.3       23 UNK        -0.0398 
     18 CA          1.3820  -21.7811  -46.3846 C.3       11 UNK         0.1400 
     19 N           0.7561  -21.7019  -45.0626 N.am      11 UNK        -0.5000 
     20 C           0.2439  -22.7295  -44.3731 C.2       10 UNK         0.5000 
     21 O           0.2943  -23.9013  -44.7467 O.2       10 UNK        -0.5000 
     22 CA         -0.4947  -22.3742  -43.0692 C.3       10 UNK         0.1400 
     23 CB          0.4990  -22.1238  -41.9252 C.3       10 UNK        -0.1800 
     24 N          -1.3755  -21.2129  -43.2222 N.am      10 UNK        -0.5000 
     25 C          -2.4469  -21.1835  -44.0285 C.2       9 UNK         0.5000 
     26 O          -2.8244  -22.1464  -44.6940 O.2       9 UNK        -0.5000 
     27 CA         -3.2050  -19.8501  -44.1468 C.3       9 UNK         0.1400 
     28 CB         -4.1427  -19.6500  -42.9472 C.3       9 UNK        -0.1800 
     29 N          -2.3125  -18.6989  -44.2816 N.am      9 UNK        -0.5000 
     30 C          -1.4768  -18.5012  -45.3115 C.2       8 UNK         0.5000 
     31 O          -1.3941  -19.2503  -46.2827 O.2       8 UNK        -0.5000 
     32 CA         -0.5248  -17.2986  -45.2182 C.3       8 UNK         0.1400 
     33 CB         -1.2379  -15.9936  -45.6019 C.3       8 UNK        -0.1800 
     34 N           0.0751  -17.1666  -43.8922 N.am      8 UNK        -0.5000 
     35 C           0.8691  -18.0779  -43.3123 C.2       7 UNK         0.5000 
     36 O           1.2250  -19.1235  -43.8544 O.2       7 UNK        -0.5000 
     37 CA          1.2943  -17.7964  -41.8627 C.3       7 UNK         0.1400 
     38 CB          2.4604  -16.7997  -41.8113 C.3       7 UNK        -0.1800 
     39 N           0.1806  -17.2916  -41.0623 N.am      7 UNK        -0.5000 
     40 C          -0.8733  -18.0296  -40.6883 C.2       6 UNK         0.5000 
     41 O          -1.0075  -19.2225  -40.9629 O.2       6 UNK        -0.5000 
     42 CA         -1.9775  -17.2970  -39.9053 C.3       6 UNK         0.1400 
     43 CB         -1.6093  -17.1895  -38.4179 C.3       6 UNK        -0.1800 
     44 N          -2.2532  -15.9606  -40.4369 N.am      6 UNK        -0.5000 
     45 C          -2.8014  -15.7313  -41.6377 C.2       5 UNK         0.5000 
     46 O          -3.1265  -16.6208  -42.4226 O.2       5 UNK        -0.5000 
     47 CA         -2.9835  -14.2602  -42.0490 C.3       5 UNK         0.1400 
     48 CB         -4.2528  -13.6738  -41.4127 C.3       5 UNK        -0.1800 
     49 N          -1.8398  -13.3965  -41.7404 N.am      5 UNK        -0.5000 
     50 C          -0.5909  -13.5890  -42.1838 C.2       4 UNK         0.5000 
     51 O          -0.2165  -14.6037  -42.7738 O.2       4 UNK        -0.5000 
     52 CA          0.4155  -12.4530  -41.9421 C.3       4 UNK         0.1400 
     53 CB          1.4581  -12.8585  -40.8896 C.3       4 UNK        -0.1800 
     54 N           1.0945  -12.1170  -43.1918 N.am      4 UNK        -0.5000 
     55 C           0.5167  -11.5239  -44.2430 C.2       3 UNK         0.5000 
     56 O          -0.6306  -11.0755  -44.2213 O.2       3 UNK        -0.5000 
     57 CA          1.3380  -11.4171  -45.5427 C.3       3 UNK         0.1400 
     58 CB          2.3028  -10.2170  -45.4983 C.3       3 UNK        -0.1800 
     59 N           2.0299  -12.6492  -45.9452 N.am      3 UNK        -0.5000 
     60 C           3.0649  -13.2747  -45.3610 C.2       2 UNK         0.5000 
     61 O           3.5703  -12.9162  -44.2966 O.2       2 UNK        -0.5000 
     62 CA          3.6397  -14.5164  -46.0774 C.3       2 UNK         0.1400 
     63 CB          3.1867  -15.7998  -45.3689 C.3       2 UNK        -0.1800 
     64 N           3.2687  -14.6083  -47.4901 N.am      2 UNK        -0.5000 
     65 C           3.6875  -13.7793  -48.4567 C.2       1 UNK         0.5000 
     66 O           4.5096  -12.8811  -48.2717 O.2       1 UNK        -0.5000 
     67 C           0.3880  -22.3195  -47.4388 C.2       11 UNK         0.5000 
     68 O           0.7198  -23.2605  -48.1602 O.2       11 UNK        -0.5000 
     69 N          -0.8249  -21.7512  -47.4746 N.am      12 UNK        -0.5000 
     70 CA         -1.9131  -22.1685  -48.3560 C.3       12 UNK         0.1400 
     71 CB         -3.0901  -21.1976  -48.2070 C.3       12 UNK        -0.1800 
     72 C          -2.3609  -23.6206  -48.1129 C.2       12 UNK         0.5000 
     73 O          -2.5435  -24.3623  -49.0771 O.2       12 UNK        -0.5000 
     74 N          -2.4800  -24.0169  -46.8379 N.am      13 UNK        -0.5000 
     75 CA         -2.7987  -25.3824  -46.4205 C.3       13 UNK         0.1400 
     76 CB         -3.0335  -25.4234  -44.9033 C.3       13 UNK        -0.1800 
     77 C          -1.7205  -26.3991  -46.8367 C.2       13 UNK         0.5000 
     78 O          -2.0661  -27.4746  -47.3260 O.2       13 UNK        -0.5000 
     79 N          -0.4409  -26.0286  -46.6823 N.am      14 UNK        -0.5000 
     80 CA          0.7110  -26.8206  -47.1218 C.3       14 UNK         0.1400 
     81 CB          2.0023  -26.2064  -46.5604 C.3       14 UNK        -0.1800 
     82 C           0.7901  -26.9628  -48.6548 C.2       14 UNK         0.5000 
     83 O           1.1408  -28.0350  -49.1487 O.2       14 UNK        -0.5000 
     84 N           0.4299  -25.8937  -49.3776 N.am      15 UNK        -0.5000 
     85 CA          0.3207  -25.8608  -50.8382 C.3       15 UNK         0.1400 
     86 CB          0.3186  -24.3942  -51.3003 C.3       15 UNK        -0.1800 
     87 C          -0.9227  -26.5957  -51.3841 C.2       15 UNK         0.5000 
     88 O          -0.9802  -26.8552  -52.5867 O.2       15 UNK        -0.5000 
     89 N          -1.8889  -26.9002  -50.5041 N.am      16 UNK        -0.5000 
     90 CA         -3.2092  -27.4766  -50.7768 C.3       16 UNK         0.1400 
     91 CB         -3.0854  -28.9178  -51.3140 C.3       16 UNK        -0.1800 
     92 C          -4.0704  -26.5571  -51.6691 C.2       16 UNK         0.5000 
     93 O          -4.6917  -27.0182  -52.6290 O.2       16 UNK        -0.5000 
     94 N          -4.0732  -25.2629  -51.3352 N.am      17 UNK        -0.5000 
     95 CA         -4.7672  -24.1925  -52.0444 C.3       17 UNK         0.1400 
     96 CB         -3.7660  -23.5163  -53.0002 C.3       17 UNK        -0.1800 
     97 C          -5.3677  -23.2028  -51.0286 C.2       17 UNK         0.5000 
     98 O          -5.4473  -23.5132  -49.8374 O.2       17 UNK        -0.5000 
     99 N          -5.7759  -22.0241  -51.5087 N.am      18 UNK        -0.5000 
    100 CA        -6.1094  -20.8626  -50.6881 C.3       18 UNK         0.1400 
    101 CB        -7.5047  -20.3566  -51.0796 C.3       18 UNK        -0.1800 
    102 C         -5.0501  -19.7726  -50.9240 C.2       18 UNK         0.5000 
    103 O         -4.2892  -19.8463  -51.8907 O.2       18 UNK        -0.5000 
    104 N         -5.0224  -18.7649  -50.0430 N.am      19 UNK        -0.5000 
    105 CA        -4.1215  -17.6138  -50.1587 C.3       19 UNK         0.1400 
    106 CB        -4.1157  -16.8385  -48.8323 C.3       19 UNK        -0.1800 
    107 C         -4.4823  -16.6923  -51.3426 C.2       19 UNK         0.5000 
    108 O         -3.5862  -16.0971  -51.9406 O.2       19 UNK        -0.5000 
    109 N         -5.7816  -16.6093  -51.6644 N.am      20 UNK        -0.5000 
    110 CA        -6.3069  -15.8999  -52.8295 C.3       20 UNK         0.1400 
    111 CB        -7.7185  -15.3722  -52.5193 C.3       20 UNK        -0.1800 
    112 C         -6.2983  -16.8182  -54.0636 C.2       20 UNK         0.5000 
    113 O         -5.5713  -16.5504  -55.0216 O.2       20 UNK        -0.5000 
    114 N         -7.0900  -17.8998  -54.0111 N.am      21 UNK        -0.5000 
    115 CA        -7.1719  -18.9330  -55.0456 C.3       21 UNK         0.1400 
    116 CB        -8.5434  -19.6288  -54.9721 C.3       21 UNK        -0.1800 
    117 C         -5.9917  -19.9146  -54.9163 C.2       21 UNK         0.5000 
    118 O         -6.1465  -21.0178  -54.3867 O.2       21 UNK        -0.5000 
    119 N         -4.8207  -19.4478  -55.3571 N.am      22 UNK        -0.5000 
    120 CA        -3.5406  -20.1648  -55.3370 C.3       22 UNK         0.1400 
    121 C         -3.4941  -21.4048  -56.2775 C.2       22 UNK         0.5000 
    122 N         -2.5446  -22.3062  -56.0686 N.am      22 UNK        -0.7600 
    123 O         -4.2779  -21.5416  -57.2149 O.2       22 UNK        -0.5000 
    124 C124       -2.3704  -19.1840  -55.6188 C.3       23 UNK        -0.0398 
    125 S125       -0.9222  -19.4993  -54.5574 S.3       23 UNK        -0.2404 
    126 C126       -1.1450  -18.1979  -53.3051 C.3       23 UNK        -0.0205 
    127 H127       -1.4578  -14.6343  -49.4585 H         1 UNK         0.0600 
    128 H128       -0.5112  -15.6839  -50.5093 H         1 UNK         0.0600 
    129 H129       -0.6059  -16.0264  -48.7769 H         1 UNK         0.0600 
    130 H130        1.7941  -15.5144  -50.4998 H         1 UNK         0.3000 
    131 H131        2.8677  -12.9746  -50.2484 H         1 UNK         0.0600 
    132 H132        4.4604  -15.5837  -50.4026 H         1 UNK         0.0800 
    133 H133        5.0436  -13.9996  -50.8199 H         1 UNK         0.0800 
    134 H134        3.6739  -16.8348  -53.7998 H         1 UNK         0.0800 
    135 H135        4.5154  -17.0306  -52.2894 H         1 UNK         0.0800 
    136 H136        1.2259  -17.0568  -53.9578 H         1 UNK         0.1150 
    137 H137       -0.7909  -19.0041  -50.7174 H         1 UNK         0.1150 
    138 H138        3.2399  -17.6302  -50.2155 H         1 UNK         0.1150 
    139 H139        1.4019  -17.9485  -48.2216 H         1 UNK         0.0800 
    140 H140        0.2043  -19.1696  -48.5872 H         1 UNK         0.0800 
    141 H141        1.4142  -19.6083  -46.4061 H         1 UNK         0.0800 
    142 H142        2.9754  -20.3174  -46.1902 H         1 UNK         0.0800 
    143 H143        2.1811  -22.5221  -46.3142 H         1 UNK         0.0600 
    144 H144        0.7063  -20.7749  -44.6477 H         1 UNK         0.3000 
    145 H145       -1.1153  -23.2302  -42.7967 H         1 UNK         0.0600 
    146 H146       -0.0216  -21.9509  -40.9832 H         1 UNK         0.0600 
    147 H147        1.1546  -22.9836  -41.7822 H         1 UNK         0.0600 
    148 H148        1.1309  -21.2570  -42.1204 H         1 UNK         0.0600 
    149 H149       -1.1498  -20.3913  -42.6715 H         1 UNK         0.3000 
    150 H150       -3.8191  -19.8984  -45.0481 H         1 UNK         0.0600 
    151 H151       -4.8133  -20.5019  -42.8281 H         1 UNK         0.0600 
    152 H152       -4.7643  -18.7641  -43.0780 H         1 UNK         0.0600 
    153 H153       -3.5876  -19.5347  -42.0159 H         1 UNK         0.0600 
    154 H154       -2.3565  -18.0040  -43.5415 H         1 UNK         0.3000 
    155 H155        0.2827  -17.4627  -45.9335 H         1 UNK         0.0600 
    156 H156       -2.0192  -15.7378  -44.8860 H         1 UNK         0.0600 
    157 H157       -1.7071  -16.0757  -46.5827 H         1 UNK         0.0600 
    158 H158       -0.5374  -15.1589  -45.6431 H         1 UNK         0.0600 
    159 H159       -0.1332  -16.3079  -43.3854 H         1 UNK         0.3000 
    160 H160        1.6324  -18.7369  -41.4225 H         1 UNK         0.0600 
    161 H161        2.7654  -16.5995  -40.7841 H         1 UNK         0.0600 
    162 H162        2.1993  -15.8488  -42.2760 H         1 UNK         0.0600 
    163 H163        3.3303  -17.1960  -42.3361 H         1 UNK         0.0600 
    164 H164        0.1811  -16.3048  -40.8515 H         1 UNK         0.3000 
    165 H165       -2.8909  -17.8902  -39.9874 H         1 UNK         0.0600 
    166 H166       -2.4213  -16.7448  -37.8423 H         1 UNK         0.0600 
    167 H167       -1.4129  -18.1748  -37.9930 H         1 UNK         0.0600 
    168 H168       -0.7166  -16.5818  -38.2648 H         1 UNK         0.0600 
    169 H169       -2.0050  -15.1718  -39.8581 H         1 UNK         0.3000 
    170 H170       -3.1139  -14.2435  -43.1329 H         1 UNK         0.0600 
    171 H171       -5.1242  -14.2898  -41.6397 H         1 UNK         0.0600 
    172 H172       -4.1685  -13.6114  -40.3271 H         1 UNK         0.0600 
    173 H173       -4.4580  -12.6726  -41.7920 H         1 UNK         0.0600 
    174 H174       -2.0532  -12.5360  -41.2570 H         1 UNK         0.3000 
    175 H175       -0.1142  -11.5679  -41.5841 H         1 UNK         0.0600 
    176 H176        2.0526  -13.7115  -41.2171 H         1 UNK         0.0600 
    177 H177        2.1434  -12.0371  -40.6800 H         1 UNK         0.0600 
    178 H178        0.9793  -13.1314  -39.9484 H         1 UNK         0.0600 
    179 H179        2.0354  -12.4783  -43.3217 H         1 UNK         0.3000 
    180 H180        0.6218  -11.2227  -46.3427 H         1 UNK         0.0600 
    181 H181        3.0475  -10.3188  -44.7086 H         1 UNK         0.0600 
    182 H182        1.7596   -9.2894  -45.3140 H         1 UNK         0.0600 
    183 H183        2.8311  -10.1020  -46.4449 H         1 UNK         0.0600 
    184 H184        1.6721  -13.0535  -46.8052 H         1 UNK         0.3000 
    185 H185        4.7283  -14.4563  -46.0170 H         1 UNK         0.0600 
    186 H186        3.5382  -15.8120  -44.3377 H         1 UNK         0.0600 
    187 H187        2.1005  -15.8792  -45.3492 H         1 UNK         0.0600 
    188 H188        3.5837  -16.6904  -45.8566 H         1 UNK         0.0600 
    189 H189        2.5889  -15.3118  -47.7356 H         1 UNK         0.3000 
    190 H190       -1.0176  -20.9545  -46.8714 H         1 UNK         0.3000 
    191 H191       -1.5504  -22.1032  -49.3837 H         1 UNK         0.0600 
    192 H192       -3.4471  -21.1488  -47.1787 H         1 UNK         0.0600 
    193 H193       -3.9263  -21.5136  -48.8260 H         1 UNK         0.0600 
    194 H194       -2.8126  -20.1897  -48.5159 H         1 UNK         0.0600 
    195 H195       -2.3671  -23.3297  -46.0968 H         1 UNK         0.3000 
    196 H196       -3.7299  -25.6680  -46.9141 H         1 UNK         0.0600 
    197 H197       -2.1500  -25.1054  -44.3494 H         1 UNK         0.0600 
    198 H198       -3.2838  -26.4323  -44.5733 H         1 UNK         0.0600 
    199 H199       -3.8597  -24.7730  -44.6157 H         1 UNK         0.0600 
    200 H200       -0.2382  -25.1408  -46.2322 H         1 UNK         0.3000 
    201 H201        0.6050  -27.8234  -46.7028 H         1 UNK         0.0600 
    202 H202        2.1567  -25.1896  -46.9220 H         1 UNK         0.0600 
    203 H203        2.8734  -26.7946  -46.8513 H         1 UNK         0.0600 
    204 H204        1.9808  -26.1728  -45.4710 H         1 UNK         0.0600 
    205 H205        0.2300  -25.0248  -48.8901 H         1 UNK         0.3000 
    206 H206        1.2013  -26.3495  -51.2599 H         1 UNK         0.0600 
    207 H207        1.2138  -23.8715  -50.9627 H         1 UNK         0.0600 
    208 H208        0.2923  -24.3252  -52.3884 H         1 UNK         0.0600 
    209 H209       -0.5478  -23.8543  -50.9177 H         1 UNK         0.0600 
    210 H210       -1.7433  -26.6020  -49.5485 H         1 UNK         0.3000 
    211 H211       -3.7193  -27.5294  -49.8139 H         1 UNK         0.0600 
    212 H212       -2.6306  -28.9467  -52.3043 H         1 UNK         0.0600 
    213 H213       -4.0656  -29.3892  -51.3917 H         1 UNK         0.0600 
    214 H214       -2.4809  -29.5343  -50.6486 H         1 UNK         0.0600 
    215 H215       -3.5738  -24.9680  -50.4966 H         1 UNK         0.3000 
    216 H216       -5.5969  -24.6027  -52.6234 H         1 UNK         0.0600 
    217 H217       -3.2834  -24.2473  -53.6494 H         1 UNK         0.0600 
    218 H218       -4.2640  -22.7976  -53.6489 H         1 UNK         0.0600 
    219 H219       -2.9835  -22.9871  -52.4543 H         1 UNK         0.0600 
    220 H220       -5.6587  -21.8199  -52.4968 H         1 UNK         0.3000 
    221 H221       -6.1171  -21.1161  -49.6265 H         1 UNK         0.0600 
    222 H222       -7.5222  -20.0062  -52.1086 H         1 UNK         0.0600 
    223 H223       -8.2518  -21.1444  -50.9810 H         1 UNK         0.0600 
    224 H224       -7.8193  -19.5291  -50.4430 H         1 UNK         0.0600 
    225 H225       -5.6626  -18.7653  -49.2620 H         1 UNK         0.3000 
    226 H226       -3.1098  -17.9872  -50.3315 H         1 UNK         0.0600 
    227 H227       -3.7612  -17.4642  -48.0124 H         1 UNK         0.0600 
    228 H228       -3.4545  -15.9736  -48.8876 H         1 UNK         0.0600 
    229 H229       -5.1103  -16.4738  -48.5735 H         1 UNK         0.0600 
    230 H230       -6.4423  -17.1342  -51.1122 H         1 UNK         0.3000 
    231 H231       -5.6731  -15.0379  -53.0497 H         1 UNK         0.0600 
    232 H232       -7.6920  -14.6437  -51.7086 H         1 UNK         0.0600 
    233 H233       -8.4032  -16.1685  -52.2260 H         1 UNK         0.0600 
    234 H234       -8.1475  -14.8724  -53.3888 H         1 UNK         0.0600 
    235 H235       -7.6468  -18.0536  -53.1850 H         1 UNK         0.3000 
    236 H236       -7.1052  -18.4596  -56.0279 H         1 UNK         0.0600 
    237 H237       -8.7092  -20.1267  -54.0178 H         1 UNK         0.0600 
    238 H238       -9.3536  -18.9149  -55.1207 H         1 UNK         0.0600 
    239 H239       -8.6330  -20.3860  -55.7519 H         1 UNK         0.0600 
    240 H240       -4.8013  -18.5041  -55.7213 H         1 UNK         0.3000 
    241 H241       -3.4414  -20.5454  -54.3191 H         1 UNK         0.0600 
    242 H242       -2.4869  -23.1084  -56.6760 H         1 UNK         0.3800 
    243 H243       -1.8649  -22.1892  -55.3331 H         1 UNK         0.3800 
    244 H244       -2.0545  -19.2227  -56.6631 H         1 UNK         0.0800 
    245 H245       -2.6841  -18.1508  -55.4624 H         1 UNK         0.0800 
    246 H246       -2.0241  -18.4294  -52.7017 H         1 UNK         0.0800 
    247 H247       -1.3463  -17.2411  -53.7893 H         1 UNK         0.0800 
@<TRIPOS>BOND
     1    1    2 1    
     2    1  127 1    
     3    1  128 1    
     4    1  129 1    
     5    2    3 2    
     6    2    4 am   BACKBONE|DICT|INTERRES
     7    4    5 1    
     8    4  130 1    
     9    5    6 1    
    10    5   65 1    
    11    5  131 1    
    12    6    7 1    
    13    6  132 1    
    14    6  133 1    
    15    7    8 1    
    16    8    9 1    
    17    8  134 1    
    18    8  135 1    
    19    9   10 ar   
    20    9   14 ar   
    21   10   11 ar   
    22   10  136 1    
    23   11   12 ar   
    24   11  126 1    
    25   12   13 ar   
    26   12  137 1    
    27   13   14 ar   
    28   13   15 1    
    29   14  138 1    
    30   15   16 1    
    31   15  139 1    
    32   15  140 1    
    33   16   17 1    
    34   17   18 1    
    35   17  141 1    
    36   17  142 1    
    37   18   19 1    
    38   18   67 1    
    39   18  143 1    
    40   19   20 am   BACKBONE|DICT|INTERRES
    41   19  144 1    
    42   20   21 2    
    43   20   22 1    
    44   22   23 1    
    45   22   24 1    
    46   22  145 1    
    47   23  146 1    
    48   23  147 1    
    49   23  148 1    
    50   24   25 am   BACKBONE|DICT|INTERRES
    51   24  149 1    
    52   25   26 2    
    53   25   27 1    
    54   27   28 1    
    55   27   29 1    
    56   27  150 1    
    57   28  151 1    
    58   28  152 1    
    59   28  153 1    
    60   29   30 am   BACKBONE|DICT|INTERRES
    61   29  154 1    
    62   30   31 2    
    63   30   32 1    
    64   32   33 1    
    65   32   34 1    
    66   32  155 1    
    67   33  156 1    
    68   33  157 1    
    69   33  158 1    
    70   34   35 am   BACKBONE|DICT|INTERRES
    71   34  159 1    
    72   35   36 2    
    73   35   37 1    
    74   37   38 1    
    75   37   39 1    
    76   37  160 1    
    77   38  161 1    
    78   38  162 1    
    79   38  163 1    
    80   39   40 am   BACKBONE|DICT|INTERRES
    81   39  164 1    
    82   40   41 2    
    83   40   42 1    
    84   42   43 1    
    85   42   44 1    
    86   42  165 1    
    87   43  166 1    
    88   43  167 1    
    89   43  168 1    
    90   44   45 am   BACKBONE|DICT|INTERRES
    91   44  169 1    
    92   45   46 2    
    93   45   47 1    
    94   47   48 1    
    95   47   49 1    
    96   47  170 1    
    97   48  171 1    
    98   48  172 1    
    99   48  173 1    
   100   49   50 am   BACKBONE|DICT|INTERRES
   101   49  174 1    
   102   50   51 2    
   103   50   52 1    
   104   52   53 1    
   105   52   54 1    
   106   52  175 1    
   107   53  176 1    
   108   53  177 1    
   109   53  178 1    
   110   54   55 am   BACKBONE|DICT|INTERRES
   111   54  179 1    
   112   55   56 2    
   113   55   57 1    
   114   57   58 1    
   115   57   59 1    
   116   57  180 1    
   117   58  181 1    
   118   58  182 1    
   119   58  183 1    
   120   59   60 am   BACKBONE|DICT|INTERRES
   121   59  184 1    
   122   60   61 2    
   123   60   62 1    
   124   62   63 1    
   125   62   64 1    
   126   62  185 1    
   127   63  186 1    
   128   63  187 1    
   129   63  188 1    
   130   64   65 am   BACKBONE|DICT|INTERRES
   131   64  189 1    
   132   65   66 2    
   133   67   68 2    
   134   67   69 am   BACKBONE|DICT|INTERRES
   135   69   70 1    
   136   69  190 1    
   137   70   71 1    
   138   70   72 1    
   139   70  191 1    
   140   71  192 1    
   141   71  193 1    
   142   71  194 1    
   143   72   73 2    
   144   72   74 am   BACKBONE|DICT|INTERRES
   145   74   75 1    
   146   74  195 1    
   147   75   76 1    
   148   75   77 1    
   149   75  196 1    
   150   76  197 1    
   151   76  198 1    
   152   76  199 1    
   153   77   78 2    
   154   77   79 am   BACKBONE|DICT|INTERRES
   155   79   80 1    
   156   79  200 1    
   157   80   81 1    
   158   80   82 1    
   159   80  201 1    
   160   81  202 1    
   161   81  203 1    
   162   81  204 1    
   163   82   83 2    
   164   82   84 am   BACKBONE|DICT|INTERRES
   165   84   85 1    
   166   84  205 1    
   167   85   86 1    
   168   85   87 1    
   169   85  206 1    
   170   86  207 1    
   171   86  208 1    
   172   86  209 1    
   173   87   88 2    
   174   87   89 am   BACKBONE|DICT|INTERRES
   175   89   90 1    
   176   89  210 1    
   177   90   91 1    
   178   90   92 1    
   179   90  211 1    
   180   91  212 1    
   181   91  213 1    
   182   91  214 1    
   183   92   93 2    
   184   92   94 am   BACKBONE|DICT|INTERRES
   185   94   95 1    
   186   94  215 1    
   187   95   96 1    
   188   95   97 1    
   189   95  216 1    
   190   96  217 1    
   191   96  218 1    
   192   96  219 1    
   193   97   98 2    
   194   97   99 am   BACKBONE|DICT|INTERRES
   195   99  100 1    
   196   99  220 1    
   197  100  101 1    
   198  100  102 1    
   199  100  221 1    
   200  101  222 1    
   201  101  223 1    
   202  101  224 1    
   203  102  103 2    
   204  102  104 am   BACKBONE|DICT|INTERRES
   205  104  105 1    
   206  104  225 1    
   207  105  106 1    
   208  105  107 1    
   209  105  226 1    
   210  106  227 1    
   211  106  228 1    
   212  106  229 1    
   213  107  108 2    
   214  107  109 am   BACKBONE|DICT|INTERRES
   215  109  110 1    
   216  109  230 1    
   217  110  111 1    
   218  110  112 1    
   219  110  231 1    
   220  111  232 1    
   221  111  233 1    
   222  111  234 1    
   223  112  113 2    
   224  112  114 am   BACKBONE|DICT|INTERRES
   225  114  115 1    
   226  114  235 1    
   227  115  116 1    
   228  115  117 1    
   229  115  236 1    
   230  116  237 1    
   231  116  238 1    
   232  116  239 1    
   233  117  118 2    
   234  117  119 am   BACKBONE|DICT|INTERRES
   235  119  120 1    
   236  119  240 1    
   237  120  121 1    
   238  120  124 1    
   239  120  241 1    
   240  121  122 am   BACKBONE|DICT|INTERRES
   241  121  123 2    
   242  122  242 1    
   243  122  243 1    
   244  124  125 1    
   245  124  244 1    
   246  124  245 1    
   247  125  126 1    
   248  126  246 1    
   249  126  247 1    
@<TRIPOS>SUBSTRUCTURE
     1 UNK         1 GROUP             0       ****    0 ROOT    
