@<TRIPOS>MOLECULE
3R540
247   249    1
SMALL
USER_CHARGES


@<TRIPOS>ATOM
      1 CA         -3.0236  -18.5973  -46.1391 C.3       0 UNK        -0.1800 
      2 C          -2.4282  -17.5444  -47.0588 C.2       0 UNK         0.5000 
      3 O          -3.1642  -16.8058  -47.7129 O.2       0 UNK        -0.5000 
      4 N          -1.0936  -17.4923  -47.1213 N.am      1 UNK        -0.5000 
      5 CA         -0.3243  -16.5174  -47.8942 C.3       1 UNK         0.1400 
      6 C6          1.1496  -16.9748  -48.0132 C.3       23 UNK        -0.0398 
      7 S7          2.1440  -15.9695  -49.1653 S.3       23 UNK        -0.2404 
      8 C8          3.6821  -16.9397  -49.2401 C.3       23 UNK        -0.0205 
      9 C9          3.5264  -18.1802  -50.1068 C.ar      23 UNK        -0.0193 
     10 C10         3.4177  -18.0490  -51.4934 C.ar      23 UNK        -0.1150 
     11 C11         3.2577  -19.1743  -52.3075 C.ar      23 UNK        -0.0193 
     12 C12         3.2331  -20.4430  -51.7228 C.ar      23 UNK        -0.1150 
     13 C13         3.3630  -20.5902  -50.3388 C.ar      23 UNK        -0.0193 
     14 C14         3.5039  -19.4550  -49.5338 C.ar      23 UNK        -0.1150 
     15 C15         3.3635  -21.9807  -49.7230 C.3       23 UNK        -0.0205 
     16 S16         1.6799  -22.6542  -49.5957 S.3       23 UNK        -0.2404 
     17 C17         0.9658  -21.5937  -48.2927 C.3       23 UNK        -0.0398 
     18 CA          0.1494  -22.3994  -47.2568 C.3       11 UNK         0.1400 
     19 N          -0.1392  -21.5879  -46.0773 N.am      11 UNK        -0.5000 
     20 C          -0.6820  -22.0203  -44.9339 C.2       10 UNK         0.5000 
     21 O          -0.9777  -23.1978  -44.7230 O.2       10 UNK        -0.5000 
     22 CA         -0.8860  -20.9522  -43.8379 C.3       10 UNK         0.1400 
     23 CB         -1.5086  -21.5242  -42.5525 C.3       10 UNK        -0.1800 
     24 N           0.3640  -20.2778  -43.4898 N.am      10 UNK        -0.5000 
     25 C           0.9904  -19.3330  -44.2012 C.2       9 UNK         0.5000 
     26 O           0.5777  -18.9326  -45.2936 O.2       9 UNK        -0.5000 
     27 CA          2.2970  -18.7650  -43.6001 C.3       9 UNK         0.1400 
     28 CB          2.7654  -17.4874  -44.3173 C.3       9 UNK        -0.1800 
     29 N           2.1872  -18.4840  -42.1665 N.am      9 UNK        -0.5000 
     30 C           2.2426  -19.3859  -41.1766 C.2       8 UNK         0.5000 
     31 O           2.3993  -20.5928  -41.3638 O.2       8 UNK        -0.5000 
     32 CA          2.0260  -18.8574  -39.7500 C.3       8 UNK         0.1400 
     33 CB          3.3124  -18.2248  -39.1961 C.3       8 UNK        -0.1800 
     34 N           0.9407  -17.8774  -39.7240 N.am      8 UNK        -0.5000 
     35 C          -0.3590  -18.1932  -39.6282 C.2       7 UNK         0.5000 
     36 O          -0.7714  -19.3406  -39.4572 O.2       7 UNK        -0.5000 
     37 CA         -1.3742  -17.0386  -39.7440 C.3       7 UNK         0.1400 
     38 CB         -1.7200  -16.4859  -38.3529 C.3       7 UNK        -0.1800 
     39 N          -0.9023  -15.9409  -40.5891 N.am      7 UNK        -0.5000 
     40 C          -0.7752  -16.0065  -41.9220 C.2       6 UNK         0.5000 
     41 O          -1.1093  -16.9834  -42.5914 O.2       6 UNK        -0.5000 
     42 CA         -0.1444  -14.7835  -42.6196 C.3       6 UNK         0.1400 
     43 CB         -1.2430  -13.8261  -43.1063 C.3       6 UNK        -0.1800 
     44 N           0.8146  -14.0328  -41.7975 N.am      6 UNK        -0.5000 
     45 C           1.9163  -14.5395  -41.2269 C.2       5 UNK         0.5000 
     46 O           2.2373  -15.7252  -41.3133 O.2       5 UNK        -0.5000 
     47 CA          2.8059  -13.5457  -40.4628 C.3       5 UNK         0.1400 
     48 CB          4.0003  -14.2235  -39.7669 C.3       5 UNK        -0.1800 
     49 N           3.3018  -12.5590  -41.4145 N.am      5 UNK        -0.5000 
     50 C           3.1391  -11.2327  -41.3339 C.2       4 UNK         0.5000 
     51 O           2.6240  -10.6598  -40.3733 O.2       4 UNK        -0.5000 
     52 CA          3.6082  -10.4082  -42.5526 C.3       4 UNK         0.1400 
     53 CB          5.0182   -9.8473  -42.3122 C.3       4 UNK        -0.1800 
     54 N           3.6038  -11.1750  -43.8047 N.am      4 UNK        -0.5000 
     55 C           2.5002  -11.6554  -44.3936 C.2       3 UNK         0.5000 
     56 O           1.3594  -11.4335  -43.9797 O.2       3 UNK        -0.5000 
     57 CA          2.7277  -12.5858  -45.5993 C.3       3 UNK         0.1400 
     58 CB          3.3638  -13.9116  -45.1457 C.3       3 UNK        -0.1800 
     59 N           1.4697  -12.9005  -46.2657 N.am      3 UNK        -0.5000 
     60 C           0.8374  -12.1377  -47.1612 C.2       2 UNK         0.5000 
     61 O           1.3005  -11.0836  -47.6018 O.2       2 UNK        -0.5000 
     62 CA         -0.5340  -12.6614  -47.6513 C.3       2 UNK         0.1400 
     63 CB         -1.1086  -11.8272  -48.8105 C.3       2 UNK        -0.1800 
     64 N          -0.4911  -14.0687  -48.0640 N.am      2 UNK        -0.5000 
     65 C          -0.4387  -15.1243  -47.2412 C.2       1 UNK         0.5000 
     66 O          -0.4257  -15.0231  -46.0126 O.2       1 UNK        -0.5000 
     67 C          -1.1515  -22.9350  -47.8813 C.2       11 UNK         0.5000 
     68 O          -2.0409  -22.1429  -48.1979 O.2       11 UNK        -0.5000 
     69 N          -1.2206  -24.2532  -48.1055 N.am      12 UNK        -0.5000 
     70 CA         -2.3739  -24.9352  -48.6983 C.3       12 UNK         0.1400 
     71 CB         -2.1554  -26.4536  -48.6306 C.3       12 UNK        -0.1800 
     72 C          -2.6909  -24.5032  -50.1428 C.2       12 UNK         0.5000 
     73 O          -3.8401  -24.6396  -50.5636 O.2       12 UNK        -0.5000 
     74 N          -1.6789  -23.9838  -50.8532 N.am      13 UNK        -0.5000 
     75 CA         -1.7730  -23.4293  -52.2055 C.3       13 UNK         0.1400 
     76 CB         -0.4159  -23.6050  -52.9056 C.3       13 UNK        -0.1800 
     77 C          -2.2100  -21.9488  -52.2367 C.2       13 UNK         0.5000 
     78 O          -2.3396  -21.3854  -53.3262 O.2       13 UNK        -0.5000 
     79 N          -2.4282  -21.3444  -51.0626 N.am      14 UNK        -0.5000 
     80 CA         -2.9599  -19.9934  -50.9032 C.3       14 UNK         0.1400 
     81 CB         -1.8991  -19.1245  -50.2135 C.3       14 UNK        -0.1800 
     82 C          -4.2702  -19.9997  -50.0960 C.2       14 UNK         0.5000 
     83 O          -5.1707  -19.2178  -50.3988 O.2       14 UNK        -0.5000 
     84 N          -4.3634  -20.8849  -49.0935 N.am      15 UNK        -0.5000 
     85 CA         -5.4690  -20.9927  -48.1393 C.3       15 UNK         0.1400 
     86 CB         -4.9890  -21.8289  -46.9393 C.3       15 UNK        -0.1800 
     87 C          -6.7796  -21.5827  -48.7005 C.2       15 UNK         0.5000 
     88 O          -7.7565  -21.6434  -47.9533 O.2       15 UNK        -0.5000 
     89 N          -6.7849  -22.0373  -49.9636 N.am      16 UNK        -0.5000 
     90 CA         -7.8903  -22.7253  -50.6483 C.3       16 UNK         0.1400 
     91 CB         -9.1909  -21.8931  -50.6446 C.3       16 UNK        -0.1800 
     92 C          -8.0968  -24.1763  -50.1650 C.2       16 UNK         0.5000 
     93 O          -9.1440  -24.7642  -50.4400 O.2       16 UNK        -0.5000 
     94 N          -7.0964  -24.7388  -49.4713 N.am      17 UNK        -0.5000 
     95 CA         -7.1016  -26.1173  -48.9830 C.3       17 UNK         0.1400 
     96 CB         -6.1422  -26.2464  -47.7907 C.3       17 UNK        -0.1800 
     97 C          -6.7364  -27.1059  -50.1025 C.2       17 UNK         0.5000 
     98 O          -7.4429  -28.0969  -50.2917 O.2       17 UNK        -0.5000 
     99 N          -5.6594  -26.7989  -50.8365 N.am      18 UNK        -0.5000 
    100 CA        -5.2315  -27.5149  -52.0373 C.3       18 UNK         0.1400 
    101 CB        -3.7376  -27.8615  -51.9287 C.3       18 UNK        -0.1800 
    102 C         -5.4993  -26.6625  -53.2872 C.2       18 UNK         0.5000 
    103 O         -5.9321  -27.2037  -54.3053 O.2       18 UNK        -0.5000 
    104 N         -5.2673  -25.3478  -53.1853 N.am      19 UNK        -0.5000 
    105 CA        -5.5236  -24.3566  -54.2241 C.3       19 UNK         0.1400 
    106 CB        -4.4293  -24.4198  -55.3090 C.3       19 UNK        -0.1800 
    107 C         -5.5728  -22.9675  -53.5759 C.2       19 UNK         0.5000 
    108 O         -5.1763  -22.8129  -52.4201 O.2       19 UNK        -0.5000 
    109 N         -6.0489  -21.9759  -54.3312 N.am      20 UNK        -0.5000 
    110 CA        -6.0177  -20.5582  -53.9557 C.3       20 UNK         0.1400 
    111 CB        -7.4523  -20.0051  -53.9948 C.3       20 UNK        -0.1800 
    112 C         -5.0751  -19.7615  -54.8817 C.2       20 UNK         0.5000 
    113 O         -5.1020  -18.5302  -54.8662 O.2       20 UNK        -0.5000 
    114 N         -4.2688  -20.4760  -55.6816 N.am      21 UNK        -0.5000 
    115 CA        -3.3974  -19.9630  -56.7401 C.3       21 UNK         0.1400 
    116 CB        -2.6872  -21.1488  -57.4115 C.3       21 UNK        -0.1800 
    117 C         -2.3704  -18.9141  -56.2793 C.2       21 UNK         0.5000 
    118 O         -2.0722  -17.9961  -57.0451 O.2       21 UNK        -0.5000 
    119 N         -1.8704  -19.0574  -55.0462 N.am      22 UNK        -0.5000 
    120 CA        -0.9611  -18.1021  -54.3949 C.3       22 UNK         0.1400 
    121 C         -1.6625  -17.2085  -53.3282 C.2       22 UNK         0.5000 
    122 N         -2.9889  -17.1573  -53.2693 N.am      22 UNK        -0.7600 
    123 O         -1.0003  -16.5304  -52.5485 O.2       22 UNK        -0.5000 
    124 C124        0.3234  -18.8074  -53.8708 C.3       23 UNK        -0.0398 
    125 S125        1.8252  -17.8703  -54.3144 S.3       23 UNK        -0.2404 
    126 C126        3.1436  -19.0241  -53.8184 C.3       23 UNK        -0.0205 
    127 H127       -2.8667  -18.3197  -45.0965 H         1 UNK         0.0600 
    128 H128       -2.5567  -19.5650  -46.3223 H         1 UNK         0.0600 
    129 H129       -4.0951  -18.7000  -46.3097 H         1 UNK         0.0600 
    130 H130       -0.5449  -18.0632  -46.4822 H         1 UNK         0.3000 
    131 H131       -0.7540  -16.4713  -48.8973 H         1 UNK         0.0600 
    132 H132        1.6325  -16.9665  -47.0360 H         1 UNK         0.0800 
    133 H133        1.1794  -18.0087  -48.3598 H         1 UNK         0.0800 
    134 H134        4.0001  -17.2021  -48.2297 H         1 UNK         0.0800 
    135 H135        4.4724  -16.3130  -49.6557 H         1 UNK         0.0800 
    136 H136        3.4429  -17.0643  -51.9389 H         1 UNK         0.1150 
    137 H137        3.1195  -21.3212  -52.3430 H         1 UNK         0.1150 
    138 H138        3.6015  -19.5629  -48.4628 H         1 UNK         0.1150 
    139 H139        3.9637  -22.6496  -50.3416 H         1 UNK         0.0800 
    140 H140        3.8359  -21.9730  -48.7394 H         1 UNK         0.0800 
    141 H141        0.3648  -20.8115  -48.7598 H         1 UNK         0.0800 
    142 H142        1.7779  -21.0777  -47.7799 H         1 UNK         0.0800 
    143 H143        0.7553  -23.2435  -46.9203 H         1 UNK         0.0600 
    144 H144        0.0914  -20.6016  -46.1323 H         1 UNK         0.3000 
    145 H145       -1.5788  -20.2088  -44.2321 H         1 UNK         0.0600 
    146 H146       -1.6950  -20.7358  -41.8227 H         1 UNK         0.0600 
    147 H147       -2.4652  -22.0054  -42.7598 H         1 UNK         0.0600 
    148 H148       -0.8589  -22.2653  -42.0852 H         1 UNK         0.0600 
    149 H149        0.8158  -20.5831  -42.6353 H         1 UNK         0.3000 
    150 H150        3.0688  -19.5242  -43.7413 H         1 UNK         0.0600 
    151 H151        3.0461  -17.7027  -45.3482 H         1 UNK         0.0600 
    152 H152        3.6394  -17.0542  -43.8306 H         1 UNK         0.0600 
    153 H153        1.9820  -16.7297  -44.3359 H         1 UNK         0.0600 
    154 H154        2.0686  -17.5069  -41.9129 H         1 UNK         0.3000 
    155 H155        1.7666  -19.7029  -39.1091 H         1 UNK         0.0600 
    156 H156        3.6632  -17.4006  -39.8171 H         1 UNK         0.0600 
    157 H157        4.1159  -18.9608  -39.1488 H         1 UNK         0.0600 
    158 H158        3.1611  -17.8431  -38.1864 H         1 UNK         0.0600 
    159 H159        1.1974  -16.9215  -39.9342 H         1 UNK         0.3000 
    160 H160       -2.2866  -17.4440  -40.1867 H         1 UNK         0.0600 
    161 H161       -0.8477  -16.0503  -37.8639 H         1 UNK         0.0600 
    162 H162       -2.1005  -17.2752  -37.7031 H         1 UNK         0.0600 
    163 H163       -2.4908  -15.7174  -38.4139 H         1 UNK         0.0600 
    164 H164       -0.6179  -15.0932  -40.1212 H         1 UNK         0.3000 
    165 H165        0.3966  -15.1552  -43.4905 H         1 UNK         0.0600 
    166 H166       -0.8267  -13.0287  -43.7217 H         1 UNK         0.0600 
    167 H167       -1.9757  -14.3524  -43.7198 H         1 UNK         0.0600 
    168 H168       -1.7778  -13.3679  -42.2737 H         1 UNK         0.0600 
    169 H169        0.6455  -13.0401  -41.7150 H         1 UNK         0.3000 
    170 H170        2.1841  -13.0751  -39.6986 H         1 UNK         0.0600 
    171 H171        3.6606  -14.9610  -39.0389 H         1 UNK         0.0600 
    172 H172        4.6472  -14.7360  -40.4800 H         1 UNK         0.0600 
    173 H173        4.6069  -13.4938  -39.2304 H         1 UNK         0.0600 
    174 H174        3.7189  -12.9325  -42.2545 H         1 UNK         0.3000 
    175 H175        2.9195   -9.5684  -42.6665 H         1 UNK         0.0600 
    176 H176        5.7562  -10.6435  -42.2070 H         1 UNK         0.0600 
    177 H177        5.3323   -9.2032  -43.1338 H         1 UNK         0.0600 
    178 H178        5.0499   -9.2481  -41.4012 H         1 UNK         0.0600 
    179 H179        4.5071  -11.3884  -44.2032 H         1 UNK         0.3000 
    180 H180        3.3968  -12.0901  -46.3056 H         1 UNK         0.0600 
    181 H181        2.7596  -14.4047  -44.3834 H         1 UNK         0.0600 
    182 H182        4.3580  -13.7544  -44.7268 H         1 UNK         0.0600 
    183 H183        3.4738  -14.6032  -45.9818 H         1 UNK         0.0600 
    184 H184        0.9743  -13.7234  -45.9366 H         1 UNK         0.3000 
    185 H185       -1.2227  -12.5718  -46.8086 H         1 UNK         0.0600 
    186 H186       -1.2180  -10.7802  -48.5247 H         1 UNK         0.0600 
    187 H187       -0.4643  -11.8637  -49.6899 H         1 UNK         0.0600 
    188 H188       -2.0960  -12.1852  -49.1024 H         1 UNK         0.0600 
    189 H189       -0.4397  -14.2323  -49.0593 H         1 UNK         0.3000 
    190 H190       -0.4460  -24.8398  -47.8296 H         1 UNK         0.3000 
    191 H191       -3.2435  -24.6838  -48.0894 H         1 UNK         0.0600 
    192 H192       -3.0136  -26.9928  -49.0334 H         1 UNK         0.0600 
    193 H193       -2.0202  -26.7874  -47.6016 H         1 UNK         0.0600 
    194 H194       -1.2787  -26.7599  -49.2026 H         1 UNK         0.0600 
    195 H195       -0.7728  -23.9225  -50.4112 H         1 UNK         0.3000 
    196 H196       -2.5195  -23.9973  -52.7617 H         1 UNK         0.0600 
    197 H197        0.3688  -23.0302  -52.4122 H         1 UNK         0.0600 
    198 H198       -0.1104  -24.6513  -52.9176 H         1 UNK         0.0600 
    199 H199       -0.4634  -23.2706  -53.9428 H         1 UNK         0.0600 
    200 H200       -2.2888  -21.8755  -50.2126 H         1 UNK         0.3000 
    201 H201       -3.1863  -19.5548  -51.8760 H         1 UNK         0.0600 
    202 H202       -0.9692  -19.1059  -50.7805 H         1 UNK         0.0600 
    203 H203       -1.6697  -19.4908  -49.2130 H         1 UNK         0.0600 
    204 H204       -2.2440  -18.0942  -50.1222 H         1 UNK         0.0600 
    205 H205       -3.5446  -21.4427  -48.8639 H         1 UNK         0.3000 
    206 H206       -5.7018  -19.9875  -47.7831 H         1 UNK         0.0600 
    207 H207       -4.0989  -21.3988  -46.4819 H         1 UNK         0.0600 
    208 H208       -5.7524  -21.8825  -46.1621 H         1 UNK         0.0600 
    209 H209       -4.7497  -22.8510  -47.2345 H         1 UNK         0.0600 
    210 H210       -5.9285  -21.9716  -50.5024 H         1 UNK         0.3000 
    211 H211       -7.6012  -22.8097  -51.6919 H         1 UNK         0.0600 
    212 H212       -9.9132  -22.3011  -51.3523 H         1 UNK         0.0600 
    213 H213       -9.0008  -20.8602  -50.9364 H         1 UNK         0.0600 
    214 H214       -9.6714  -21.8850  -49.6663 H         1 UNK         0.0600 
    215 H215       -6.2575  -24.1978  -49.3224 H         1 UNK         0.3000 
    216 H216       -8.1056  -26.3625  -48.6295 H         1 UNK         0.0600 
    217 H217       -5.1144  -26.0301  -48.0745 H         1 UNK         0.0600 
    218 H218       -6.1627  -27.2580  -47.3832 H         1 UNK         0.0600 
    219 H219       -6.4190  -25.5652  -46.9858 H         1 UNK         0.0600 
    220 H220       -5.1349  -25.9572  -50.6143 H         1 UNK         0.3000 
    221 H221       -5.7860  -28.4492  -52.1458 H         1 UNK         0.0600 
    222 H222       -3.5394  -28.4752  -51.0501 H         1 UNK         0.0600 
    223 H223       -3.1144  -26.9696  -51.8636 H         1 UNK         0.0600 
    224 H224       -3.4067  -28.4267  -52.8008 H         1 UNK         0.0600 
    225 H225       -4.9224  -24.9521  -52.3146 H         1 UNK         0.3000 
    226 H226       -6.4990  -24.5575  -54.6719 H         1 UNK         0.0600 
    227 H227       -3.4452  -24.1775  -54.9078 H         1 UNK         0.0600 
    228 H228       -4.3688  -25.4109  -55.7583 H         1 UNK         0.0600 
    229 H229       -4.6343  -23.7188  -56.1184 H         1 UNK         0.0600 
    230 H230       -6.3883  -22.1803  -55.2613 H         1 UNK         0.3000 
    231 H231       -5.6348  -20.4309  -52.9415 H         1 UNK         0.0600 
    232 H232       -7.8711  -20.0424  -55.0010 H         1 UNK         0.0600 
    233 H233       -7.4827  -18.9669  -53.6619 H         1 UNK         0.0600 
    234 H234       -8.1094  -20.5734  -53.3366 H         1 UNK         0.0600 
    235 H235       -4.2636  -21.4759  -55.5567 H         1 UNK         0.3000 
    236 H236       -4.0393  -19.4841  -57.4821 H         1 UNK         0.0600 
    237 H237       -3.4043  -21.8468  -57.8438 H         1 UNK         0.0600 
    238 H238       -2.0379  -20.8101  -58.2200 H         1 UNK         0.0600 
    239 H239       -2.0682  -21.6990  -56.7012 H         1 UNK         0.0600 
    240 H240       -2.1669  -19.8507  -54.4822 H         1 UNK         0.3000 
    241 H241       -0.6505  -17.3777  -55.1490 H         1 UNK         0.0600 
    242 H242       -3.4238  -16.5601  -52.5850 H         1 UNK         0.3800 
    243 H243       -3.5698  -17.6635  -53.9290 H         1 UNK         0.3800 
    244 H244        0.4215  -19.8022  -54.3084 H         1 UNK         0.0800 
    245 H245        0.2956  -18.9637  -52.7914 H         1 UNK         0.0800 
    246 H246        4.0949  -18.6536  -54.2023 H         1 UNK         0.0800 
    247 H247        2.9733  -19.9892  -54.2984 H         1 UNK         0.0800 
@<TRIPOS>BOND
     1    1    2 1    
     2    1  127 1    
     3    1  128 1    
     4    1  129 1    
     5    2    3 2    
     6    2    4 am   BACKBONE|DICT|INTERRES
     7    4    5 1    
     8    4  130 1    
     9    5    6 1    
    10    5   65 1    
    11    5  131 1    
    12    6    7 1    
    13    6  132 1    
    14    6  133 1    
    15    7    8 1    
    16    8    9 1    
    17    8  134 1    
    18    8  135 1    
    19    9   10 ar   
    20    9   14 ar   
    21   10   11 ar   
    22   10  136 1    
    23   11   12 ar   
    24   11  126 1    
    25   12   13 ar   
    26   12  137 1    
    27   13   14 ar   
    28   13   15 1    
    29   14  138 1    
    30   15   16 1    
    31   15  139 1    
    32   15  140 1    
    33   16   17 1    
    34   17   18 1    
    35   17  141 1    
    36   17  142 1    
    37   18   19 1    
    38   18   67 1    
    39   18  143 1    
    40   19   20 am   BACKBONE|DICT|INTERRES
    41   19  144 1    
    42   20   21 2    
    43   20   22 1    
    44   22   23 1    
    45   22   24 1    
    46   22  145 1    
    47   23  146 1    
    48   23  147 1    
    49   23  148 1    
    50   24   25 am   BACKBONE|DICT|INTERRES
    51   24  149 1    
    52   25   26 2    
    53   25   27 1    
    54   27   28 1    
    55   27   29 1    
    56   27  150 1    
    57   28  151 1    
    58   28  152 1    
    59   28  153 1    
    60   29   30 am   BACKBONE|DICT|INTERRES
    61   29  154 1    
    62   30   31 2    
    63   30   32 1    
    64   32   33 1    
    65   32   34 1    
    66   32  155 1    
    67   33  156 1    
    68   33  157 1    
    69   33  158 1    
    70   34   35 am   BACKBONE|DICT|INTERRES
    71   34  159 1    
    72   35   36 2    
    73   35   37 1    
    74   37   38 1    
    75   37   39 1    
    76   37  160 1    
    77   38  161 1    
    78   38  162 1    
    79   38  163 1    
    80   39   40 am   BACKBONE|DICT|INTERRES
    81   39  164 1    
    82   40   41 2    
    83   40   42 1    
    84   42   43 1    
    85   42   44 1    
    86   42  165 1    
    87   43  166 1    
    88   43  167 1    
    89   43  168 1    
    90   44   45 am   BACKBONE|DICT|INTERRES
    91   44  169 1    
    92   45   46 2    
    93   45   47 1    
    94   47   48 1    
    95   47   49 1    
    96   47  170 1    
    97   48  171 1    
    98   48  172 1    
    99   48  173 1    
   100   49   50 am   BACKBONE|DICT|INTERRES
   101   49  174 1    
   102   50   51 2    
   103   50   52 1    
   104   52   53 1    
   105   52   54 1    
   106   52  175 1    
   107   53  176 1    
   108   53  177 1    
   109   53  178 1    
   110   54   55 am   BACKBONE|DICT|INTERRES
   111   54  179 1    
   112   55   56 2    
   113   55   57 1    
   114   57   58 1    
   115   57   59 1    
   116   57  180 1    
   117   58  181 1    
   118   58  182 1    
   119   58  183 1    
   120   59   60 am   BACKBONE|DICT|INTERRES
   121   59  184 1    
   122   60   61 2    
   123   60   62 1    
   124   62   63 1    
   125   62   64 1    
   126   62  185 1    
   127   63  186 1    
   128   63  187 1    
   129   63  188 1    
   130   64   65 am   BACKBONE|DICT|INTERRES
   131   64  189 1    
   132   65   66 2    
   133   67   68 2    
   134   67   69 am   BACKBONE|DICT|INTERRES
   135   69   70 1    
   136   69  190 1    
   137   70   71 1    
   138   70   72 1    
   139   70  191 1    
   140   71  192 1    
   141   71  193 1    
   142   71  194 1    
   143   72   73 2    
   144   72   74 am   BACKBONE|DICT|INTERRES
   145   74   75 1    
   146   74  195 1    
   147   75   76 1    
   148   75   77 1    
   149   75  196 1    
   150   76  197 1    
   151   76  198 1    
   152   76  199 1    
   153   77   78 2    
   154   77   79 am   BACKBONE|DICT|INTERRES
   155   79   80 1    
   156   79  200 1    
   157   80   81 1    
   158   80   82 1    
   159   80  201 1    
   160   81  202 1    
   161   81  203 1    
   162   81  204 1    
   163   82   83 2    
   164   82   84 am   BACKBONE|DICT|INTERRES
   165   84   85 1    
   166   84  205 1    
   167   85   86 1    
   168   85   87 1    
   169   85  206 1    
   170   86  207 1    
   171   86  208 1    
   172   86  209 1    
   173   87   88 2    
   174   87   89 am   BACKBONE|DICT|INTERRES
   175   89   90 1    
   176   89  210 1    
   177   90   91 1    
   178   90   92 1    
   179   90  211 1    
   180   91  212 1    
   181   91  213 1    
   182   91  214 1    
   183   92   93 2    
   184   92   94 am   BACKBONE|DICT|INTERRES
   185   94   95 1    
   186   94  215 1    
   187   95   96 1    
   188   95   97 1    
   189   95  216 1    
   190   96  217 1    
   191   96  218 1    
   192   96  219 1    
   193   97   98 2    
   194   97   99 am   BACKBONE|DICT|INTERRES
   195   99  100 1    
   196   99  220 1    
   197  100  101 1    
   198  100  102 1    
   199  100  221 1    
   200  101  222 1    
   201  101  223 1    
   202  101  224 1    
   203  102  103 2    
   204  102  104 am   BACKBONE|DICT|INTERRES
   205  104  105 1    
   206  104  225 1    
   207  105  106 1    
   208  105  107 1    
   209  105  226 1    
   210  106  227 1    
   211  106  228 1    
   212  106  229 1    
   213  107  108 2    
   214  107  109 am   BACKBONE|DICT|INTERRES
   215  109  110 1    
   216  109  230 1    
   217  110  111 1    
   218  110  112 1    
   219  110  231 1    
   220  111  232 1    
   221  111  233 1    
   222  111  234 1    
   223  112  113 2    
   224  112  114 am   BACKBONE|DICT|INTERRES
   225  114  115 1    
   226  114  235 1    
   227  115  116 1    
   228  115  117 1    
   229  115  236 1    
   230  116  237 1    
   231  116  238 1    
   232  116  239 1    
   233  117  118 2    
   234  117  119 am   BACKBONE|DICT|INTERRES
   235  119  120 1    
   236  119  240 1    
   237  120  121 1    
   238  120  124 1    
   239  120  241 1    
   240  121  122 am   BACKBONE|DICT|INTERRES
   241  121  123 2    
   242  122  242 1    
   243  122  243 1    
   244  124  125 1    
   245  124  244 1    
   246  124  245 1    
   247  125  126 1    
   248  126  246 1    
   249  126  247 1    
@<TRIPOS>SUBSTRUCTURE
     1 UNK         1 GROUP             0       ****    0 ROOT    
