@<TRIPOS>MOLECULE
3R540
247   249    1
SMALL
USER_CHARGES


@<TRIPOS>ATOM
      1 CA         -2.1670  -16.0901  -45.7282 C.3       0 UNK        -0.1800 
      2 C          -2.1725  -15.2965  -47.0265 C.2       0 UNK         0.5000 
      3 O          -3.1131  -14.5444  -47.2800 O.2       0 UNK        -0.5000 
      4 N          -1.1354  -15.4745  -47.8559 N.am      1 UNK        -0.5000 
      5 CA         -1.0239  -14.8708  -49.1903 C.3       1 UNK         0.1400 
      6 C6          0.0678  -15.5445  -50.0571 C.3       23 UNK        -0.0398 
      7 S7         -0.1614  -17.3433  -50.2368 S.3       23 UNK        -0.2404 
      8 C8          1.0953  -17.7123  -51.4958 C.3       23 UNK        -0.0205 
      9 C9          1.7791  -19.0386  -51.2131 C.ar      23 UNK        -0.0193 
     10 C10         1.3141  -20.2165  -51.8039 C.ar      23 UNK        -0.1150 
     11 C11         1.9588  -21.4329  -51.5603 C.ar      23 UNK        -0.0193 
     12 C12         3.0791  -21.4602  -50.7262 C.ar      23 UNK        -0.1150 
     13 C13         3.5372  -20.2939  -50.1078 C.ar      23 UNK        -0.0193 
     14 C14         2.8848  -19.0844  -50.3597 C.ar      23 UNK        -0.1150 
     15 C15         4.7422  -20.3349  -49.1783 C.3       23 UNK        -0.0205 
     16 S16         4.5638  -21.5533  -47.8342 S.3       23 UNK        -0.2404 
     17 C17         3.1649  -20.8828  -46.8739 C.3       23 UNK        -0.0398 
     18 CA          2.0429  -21.9365  -46.6575 C.3       11 UNK         0.1400 
     19 N           1.5496  -21.9349  -45.2780 N.am      11 UNK        -0.5000 
     20 C           0.8476  -22.9317  -44.7219 C.2       10 UNK         0.5000 
     21 O           0.6146  -24.0002  -45.2859 O.2       10 UNK        -0.5000 
     22 CA          0.2872  -22.6880  -43.3083 C.3       10 UNK         0.1400 
     23 CB          1.3104  -23.1090  -42.2430 C.3       10 UNK        -0.1800 
     24 N          -0.1135  -21.2980  -43.0821 N.am      10 UNK        -0.5000 
     25 C          -1.1114  -20.6799  -43.7302 C.2       9 UNK         0.5000 
     26 O          -1.8345  -21.2360  -44.5560 O.2       9 UNK        -0.5000 
     27 CA         -1.3036  -19.1784  -43.4476 C.3       9 UNK         0.1400 
     28 CB         -2.1158  -18.9596  -42.1634 C.3       9 UNK        -0.1800 
     29 N          -0.0396  -18.4472  -43.3568 N.am      9 UNK        -0.5000 
     30 C           0.8531  -18.3274  -44.3494 C.2       8 UNK         0.5000 
     31 O           0.7030  -18.8068  -45.4722 O.2       8 UNK        -0.5000 
     32 CA          2.1603  -17.5943  -44.0140 C.3       8 UNK         0.1400 
     33 CB          1.9602  -16.0704  -44.0233 C.3       8 UNK        -0.1800 
     34 N           2.6979  -18.0244  -42.7236 N.am      8 UNK        -0.5000 
     35 C           3.2130  -19.2406  -42.4907 C.2       7 UNK         0.5000 
     36 O           3.3297  -20.1108  -43.3534 O.2       7 UNK        -0.5000 
     37 CA          3.6320  -19.5480  -41.0415 C.3       7 UNK         0.1400 
     38 CB          5.0415  -19.0074  -40.7582 C.3       7 UNK        -0.1800 
     39 N           2.6960  -19.0024  -40.0574 N.am      7 UNK        -0.5000 
     40 C           1.4316  -19.4205  -39.9034 C.2       6 UNK         0.5000 
     41 O           0.9296  -20.3348  -40.5549 O.2       6 UNK        -0.5000 
     42 CA          0.5681  -18.6532  -38.8856 C.3       6 UNK         0.1400 
     43 CB          0.7594  -19.2266  -37.4737 C.3       6 UNK        -0.1800 
     44 N           0.8322  -17.2114  -38.8667 N.am      6 UNK        -0.5000 
     45 C           0.6649  -16.3936  -39.9142 C.2       5 UNK         0.5000 
     46 O           0.3192  -16.7776  -41.0337 O.2       5 UNK        -0.5000 
     47 CA          0.9993  -14.9091  -39.6827 C.3       5 UNK         0.1400 
     48 CB          2.4762  -14.6456  -40.0165 C.3       5 UNK        -0.1800 
     49 N           0.1730  -14.0111  -40.4891 N.am      5 UNK        -0.5000 
     50 C          -1.1611  -13.8974  -40.4204 C.2       4 UNK         0.5000 
     51 O          -1.8566  -14.5248  -39.6197 O.2       4 UNK        -0.5000 
     52 CA         -1.8359  -12.8909  -41.3771 C.3       4 UNK         0.1400 
     53 CB         -2.6335  -11.8383  -40.5882 C.3       4 UNK        -0.1800 
     54 N          -0.8846  -12.1917  -42.2473 N.am      4 UNK        -0.5000 
     55 C          -0.4691  -12.6362  -43.4379 C.2       3 UNK         0.5000 
     56 O          -0.8275  -13.7010  -43.9435 O.2       3 UNK        -0.5000 
     57 CA          0.5393  -11.7514  -44.1774 C.3       3 UNK         0.1400 
     58 CB          1.9792  -12.0737  -43.7376 C.3       3 UNK        -0.1800 
     59 N           0.3873  -11.9763  -45.6106 N.am      3 UNK        -0.5000 
     60 C           0.7436  -11.1123  -46.5683 C.2       2 UNK         0.5000 
     61 O           1.2670  -10.0228  -46.3290 O.2       2 UNK        -0.5000 
     62 CA          0.4778  -11.5126  -48.0322 C.3       2 UNK         0.1400 
     63 CB          1.7103  -11.2686  -48.9250 C.3       2 UNK        -0.1800 
     64 N           0.0454  -12.9062  -48.1727 N.am      2 UNK        -0.5000 
     65 C          -0.7768  -13.3497  -49.1332 C.2       1 UNK         0.5000 
     66 O          -1.3159  -12.6184  -49.9653 O.2       1 UNK        -0.5000 
     67 C           0.8714  -21.7721  -47.6496 C.2       11 UNK         0.5000 
     68 O           0.7268  -22.5743  -48.5730 O.2       11 UNK        -0.5000 
     69 N           0.0141  -20.7741  -47.3875 N.am      12 UNK        -0.5000 
     70 CA         -1.1736  -20.4319  -48.1714 C.3       12 UNK         0.1400 
     71 CB         -1.8072  -19.1610  -47.5920 C.3       12 UNK        -0.1800 
     72 C          -2.2335  -21.5430  -48.2444 C.2       12 UNK         0.5000 
     73 O          -3.0179  -21.5568  -49.1926 O.2       12 UNK        -0.5000 
     74 N          -2.2523  -22.4607  -47.2681 N.am      13 UNK        -0.5000 
     75 CA         -3.1377  -23.6278  -47.2171 C.3       13 UNK         0.1400 
     76 CB         -2.8734  -24.4137  -45.9255 C.3       13 UNK        -0.1800 
     77 C          -3.0102  -24.5482  -48.4480 C.2       13 UNK         0.5000 
     78 O          -4.0160  -25.0900  -48.9062 O.2       13 UNK        -0.5000 
     79 N          -1.7971  -24.6429  -49.0109 N.am      14 UNK        -0.5000 
     80 CA         -1.5023  -25.3541  -50.2589 C.3       14 UNK         0.1400 
     81 CB         -0.0104  -25.7197  -50.2791 C.3       14 UNK        -0.1800 
     82 C          -1.9345  -24.5878  -51.5316 C.2       14 UNK         0.5000 
     83 O          -1.8103  -25.1267  -52.6325 O.2       14 UNK        -0.5000 
     84 N          -2.4506  -23.3636  -51.3638 N.am      15 UNK        -0.5000 
     85 CA         -3.1323  -22.5574  -52.3750 C.3       15 UNK         0.1400 
     86 CB         -2.3853  -21.2209  -52.5373 C.3       15 UNK        -0.1800 
     87 C          -4.6122  -22.3431  -51.9928 C.2       15 UNK         0.5000 
     88 O          -5.2181  -21.3654  -52.4309 O.2       15 UNK        -0.5000 
     89 N          -5.1685  -23.2367  -51.1577 N.am      16 UNK        -0.5000 
     90 CA         -6.5424  -23.2253  -50.6396 C.3       16 UNK         0.1400 
     91 CB         -7.5553  -23.4603  -51.7811 C.3       16 UNK        -0.1800 
     92 C          -6.8560  -21.9625  -49.8086 C.2       16 UNK         0.5000 
     93 O          -7.9116  -21.3546  -49.9816 O.2       16 UNK        -0.5000 
     94 N          -5.9051  -21.5729  -48.9468 N.am      17 UNK        -0.5000 
     95 CA         -5.8786  -20.3355  -48.1552 C.3       17 UNK         0.1400 
     96 CB         -7.0525  -20.2707  -47.1559 C.3       17 UNK        -0.1800 
     97 C          -5.7614  -19.0891  -49.0571 C.2       17 UNK         0.5000 
     98 O          -6.4227  -18.0784  -48.8167 O.2       17 UNK        -0.5000 
     99 N          -4.9234  -19.2153  -50.0972 N.am      18 UNK        -0.5000 
    100 CA        -4.6420  -18.2424  -51.1595 C.3       18 UNK         0.1400 
    101 CB        -3.9920  -16.9703  -50.5777 C.3       18 UNK        -0.1800 
    102 C         -5.8464  -17.9245  -52.0758 C.2       18 UNK         0.5000 
    103 O         -5.8102  -16.9250  -52.7959 O.2       18 UNK        -0.5000 
    104 N         -6.8860  -18.7702  -52.0544 N.am      19 UNK        -0.5000 
    105 CA        -8.0715  -18.6460  -52.9044 C.3       19 UNK         0.1400 
    106 CB        -9.2588  -19.3356  -52.2164 C.3       19 UNK        -0.1800 
    107 C         -7.8584  -19.2360  -54.3114 C.2       19 UNK         0.5000 
    108 O         -8.5726  -18.8509  -55.2386 O.2       19 UNK        -0.5000 
    109 N         -6.9008  -20.1594  -54.4446 N.am      20 UNK        -0.5000 
    110 CA        -6.5266  -20.8382  -55.6806 C.3       20 UNK         0.1400 
    111 CB        -6.8479  -22.3362  -55.5184 C.3       20 UNK        -0.1800 
    112 C         -5.0317  -20.6092  -55.9675 C.2       20 UNK         0.5000 
    113 O         -4.3647  -19.8565  -55.2534 O.2       20 UNK        -0.5000 
    114 N         -4.5236  -21.2658  -57.0168 N.am      21 UNK        -0.5000 
    115 CA        -3.0936  -21.3595  -57.3076 C.3       21 UNK         0.1400 
    116 CB        -2.9100  -21.7988  -58.7686 C.3       21 UNK        -0.1800 
    117 C         -2.4119  -22.3589  -56.3534 C.2       21 UNK         0.5000 
    118 O         -3.0492  -23.3240  -55.9254 O.2       21 UNK        -0.5000 
    119 N         -1.1298  -22.1171  -56.0571 N.am      22 UNK        -0.5000 
    120 CA        -0.2733  -22.9825  -55.2330 C.3       22 UNK         0.1400 
    121 C         -0.0639  -24.3835  -55.8763 C.2       22 UNK         0.5000 
    122 N         -0.4404  -25.4540  -55.1890 N.am      22 UNK        -0.7600 
    123 O          0.4556  -24.5001  -56.9840 O.2       22 UNK        -0.5000 
    124 C124        1.0628  -22.2575  -54.9147 C.3       23 UNK        -0.0398 
    125 S125        2.1525  -23.1495  -53.7525 S.3       23 UNK        -0.2404 
    126 C126        1.4254  -22.7330  -52.1396 C.3       23 UNK        -0.0205 
    127 H127       -2.8121  -16.9630  -45.8209 H         1 UNK         0.0600 
    128 H128       -2.5424  -15.4800  -44.9072 H         1 UNK         0.0600 
    129 H129       -1.1633  -16.4244  -45.4680 H         1 UNK         0.0600 
    130 H130       -0.4054  -16.1270  -47.6093 H         1 UNK         0.3000 
    131 H131       -1.9808  -15.0156  -49.6954 H         1 UNK         0.0600 
    132 H132        1.0586  -15.3703  -49.6330 H         1 UNK         0.0800 
    133 H133        0.0772  -15.1046  -51.0564 H         1 UNK         0.0800 
    134 H134        0.6246  -17.7247  -52.4799 H         1 UNK         0.0800 
    135 H135        1.8458  -16.9209  -51.5263 H         1 UNK         0.0800 
    136 H136        0.4477  -20.1797  -52.4454 H         1 UNK         0.1150 
    137 H137        3.5782  -22.3990  -50.5315 H         1 UNK         0.1150 
    138 H138        3.2359  -18.1745  -49.8935 H         1 UNK         0.1150 
    139 H139        5.6258  -20.5877  -49.7655 H         1 UNK         0.0800 
    140 H140        4.9337  -19.3535  -48.7416 H         1 UNK         0.0800 
    141 H141        2.7871  -19.9651  -47.3291 H         1 UNK         0.0800 
    142 H142        3.5851  -20.5707  -45.9180 H         1 UNK         0.0800 
    143 H143        2.4640  -22.9297  -46.8296 H         1 UNK         0.0600 
    144 H144        1.7177  -21.0982  -44.7343 H         1 UNK         0.3000 
    145 H145       -0.6002  -23.3141  -43.1940 H         1 UNK         0.0600 
    146 H146        0.8876  -23.0365  -41.2409 H         1 UNK         0.0600 
    147 H147        1.6247  -24.1433  -42.3884 H         1 UNK         0.0600 
    148 H148        2.2042  -22.4851  -42.2755 H         1 UNK         0.0600 
    149 H149        0.3922  -20.7917  -42.3607 H         1 UNK         0.3000 
    150 H150       -1.8689  -18.7552  -44.2788 H         1 UNK         0.0600 
    151 H151       -3.0868  -19.4521  -42.2272 H         1 UNK         0.0600 
    152 H152       -2.2980  -17.8989  -41.9883 H         1 UNK         0.0600 
    153 H153       -1.6013  -19.3589  -41.2895 H         1 UNK         0.0600 
    154 H154        0.1518  -17.9775  -42.4748 H         1 UNK         0.3000 
    155 H155        2.8903  -17.8429  -44.7874 H         1 UNK         0.0600 
    156 H156        1.6002  -15.7311  -44.9954 H         1 UNK         0.0600 
    157 H157        1.2320  -15.7466  -43.2794 H         1 UNK         0.0600 
    158 H158        2.8970  -15.5503  -43.8240 H         1 UNK         0.0600 
    159 H159        2.5768  -17.3916  -41.9473 H         1 UNK         0.3000 
    160 H160        3.6526  -20.6337  -40.9248 H         1 UNK         0.0600 
    161 H161        5.0801  -17.9198  -40.8325 H         1 UNK         0.0600 
    162 H162        5.7638  -19.4111  -41.4689 H         1 UNK         0.0600 
    163 H163        5.3780  -19.2882  -39.7600 H         1 UNK         0.0600 
    164 H164        3.0270  -18.2444  -39.4794 H         1 UNK         0.3000 
    165 H165       -0.4766  -18.7931  -39.1698 H         1 UNK         0.0600 
    166 H166        0.0836  -18.7538  -36.7609 H         1 UNK         0.0600 
    167 H167        0.5505  -20.2972  -37.4560 H         1 UNK         0.0600 
    168 H168        1.7797  -19.0852  -37.1151 H         1 UNK         0.0600 
    169 H169        1.1334  -16.8227  -37.9846 H         1 UNK         0.3000 
    170 H170        0.8253  -14.6701  -38.6316 H         1 UNK         0.0600 
    171 H171        2.6934  -14.8443  -41.0670 H         1 UNK         0.0600 
    172 H172        2.7492  -13.6108  -39.8086 H         1 UNK         0.0600 
    173 H173        3.1342  -15.2785  -39.4195 H         1 UNK         0.0600 
    174 H174        0.6513  -13.4710  -41.1924 H         1 UNK         0.3000 
    175 H175       -2.5399  -13.4559  -41.9920 H         1 UNK         0.0600 
    176 H176       -3.1453  -11.1476  -41.2586 H         1 UNK         0.0600 
    177 H177       -1.9883  -11.2535  -39.9313 H         1 UNK         0.0600 
    178 H178       -3.3971  -12.3070  -39.9661 H         1 UNK         0.0600 
    179 H179       -0.5309  -11.3111  -41.9004 H         1 UNK         0.3000 
    180 H180        0.3123  -10.7075  -43.9499 H         1 UNK         0.0600 
    181 H181        2.6997  -11.4230  -44.2332 H         1 UNK         0.0600 
    182 H182        2.2474  -13.1045  -43.9695 H         1 UNK         0.0600 
    183 H183        2.1046  -11.9336  -42.6633 H         1 UNK         0.0600 
    184 H184       -0.1224  -12.8186  -45.8418 H         1 UNK         0.3000 
    185 H185       -0.3249  -10.8543  -48.3707 H         1 UNK         0.0600 
    186 H186        2.0373  -10.2294  -48.8751 H         1 UNK         0.0600 
    187 H187        2.5511  -11.8939  -48.6232 H         1 UNK         0.0600 
    188 H188        1.4912  -11.4840  -49.9709 H         1 UNK         0.0600 
    189 H189        0.4595  -13.5743  -47.5391 H         1 UNK         0.3000 
    190 H190        0.2202  -20.1527  -46.6078 H         1 UNK         0.3000 
    191 H191       -0.8442  -20.2245  -49.1915 H         1 UNK         0.0600 
    192 H192       -1.0817  -18.3510  -47.5376 H         1 UNK         0.0600 
    193 H193       -2.6345  -18.8163  -48.2120 H         1 UNK         0.0600 
    194 H194       -2.1964  -19.3298  -46.5884 H         1 UNK         0.0600 
    195 H195       -1.6352  -22.3227  -46.4772 H         1 UNK         0.3000 
    196 H196       -4.1642  -23.2583  -47.1839 H         1 UNK         0.0600 
    197 H197       -3.5664  -25.2505  -45.8295 H         1 UNK         0.0600 
    198 H198       -3.0005  -23.7835  -45.0451 H         1 UNK         0.0600 
    199 H199       -1.8627  -24.8216  -45.9036 H         1 UNK         0.0600 
    200 H200       -1.0311  -24.1218  -48.6005 H         1 UNK         0.3000 
    201 H201       -2.0668  -26.2888  -50.2655 H         1 UNK         0.0600 
    202 H202        0.2073  -26.4912  -49.5404 H         1 UNK         0.0600 
    203 H203        0.6150  -24.8614  -50.0430 H         1 UNK         0.0600 
    204 H204        0.3003  -26.1063  -51.2507 H         1 UNK         0.0600 
    205 H205       -2.4961  -22.9797  -50.4256 H         1 UNK         0.3000 
    206 H206       -3.1364  -23.0734  -53.3347 H         1 UNK         0.0600 
    207 H207       -1.3787  -21.3801  -52.9111 H         1 UNK         0.0600 
    208 H208       -2.8813  -20.5699  -53.2554 H         1 UNK         0.0600 
    209 H209       -2.3107  -20.6762  -51.5964 H         1 UNK         0.0600 
    210 H210       -4.5893  -23.9928  -50.8159 H         1 UNK         0.3000 
    211 H211       -6.6182  -24.0691  -49.9524 H         1 UNK         0.0600 
    212 H212       -7.5879  -22.6208  -52.4762 H         1 UNK         0.0600 
    213 H213       -8.5631  -23.5939  -51.3866 H         1 UNK         0.0600 
    214 H214       -7.3084  -24.3565  -52.3501 H         1 UNK         0.0600 
    215 H215       -5.0319  -22.0849  -48.9564 H         1 UNK         0.3000 
    216 H216       -4.9614  -20.3682  -47.5661 H         1 UNK         0.0600 
    217 H217       -6.9331  -19.4291  -46.4728 H         1 UNK         0.0600 
    218 H218       -7.1045  -21.1752  -46.5500 H         1 UNK         0.0600 
    219 H219       -8.0122  -20.1458  -47.6577 H         1 UNK         0.0600 
    220 H220       -4.4418  -20.1009  -50.1907 H         1 UNK         0.3000 
    221 H221       -3.9027  -18.7173  -51.8050 H         1 UNK         0.0600 
    222 H222       -4.7018  -16.3782  -49.9998 H         1 UNK         0.0600 
    223 H223       -3.1564  -17.2184  -49.9251 H         1 UNK         0.0600 
    224 H224       -3.6025  -16.3312  -51.3707 H         1 UNK         0.0600 
    225 H225       -6.8352  -19.5850  -51.4575 H         1 UNK         0.3000 
    226 H226       -8.3174  -17.5882  -53.0183 H         1 UNK         0.0600 
    227 H227       -9.4075  -18.9564  -51.2051 H         1 UNK         0.0600 
    228 H228      -10.1827  -19.1628  -52.7695 H         1 UNK         0.0600 
    229 H229       -9.1145  -20.4146  -52.1536 H         1 UNK         0.0600 
    230 H230       -6.3135  -20.3831  -53.6441 H         1 UNK         0.3000 
    231 H231       -7.0898  -20.4415  -56.5273 H         1 UNK         0.0600 
    232 H232       -6.2254  -22.7989  -54.7513 H         1 UNK         0.0600 
    233 H233       -6.6869  -22.8840  -56.4471 H         1 UNK         0.0600 
    234 H234       -7.8900  -22.4864  -55.2356 H         1 UNK         0.0600 
    235 H235       -5.1236  -21.8869  -57.5391 H         1 UNK         0.3000 
    236 H236       -2.6382  -20.3750  -57.1790 H         1 UNK         0.0600 
    237 H237       -3.3744  -21.0905  -59.4550 H         1 UNK         0.0600 
    238 H238       -1.8524  -21.8574  -59.0292 H         1 UNK         0.0600 
    239 H239       -3.3472  -22.7812  -58.9521 H         1 UNK         0.0600 
    240 H240       -0.6756  -21.3226  -56.4829 H         1 UNK         0.3000 
    241 H241       -0.7982  -23.1315  -54.2896 H         1 UNK         0.0600 
    242 H242       -0.9060  -25.3635  -54.2885 H         1 UNK         0.3800 
    243 H243       -0.3063  -26.3695  -55.5872 H         1 UNK         0.3800 
    244 H244        0.8643  -21.2661  -54.5079 H         1 UNK         0.0800 
    245 H245        1.6252  -22.0915  -55.8350 H         1 UNK         0.0800 
    246 H246        1.6703  -23.5440  -51.4562 H         1 UNK         0.0800 
    247 H247        0.3389  -22.7116  -52.1985 H         1 UNK         0.0800 
@<TRIPOS>BOND
     1    1    2 1    
     2    1  127 1    
     3    1  128 1    
     4    1  129 1    
     5    2    3 2    
     6    2    4 am   BACKBONE|DICT|INTERRES
     7    4    5 1    
     8    4  130 1    
     9    5    6 1    
    10    5   65 1    
    11    5  131 1    
    12    6    7 1    
    13    6  132 1    
    14    6  133 1    
    15    7    8 1    
    16    8    9 1    
    17    8  134 1    
    18    8  135 1    
    19    9   10 ar   
    20    9   14 ar   
    21   10   11 ar   
    22   10  136 1    
    23   11   12 ar   
    24   11  126 1    
    25   12   13 ar   
    26   12  137 1    
    27   13   14 ar   
    28   13   15 1    
    29   14  138 1    
    30   15   16 1    
    31   15  139 1    
    32   15  140 1    
    33   16   17 1    
    34   17   18 1    
    35   17  141 1    
    36   17  142 1    
    37   18   19 1    
    38   18   67 1    
    39   18  143 1    
    40   19   20 am   BACKBONE|DICT|INTERRES
    41   19  144 1    
    42   20   21 2    
    43   20   22 1    
    44   22   23 1    
    45   22   24 1    
    46   22  145 1    
    47   23  146 1    
    48   23  147 1    
    49   23  148 1    
    50   24   25 am   BACKBONE|DICT|INTERRES
    51   24  149 1    
    52   25   26 2    
    53   25   27 1    
    54   27   28 1    
    55   27   29 1    
    56   27  150 1    
    57   28  151 1    
    58   28  152 1    
    59   28  153 1    
    60   29   30 am   BACKBONE|DICT|INTERRES
    61   29  154 1    
    62   30   31 2    
    63   30   32 1    
    64   32   33 1    
    65   32   34 1    
    66   32  155 1    
    67   33  156 1    
    68   33  157 1    
    69   33  158 1    
    70   34   35 am   BACKBONE|DICT|INTERRES
    71   34  159 1    
    72   35   36 2    
    73   35   37 1    
    74   37   38 1    
    75   37   39 1    
    76   37  160 1    
    77   38  161 1    
    78   38  162 1    
    79   38  163 1    
    80   39   40 am   BACKBONE|DICT|INTERRES
    81   39  164 1    
    82   40   41 2    
    83   40   42 1    
    84   42   43 1    
    85   42   44 1    
    86   42  165 1    
    87   43  166 1    
    88   43  167 1    
    89   43  168 1    
    90   44   45 am   BACKBONE|DICT|INTERRES
    91   44  169 1    
    92   45   46 2    
    93   45   47 1    
    94   47   48 1    
    95   47   49 1    
    96   47  170 1    
    97   48  171 1    
    98   48  172 1    
    99   48  173 1    
   100   49   50 am   BACKBONE|DICT|INTERRES
   101   49  174 1    
   102   50   51 2    
   103   50   52 1    
   104   52   53 1    
   105   52   54 1    
   106   52  175 1    
   107   53  176 1    
   108   53  177 1    
   109   53  178 1    
   110   54   55 am   BACKBONE|DICT|INTERRES
   111   54  179 1    
   112   55   56 2    
   113   55   57 1    
   114   57   58 1    
   115   57   59 1    
   116   57  180 1    
   117   58  181 1    
   118   58  182 1    
   119   58  183 1    
   120   59   60 am   BACKBONE|DICT|INTERRES
   121   59  184 1    
   122   60   61 2    
   123   60   62 1    
   124   62   63 1    
   125   62   64 1    
   126   62  185 1    
   127   63  186 1    
   128   63  187 1    
   129   63  188 1    
   130   64   65 am   BACKBONE|DICT|INTERRES
   131   64  189 1    
   132   65   66 2    
   133   67   68 2    
   134   67   69 am   BACKBONE|DICT|INTERRES
   135   69   70 1    
   136   69  190 1    
   137   70   71 1    
   138   70   72 1    
   139   70  191 1    
   140   71  192 1    
   141   71  193 1    
   142   71  194 1    
   143   72   73 2    
   144   72   74 am   BACKBONE|DICT|INTERRES
   145   74   75 1    
   146   74  195 1    
   147   75   76 1    
   148   75   77 1    
   149   75  196 1    
   150   76  197 1    
   151   76  198 1    
   152   76  199 1    
   153   77   78 2    
   154   77   79 am   BACKBONE|DICT|INTERRES
   155   79   80 1    
   156   79  200 1    
   157   80   81 1    
   158   80   82 1    
   159   80  201 1    
   160   81  202 1    
   161   81  203 1    
   162   81  204 1    
   163   82   83 2    
   164   82   84 am   BACKBONE|DICT|INTERRES
   165   84   85 1    
   166   84  205 1    
   167   85   86 1    
   168   85   87 1    
   169   85  206 1    
   170   86  207 1    
   171   86  208 1    
   172   86  209 1    
   173   87   88 2    
   174   87   89 am   BACKBONE|DICT|INTERRES
   175   89   90 1    
   176   89  210 1    
   177   90   91 1    
   178   90   92 1    
   179   90  211 1    
   180   91  212 1    
   181   91  213 1    
   182   91  214 1    
   183   92   93 2    
   184   92   94 am   BACKBONE|DICT|INTERRES
   185   94   95 1    
   186   94  215 1    
   187   95   96 1    
   188   95   97 1    
   189   95  216 1    
   190   96  217 1    
   191   96  218 1    
   192   96  219 1    
   193   97   98 2    
   194   97   99 am   BACKBONE|DICT|INTERRES
   195   99  100 1    
   196   99  220 1    
   197  100  101 1    
   198  100  102 1    
   199  100  221 1    
   200  101  222 1    
   201  101  223 1    
   202  101  224 1    
   203  102  103 2    
   204  102  104 am   BACKBONE|DICT|INTERRES
   205  104  105 1    
   206  104  225 1    
   207  105  106 1    
   208  105  107 1    
   209  105  226 1    
   210  106  227 1    
   211  106  228 1    
   212  106  229 1    
   213  107  108 2    
   214  107  109 am   BACKBONE|DICT|INTERRES
   215  109  110 1    
   216  109  230 1    
   217  110  111 1    
   218  110  112 1    
   219  110  231 1    
   220  111  232 1    
   221  111  233 1    
   222  111  234 1    
   223  112  113 2    
   224  112  114 am   BACKBONE|DICT|INTERRES
   225  114  115 1    
   226  114  235 1    
   227  115  116 1    
   228  115  117 1    
   229  115  236 1    
   230  116  237 1    
   231  116  238 1    
   232  116  239 1    
   233  117  118 2    
   234  117  119 am   BACKBONE|DICT|INTERRES
   235  119  120 1    
   236  119  240 1    
   237  120  121 1    
   238  120  124 1    
   239  120  241 1    
   240  121  122 am   BACKBONE|DICT|INTERRES
   241  121  123 2    
   242  122  242 1    
   243  122  243 1    
   244  124  125 1    
   245  124  244 1    
   246  124  245 1    
   247  125  126 1    
   248  126  246 1    
   249  126  247 1    
@<TRIPOS>SUBSTRUCTURE
     1 UNK         1 GROUP             0       ****    0 ROOT    
