@<TRIPOS>MOLECULE
3R540
247   249    1
SMALL
USER_CHARGES


@<TRIPOS>ATOM
      1 CA          4.9825  -15.4573  -48.5859 C.3       0 UNK        -0.1800 
      2 C           3.8929  -14.8720  -47.6997 C.2       0 UNK         0.5000 
      3 O           4.0917  -14.7263  -46.4938 O.2       0 UNK        -0.5000 
      4 N           2.7431  -14.5191  -48.2919 N.am      1 UNK        -0.5000 
      5 CA          1.5640  -13.9971  -47.5833 C.3       1 UNK         0.1400 
      6 C6          0.2736  -14.0592  -48.4367 C.3       23 UNK        -0.0398 
      7 S7         -0.1999  -15.7780  -48.8323 S.3       23 UNK        -0.2404 
      8 C8          0.4160  -15.9412  -50.5390 C.3       23 UNK        -0.0205 
      9 C9          1.0252  -17.3113  -50.7978 C.ar      23 UNK        -0.0193 
     10 C10         0.5300  -18.1258  -51.8204 C.ar      23 UNK        -0.1150 
     11 C11         1.1302  -19.3580  -52.0986 C.ar      23 UNK        -0.0193 
     12 C12         2.2199  -19.7810  -51.3338 C.ar      23 UNK        -0.1150 
     13 C13         2.7058  -18.9901  -50.2906 C.ar      23 UNK        -0.0193 
     14 C14         2.1111  -17.7529  -50.0350 C.ar      23 UNK        -0.1150 
     15 C15         3.8758  -19.4699  -49.4447 C.3       23 UNK        -0.0205 
     16 S16         3.5037  -21.0164  -48.5575 S.3       23 UNK        -0.2404 
     17 C17         2.2223  -20.4820  -47.3733 C.3       23 UNK        -0.0398 
     18 CA          1.1402  -21.5685  -47.1536 C.3       11 UNK         0.1400 
     19 N           0.5665  -21.5109  -45.8054 N.am      11 UNK        -0.5000 
     20 C          -0.1779  -22.4861  -45.2637 C.2       10 UNK         0.5000 
     21 O          -0.4547  -23.5358  -45.8443 O.2       10 UNK        -0.5000 
     22 CA         -0.7386  -22.2369  -43.8520 C.3       10 UNK         0.1400 
     23 CB          0.3511  -22.4331  -42.7878 C.3       10 UNK        -0.1800 
     24 N          -1.3369  -20.9107  -43.7054 N.am      10 UNK        -0.5000 
     25 C          -2.4001  -20.4759  -44.3960 C.2       9 UNK         0.5000 
     26 O          -3.0119  -21.1589  -45.2144 O.2       9 UNK        -0.5000 
     27 CA         -2.8223  -19.0144  -44.1767 C.3       9 UNK         0.1400 
     28 CB         -3.6618  -18.8669  -42.8989 C.3       9 UNK        -0.1800 
     29 N          -1.6780  -18.1081  -44.1206 N.am      9 UNK        -0.5000 
     30 C          -0.8211  -17.8932  -45.1291 C.2       8 UNK         0.5000 
     31 O          -0.8954  -18.4353  -46.2314 O.2       8 UNK        -0.5000 
     32 CA          0.3483  -16.9491  -44.8155 C.3       8 UNK         0.1400 
     33 CB         -0.1496  -15.4961  -44.7269 C.3       8 UNK        -0.1800 
     34 N           1.0090  -17.3225  -43.5636 N.am      8 UNK        -0.5000 
     35 C           1.6835  -18.4677  -43.3729 C.2       7 UNK         0.5000 
     36 O           1.8531  -19.3126  -44.2513 O.2       7 UNK        -0.5000 
     37 CA          2.2246  -18.7422  -41.9552 C.3       7 UNK         0.1400 
     38 CB          3.6283  -18.1395  -41.7949 C.3       7 UNK        -0.1800 
     39 N           1.3602  -18.2292  -40.8920 N.am      7 UNK        -0.5000 
     40 C           0.0838  -18.5863  -40.6901 C.2       6 UNK         0.5000 
     41 O          -0.4850  -19.4699  -41.3310 O.2       6 UNK        -0.5000 
     42 CA         -0.7099  -17.7843  -39.6367 C.3       6 UNK         0.1400 
     43 CB         -0.7548  -18.5500  -38.3063 C.3       6 UNK        -0.1800 
     44 N          -0.2112  -16.4228  -39.3911 N.am      6 UNK        -0.5000 
     45 C          -0.0529  -15.4722  -40.3230 C.2       5 UNK         0.5000 
     46 O          -0.2768  -15.6558  -41.5219 O.2       5 UNK        -0.5000 
     47 CA          0.4838  -14.1132  -39.8486 C.3       5 UNK         0.1400 
     48 CB          1.8683  -14.2476  -39.1868 C.3       5 UNK        -0.1800 
     49 N           0.5948  -13.2258  -41.0013 N.am      5 UNK        -0.5000 
     50 C           0.4356  -11.8998  -40.9958 C.2       4 UNK         0.5000 
     51 O           0.1412  -11.2506  -39.9899 O.2       4 UNK        -0.5000 
     52 CA          0.6731  -11.1943  -42.3500 C.3       4 UNK         0.1400 
     53 CB          0.6753   -9.6558  -42.2369 C.3       4 UNK        -0.1800 
     54 N           1.8903  -11.6529  -43.0342 N.am      4 UNK        -0.5000 
     55 C           3.1453  -11.6449  -42.5493 C.2       3 UNK         0.5000 
     56 O           3.4476  -11.2768  -41.4136 O.2       3 UNK        -0.5000 
     57 CA          4.2663  -12.1162  -43.4992 C.3       3 UNK         0.1400 
     58 CB          4.5254  -13.6186  -43.3033 C.3       3 UNK        -0.1800 
     59 N           3.9848  -11.8622  -44.9137 N.am      3 UNK        -0.5000 
     60 C           3.7846  -10.6528  -45.4627 C.2       2 UNK         0.5000 
     61 O           3.9400   -9.5955  -44.8506 O.2       2 UNK        -0.5000 
     62 CA          3.3086  -10.6038  -46.9321 C.3       2 UNK         0.1400 
     63 CB          4.4347  -10.0966  -47.8466 C.3       2 UNK        -0.1800 
     64 N           2.8241  -11.8844  -47.4544 N.am      2 UNK        -0.5000 
     65 C           1.7799  -12.5871  -46.9902 C.2       1 UNK         0.5000 
     66 O           1.0432  -12.1911  -46.0853 O.2       1 UNK        -0.5000 
     67 C           0.0486  -21.5527  -48.2467 C.2       11 UNK         0.5000 
     68 O           0.1331  -22.3283  -49.1999 O.2       11 UNK        -0.5000 
     69 N          -0.9909  -20.7261  -48.0555 N.am      12 UNK        -0.5000 
     70 CA         -2.1782  -20.6835  -48.9088 C.3       12 UNK         0.1400 
     71 CB         -3.0625  -19.4940  -48.5062 C.3       12 UNK        -0.1800 
     72 C          -2.9798  -21.9984  -48.8779 C.2       12 UNK         0.5000 
     73 O          -3.3796  -22.4810  -49.9348 O.2       12 UNK        -0.5000 
     74 N          -3.1774  -22.5691  -47.6803 N.am      13 UNK        -0.5000 
     75 CA         -3.8652  -23.8440  -47.4692 C.3       13 UNK         0.1400 
     76 CB         -4.1084  -24.0701  -45.9704 C.3       13 UNK        -0.1800 
     77 C          -3.1256  -25.0422  -48.0882 C.2       13 UNK         0.5000 
     78 O          -3.7688  -25.9097  -48.6804 O.2       13 UNK        -0.5000 
     79 N          -1.7908  -25.0580  -47.9712 N.am      14 UNK        -0.5000 
     80 CA         -0.9205  -26.0689  -48.5759 C.3       14 UNK         0.1400 
     81 CB          0.5190  -25.8614  -48.0818 C.3       14 UNK        -0.1800 
     82 C          -0.9705  -26.0641  -50.1162 C.2       14 UNK         0.5000 
     83 O          -0.8598  -27.1230  -50.7358 O.2       14 UNK        -0.5000 
     84 N          -1.1734  -24.8812  -50.7068 N.am      15 UNK        -0.5000 
     85 CA         -1.2756  -24.6464  -52.1441 C.3       15 UNK         0.1400 
     86 CB         -0.8484  -23.2015  -52.4204 C.3       15 UNK        -0.1800 
     87 C          -2.6779  -24.9684  -52.7022 C.2       15 UNK         0.5000 
     88 O          -3.3114  -24.1078  -53.3177 O.2       15 UNK        -0.5000 
     89 N          -3.1102  -26.2211  -52.4961 N.am      16 UNK        -0.5000 
     90 CA         -4.3589  -26.8275  -52.9726 C.3       16 UNK         0.1400 
     91 CB         -4.3694  -26.9136  -54.5143 C.3       16 UNK        -0.1800 
     92 C          -5.6239  -26.1581  -52.3951 C.2       16 UNK         0.5000 
     93 O          -6.5944  -25.9484  -53.1248 O.2       16 UNK        -0.5000 
     94 N          -5.5832  -25.8685  -51.0859 N.am      17 UNK        -0.5000 
     95 CA         -6.5713  -25.1501  -50.2750 C.3       17 UNK         0.1400 
     96 CB         -7.9964  -25.7197  -50.4299 C.3       17 UNK        -0.1800 
     97 C          -6.5417  -23.6321  -50.5205 C.2       17 UNK         0.5000 
     98 O          -6.2146  -23.1665  -51.6142 O.2       17 UNK        -0.5000 
     99 N          -6.9348  -22.8744  -49.4877 N.am      18 UNK        -0.5000 
    100 CA        -6.9314  -21.4079  -49.4758 C.3       18 UNK         0.1400 
    101 CB        -7.1595  -20.9195  -48.0377 C.3       18 UNK        -0.1800 
    102 C         -7.9395  -20.7656  -50.4526 C.2       18 UNK         0.5000 
    103 O         -7.8299  -19.5740  -50.7399 O.2       18 UNK        -0.5000 
    104 N         -8.8840  -21.5662  -50.9656 N.am      19 UNK        -0.5000 
    105 CA        -9.7780  -21.2075  -52.0650 C.3       19 UNK         0.1400 
    106 CB       -10.8988  -22.2543  -52.1572 C.3       19 UNK        -0.1800 
    107 C         -9.0431  -21.0821  -53.4162 C.2       19 UNK         0.5000 
    108 O         -9.4857  -20.3081  -54.2660 O.2       19 UNK        -0.5000 
    109 N         -7.9436  -21.8306  -53.5910 N.am      20 UNK        -0.5000 
    110 CA        -7.0655  -21.7506  -54.7552 C.3       20 UNK         0.1400 
    111 CB        -6.5609  -23.1535  -55.1304 C.3       20 UNK        -0.1800 
    112 C         -5.8954  -20.8031  -54.4587 C.2       20 UNK         0.5000 
    113 O         -5.7040  -19.8354  -55.1968 O.2       20 UNK        -0.5000 
    114 N         -5.1444  -21.0998  -53.3840 N.am      21 UNK        -0.5000 
    115 CA        -4.0021  -20.3435  -52.8525 C.3       21 UNK         0.1400 
    116 CB        -4.5076  -19.1262  -52.0535 C.3       21 UNK        -0.1800 
    117 C         -2.9614  -19.9494  -53.9239 C.2       21 UNK         0.5000 
    118 O         -2.5249  -18.7985  -53.9565 O.2       21 UNK        -0.5000 
    119 N         -2.6332  -20.9079  -54.8035 N.am      22 UNK        -0.5000 
    120 CA        -1.8069  -20.7678  -56.0208 C.3       22 UNK         0.1400 
    121 C         -2.2356  -19.6617  -57.0385 C.2       22 UNK         0.5000 
    122 N         -3.4616  -19.1529  -56.9942 N.am      22 UNK        -0.7600 
    123 O         -1.4657  -19.2902  -57.9207 O.2       22 UNK        -0.5000 
    124 C124       -0.2690  -20.8578  -55.7728 C.3       23 UNK        -0.0398 
    125 S125        0.5076  -19.4989  -54.8265 S.3       23 UNK        -0.2404 
    126 C126        0.5703  -20.2675  -53.1784 C.3       23 UNK        -0.0205 
    127 H127        5.2866  -16.4337  -48.2092 H         1 UNK         0.0600 
    128 H128        5.8553  -14.8046  -48.5867 H         1 UNK         0.0600 
    129 H129        4.6463  -15.5802  -49.6158 H         1 UNK         0.0600 
    130 H130        2.6411  -14.6401  -49.2885 H         1 UNK         0.3000 
    131 H131        1.4214  -14.6527  -46.7264 H         1 UNK         0.0600 
    132 H132        0.3758  -13.4701  -49.3494 H         1 UNK         0.0800 
    133 H133       -0.5643  -13.6214  -47.8907 H         1 UNK         0.0800 
    134 H134       -0.4074  -15.7430  -51.2268 H         1 UNK         0.0800 
    135 H135        1.1763  -15.1886  -50.7478 H         1 UNK         0.0800 
    136 H136       -0.3170  -17.8020  -52.4099 H         1 UNK         0.1150 
    137 H137        2.6780  -20.7404  -51.5296 H         1 UNK         0.1150 
    138 H138        2.4872  -17.1344  -49.2341 H         1 UNK         0.1150 
    139 H139        4.7359  -19.6345  -50.0949 H         1 UNK         0.0800 
    140 H140        4.1771  -18.7095  -48.7227 H         1 UNK         0.0800 
    141 H141        1.7770  -19.5303  -47.6689 H         1 UNK         0.0800 
    142 H142        2.7509  -20.2850  -46.4411 H         1 UNK         0.0800 
    143 H143        1.6320  -22.5419  -47.2197 H         1 UNK         0.0600 
    144 H144        0.7722  -20.6806  -45.2583 H         1 UNK         0.3000 
    145 H145       -1.5234  -22.9744  -43.6721 H         1 UNK         0.0600 
    146 H146       -0.0543  -22.3187  -41.7823 H         1 UNK         0.0600 
    147 H147        0.7846  -23.4318  -42.8530 H         1 UNK         0.0600 
    148 H148        1.1623  -21.7147  -42.9049 H         1 UNK         0.0600 
    149 H149       -0.9240  -20.2968  -43.0085 H         1 UNK         0.3000 
    150 H150       -3.4404  -18.7162  -45.0260 H         1 UNK         0.0600 
    151 H151       -4.5403  -19.5123  -42.9349 H         1 UNK         0.0600 
    152 H152       -4.0159  -17.8433  -42.7755 H         1 UNK         0.0600 
    153 H153       -3.0950  -19.1355  -42.0071 H         1 UNK         0.0600 
    154 H154       -1.5066  -17.6443  -43.2403 H         1 UNK         0.3000 
    155 H155        1.0772  -17.0206  -45.6258 H         1 UNK         0.0600 
    156 H156       -0.9269  -15.3733  -43.9733 H         1 UNK         0.0600 
    157 H157       -0.5842  -15.1772  -45.6743 H         1 UNK         0.0600 
    158 H158        0.6614  -14.8098  -44.4826 H         1 UNK         0.0600 
    159 H159        0.8361  -16.7158  -42.7690 H         1 UNK         0.3000 
    160 H160        2.2986  -19.8241  -41.8308 H         1 UNK         0.0600 
    161 H161        3.6124  -17.0520  -41.8811 H         1 UNK         0.0600 
    162 H162        4.3058  -18.5194  -42.5610 H         1 UNK         0.0600 
    163 H163        4.0595  -18.3941  -40.8266 H         1 UNK         0.0600 
    164 H164        1.7423  -17.4968  -40.3131 H         1 UNK         0.3000 
    165 H165       -1.7312  -17.6924  -40.0117 H         1 UNK         0.0600 
    166 H166       -1.4027  -18.0517  -37.5849 H         1 UNK         0.0600 
    167 H167       -1.1458  -19.5586  -38.4482 H         1 UNK         0.0600 
    168 H168        0.2370  -18.6418  -37.8618 H         1 UNK         0.0600 
    169 H169        0.0039  -16.1981  -38.4303 H         1 UNK         0.3000 
    170 H170       -0.2314  -13.7054  -39.1314 H         1 UNK         0.0600 
    171 H171        1.8258  -14.8632  -38.2880 H         1 UNK         0.0600 
    172 H172        2.5945  -14.6987  -39.8644 H         1 UNK         0.0600 
    173 H173        2.2565  -13.2734  -38.8884 H         1 UNK         0.0600 
    174 H174        0.7533  -13.7007  -41.8798 H         1 UNK         0.3000 
    175 H175       -0.1635  -11.4753  -42.9914 H         1 UNK         0.0600 
    176 H176        1.4706   -9.2996  -41.5813 H         1 UNK         0.0600 
    177 H177        0.8136   -9.1905  -43.2129 H         1 UNK         0.0600 
    178 H178       -0.2703   -9.2909  -41.8345 H         1 UNK         0.0600 
    179 H179        1.7564  -11.9608  -43.9903 H         1 UNK         0.3000 
    180 H180        5.1750  -11.5710  -43.2366 H         1 UNK         0.0600 
    181 H181        3.6568  -14.2168  -43.5830 H         1 UNK         0.0600 
    182 H182        4.7584  -13.8444  -42.2618 H         1 UNK         0.0600 
    183 H183        5.3696  -13.9552  -43.9054 H         1 UNK         0.0600 
    184 H184        3.8747  -12.6806  -45.4995 H         1 UNK         0.3000 
    185 H185        2.4811   -9.8931  -46.9778 H         1 UNK         0.0600 
    186 H186        4.8011   -9.1239  -47.5154 H         1 UNK         0.0600 
    187 H187        5.2836  -10.7814  -47.8555 H         1 UNK         0.0600 
    188 H188        4.0871   -9.9773  -48.8730 H         1 UNK         0.0600 
    189 H189        3.3792  -12.3042  -48.1857 H         1 UNK         0.3000 
    190 H190       -0.9766  -20.0844  -47.2673 H         1 UNK         0.3000 
    191 H191       -1.8434  -20.5233  -49.9361 H         1 UNK         0.0600 
    192 H192       -2.5327  -18.5498  -48.6366 H         1 UNK         0.0600 
    193 H193       -3.9649  -19.4496  -49.1157 H         1 UNK         0.0600 
    194 H194       -3.3759  -19.5597  -47.4642 H         1 UNK         0.0600 
    195 H195       -2.8701  -22.0802  -46.8428 H         1 UNK         0.3000 
    196 H196       -4.8380  -23.7741  -47.9539 H         1 UNK         0.0600 
    197 H197       -4.6180  -25.0182  -45.7943 H         1 UNK         0.0600 
    198 H198       -4.7350  -23.2829  -45.5509 H         1 UNK         0.0600 
    199 H199       -3.1737  -24.0893  -45.4093 H         1 UNK         0.0600 
    200 H200       -1.3381  -24.3383  -47.4148 H         1 UNK         0.3000 
    201 H201       -1.2605  -27.0496  -48.2372 H         1 UNK         0.0600 
    202 H202        0.5787  -25.9431  -46.9964 H         1 UNK         0.0600 
    203 H203        0.9034  -24.8808  -48.3646 H         1 UNK         0.0600 
    204 H204        1.1895  -26.6119  -48.5021 H         1 UNK         0.0600 
    205 H205       -1.2726  -24.0645  -50.1171 H         1 UNK         0.3000 
    206 H206       -0.5688  -25.3003  -52.6591 H         1 UNK         0.0600 
    207 H207        0.1650  -23.0213  -52.0618 H         1 UNK         0.0600 
    208 H208       -0.8647  -22.9908  -53.4886 H         1 UNK         0.0600 
    209 H209       -1.5094  -22.4885  -51.9277 H         1 UNK         0.0600 
    210 H210       -2.4998  -26.8294  -51.9605 H         1 UNK         0.3000 
    211 H211       -4.3615  -27.8496  -52.5915 H         1 UNK         0.0600 
    212 H212       -4.4303  -25.9271  -54.9751 H         1 UNK         0.0600 
    213 H213       -5.2248  -27.4907  -54.8672 H         1 UNK         0.0600 
    214 H214       -3.4714  -27.4048  -54.8889 H         1 UNK         0.0600 
    215 H215       -4.7204  -26.0639  -50.5909 H         1 UNK         0.3000 
    216 H216       -6.2714  -25.3189  -49.2408 H         1 UNK         0.0600 
    217 H217       -8.6597  -25.3185  -49.6630 H         1 UNK         0.0600 
    218 H218       -8.0028  -26.8048  -50.3269 H         1 UNK         0.0600 
    219 H219       -8.4376  -25.4693  -51.3951 H         1 UNK         0.0600 
    220 H220       -7.2341  -23.3233  -48.6342 H         1 UNK         0.3000 
    221 H221       -5.9367  -21.0833  -49.7855 H         1 UNK         0.0600 
    222 H222       -8.1282  -21.2399  -47.6528 H         1 UNK         0.0600 
    223 H223       -6.3866  -21.2963  -47.3667 H         1 UNK         0.0600 
    224 H224       -7.1281  -19.8304  -47.9848 H         1 UNK         0.0600 
    225 H225       -8.9101  -22.5256  -50.6552 H         1 UNK         0.3000 
    226 H226      -10.2295  -20.2391  -51.8393 H         1 UNK         0.0600 
    227 H227      -11.4680  -22.3062  -51.2289 H         1 UNK         0.0600 
    228 H228      -11.6007  -22.0050  -52.9541 H         1 UNK         0.0600 
    229 H229      -10.5042  -23.2495  -52.3666 H         1 UNK         0.0600 
    230 H230       -7.6045  -22.4009  -52.8233 H         1 UNK         0.3000 
    231 H231       -7.6136  -21.3571  -55.6139 H         1 UNK         0.0600 
    232 H232       -7.3906  -23.8262  -55.3474 H         1 UNK         0.0600 
    233 H233       -5.9708  -23.6032  -54.3315 H         1 UNK         0.0600 
    234 H234       -5.9295  -23.1156  -56.0187 H         1 UNK         0.0600 
    235 H235       -5.3860  -21.9355  -52.8551 H         1 UNK         0.3000 
    236 H236       -3.4893  -21.0093  -52.1586 H         1 UNK         0.0600 
    237 H237       -3.6819  -18.5976  -51.5754 H         1 UNK         0.0600 
    238 H238       -5.0298  -18.4146  -52.6938 H         1 UNK         0.0600 
    239 H239       -5.1933  -19.4285  -51.2655 H         1 UNK         0.0600 
    240 H240       -3.0661  -21.8133  -54.6776 H         1 UNK         0.3000 
    241 H241       -2.0457  -21.6776  -56.5725 H         1 UNK         0.0600 
    242 H242       -3.7266  -18.4520  -57.6674 H         1 UNK         0.3800 
    243 H243       -4.1271  -19.4338  -56.2802 H         1 UNK         0.3800 
    244 H244       -0.0394  -21.8037  -55.2840 H         1 UNK         0.0800 
    245 H245        0.2516  -20.9184  -56.7298 H         1 UNK         0.0800 
    246 H246       -0.4340  -20.5545  -52.8770 H         1 UNK         0.0800 
    247 H247        1.1573  -21.1842  -53.2467 H         1 UNK         0.0800 
@<TRIPOS>BOND
     1    1    2 1    
     2    1  127 1    
     3    1  128 1    
     4    1  129 1    
     5    2    3 2    
     6    2    4 am   BACKBONE|DICT|INTERRES
     7    4    5 1    
     8    4  130 1    
     9    5    6 1    
    10    5   65 1    
    11    5  131 1    
    12    6    7 1    
    13    6  132 1    
    14    6  133 1    
    15    7    8 1    
    16    8    9 1    
    17    8  134 1    
    18    8  135 1    
    19    9   10 ar   
    20    9   14 ar   
    21   10   11 ar   
    22   10  136 1    
    23   11   12 ar   
    24   11  126 1    
    25   12   13 ar   
    26   12  137 1    
    27   13   14 ar   
    28   13   15 1    
    29   14  138 1    
    30   15   16 1    
    31   15  139 1    
    32   15  140 1    
    33   16   17 1    
    34   17   18 1    
    35   17  141 1    
    36   17  142 1    
    37   18   19 1    
    38   18   67 1    
    39   18  143 1    
    40   19   20 am   BACKBONE|DICT|INTERRES
    41   19  144 1    
    42   20   21 2    
    43   20   22 1    
    44   22   23 1    
    45   22   24 1    
    46   22  145 1    
    47   23  146 1    
    48   23  147 1    
    49   23  148 1    
    50   24   25 am   BACKBONE|DICT|INTERRES
    51   24  149 1    
    52   25   26 2    
    53   25   27 1    
    54   27   28 1    
    55   27   29 1    
    56   27  150 1    
    57   28  151 1    
    58   28  152 1    
    59   28  153 1    
    60   29   30 am   BACKBONE|DICT|INTERRES
    61   29  154 1    
    62   30   31 2    
    63   30   32 1    
    64   32   33 1    
    65   32   34 1    
    66   32  155 1    
    67   33  156 1    
    68   33  157 1    
    69   33  158 1    
    70   34   35 am   BACKBONE|DICT|INTERRES
    71   34  159 1    
    72   35   36 2    
    73   35   37 1    
    74   37   38 1    
    75   37   39 1    
    76   37  160 1    
    77   38  161 1    
    78   38  162 1    
    79   38  163 1    
    80   39   40 am   BACKBONE|DICT|INTERRES
    81   39  164 1    
    82   40   41 2    
    83   40   42 1    
    84   42   43 1    
    85   42   44 1    
    86   42  165 1    
    87   43  166 1    
    88   43  167 1    
    89   43  168 1    
    90   44   45 am   BACKBONE|DICT|INTERRES
    91   44  169 1    
    92   45   46 2    
    93   45   47 1    
    94   47   48 1    
    95   47   49 1    
    96   47  170 1    
    97   48  171 1    
    98   48  172 1    
    99   48  173 1    
   100   49   50 am   BACKBONE|DICT|INTERRES
   101   49  174 1    
   102   50   51 2    
   103   50   52 1    
   104   52   53 1    
   105   52   54 1    
   106   52  175 1    
   107   53  176 1    
   108   53  177 1    
   109   53  178 1    
   110   54   55 am   BACKBONE|DICT|INTERRES
   111   54  179 1    
   112   55   56 2    
   113   55   57 1    
   114   57   58 1    
   115   57   59 1    
   116   57  180 1    
   117   58  181 1    
   118   58  182 1    
   119   58  183 1    
   120   59   60 am   BACKBONE|DICT|INTERRES
   121   59  184 1    
   122   60   61 2    
   123   60   62 1    
   124   62   63 1    
   125   62   64 1    
   126   62  185 1    
   127   63  186 1    
   128   63  187 1    
   129   63  188 1    
   130   64   65 am   BACKBONE|DICT|INTERRES
   131   64  189 1    
   132   65   66 2    
   133   67   68 2    
   134   67   69 am   BACKBONE|DICT|INTERRES
   135   69   70 1    
   136   69  190 1    
   137   70   71 1    
   138   70   72 1    
   139   70  191 1    
   140   71  192 1    
   141   71  193 1    
   142   71  194 1    
   143   72   73 2    
   144   72   74 am   BACKBONE|DICT|INTERRES
   145   74   75 1    
   146   74  195 1    
   147   75   76 1    
   148   75   77 1    
   149   75  196 1    
   150   76  197 1    
   151   76  198 1    
   152   76  199 1    
   153   77   78 2    
   154   77   79 am   BACKBONE|DICT|INTERRES
   155   79   80 1    
   156   79  200 1    
   157   80   81 1    
   158   80   82 1    
   159   80  201 1    
   160   81  202 1    
   161   81  203 1    
   162   81  204 1    
   163   82   83 2    
   164   82   84 am   BACKBONE|DICT|INTERRES
   165   84   85 1    
   166   84  205 1    
   167   85   86 1    
   168   85   87 1    
   169   85  206 1    
   170   86  207 1    
   171   86  208 1    
   172   86  209 1    
   173   87   88 2    
   174   87   89 am   BACKBONE|DICT|INTERRES
   175   89   90 1    
   176   89  210 1    
   177   90   91 1    
   178   90   92 1    
   179   90  211 1    
   180   91  212 1    
   181   91  213 1    
   182   91  214 1    
   183   92   93 2    
   184   92   94 am   BACKBONE|DICT|INTERRES
   185   94   95 1    
   186   94  215 1    
   187   95   96 1    
   188   95   97 1    
   189   95  216 1    
   190   96  217 1    
   191   96  218 1    
   192   96  219 1    
   193   97   98 2    
   194   97   99 am   BACKBONE|DICT|INTERRES
   195   99  100 1    
   196   99  220 1    
   197  100  101 1    
   198  100  102 1    
   199  100  221 1    
   200  101  222 1    
   201  101  223 1    
   202  101  224 1    
   203  102  103 2    
   204  102  104 am   BACKBONE|DICT|INTERRES
   205  104  105 1    
   206  104  225 1    
   207  105  106 1    
   208  105  107 1    
   209  105  226 1    
   210  106  227 1    
   211  106  228 1    
   212  106  229 1    
   213  107  108 2    
   214  107  109 am   BACKBONE|DICT|INTERRES
   215  109  110 1    
   216  109  230 1    
   217  110  111 1    
   218  110  112 1    
   219  110  231 1    
   220  111  232 1    
   221  111  233 1    
   222  111  234 1    
   223  112  113 2    
   224  112  114 am   BACKBONE|DICT|INTERRES
   225  114  115 1    
   226  114  235 1    
   227  115  116 1    
   228  115  117 1    
   229  115  236 1    
   230  116  237 1    
   231  116  238 1    
   232  116  239 1    
   233  117  118 2    
   234  117  119 am   BACKBONE|DICT|INTERRES
   235  119  120 1    
   236  119  240 1    
   237  120  121 1    
   238  120  124 1    
   239  120  241 1    
   240  121  122 am   BACKBONE|DICT|INTERRES
   241  121  123 2    
   242  122  242 1    
   243  122  243 1    
   244  124  125 1    
   245  124  244 1    
   246  124  245 1    
   247  125  126 1    
   248  126  246 1    
   249  126  247 1    
@<TRIPOS>SUBSTRUCTURE
     1 UNK         1 GROUP             0       ****    0 ROOT    
