@<TRIPOS>MOLECULE
3R540
247   249    1
SMALL
USER_CHARGES


@<TRIPOS>ATOM
      1 CA         -3.5082  -15.3770  -43.0109 C.3       0 UNK        -0.1800 
      2 C          -3.1394  -14.4077  -44.1256 C.2       0 UNK         0.5000 
      3 O          -3.9592  -13.5741  -44.5122 O.2       0 UNK        -0.5000 
      4 N          -1.9123  -14.5206  -44.6452 N.am      1 UNK        -0.5000 
      5 CA         -1.3533  -13.6547  -45.6895 C.3       1 UNK         0.1400 
      6 C6         -0.0984  -14.2855  -46.3416 C.3       23 UNK        -0.0398 
      7 S7         -0.4304  -15.9432  -47.0225 S.3       23 UNK        -0.2404 
      8 C8          0.2884  -15.8406  -48.6854 C.3       23 UNK        -0.0205 
      9 C9          0.2946  -17.2102  -49.3463 C.ar      23 UNK        -0.0193 
     10 C10        -0.8332  -17.6672  -50.0338 C.ar      23 UNK        -0.1150 
     11 C11        -0.8387  -18.9280  -50.6399 C.ar      23 UNK        -0.0193 
     12 C12         0.3037  -19.7323  -50.5487 C.ar      23 UNK        -0.1150 
     13 C13         1.4425  -19.2828  -49.8735 C.ar      23 UNK        -0.0193 
     14 C14         1.4286  -18.0227  -49.2688 C.ar      23 UNK        -0.1150 
     15 C15         2.7017  -20.1391  -49.8281 C.3       23 UNK        -0.0205 
     16 S16         2.4778  -21.7047  -48.9245 S.3       23 UNK        -0.2404 
     17 C17         2.1137  -21.1200  -47.2346 C.3       23 UNK        -0.0398 
     18 CA          0.8960  -21.8350  -46.6015 C.3       11 UNK         0.1400 
     19 N           0.9018  -21.7043  -45.1398 N.am      11 UNK        -0.5000 
     20 C           0.1066  -22.3774  -44.2957 C.2       10 UNK         0.5000 
     21 O          -0.7226  -23.2122  -44.6576 O.2       10 UNK        -0.5000 
     22 CA          0.2394  -22.0375  -42.7986 C.3       10 UNK         0.1400 
     23 CB          1.4592  -22.7372  -42.1801 C.3       10 UNK        -0.1800 
     24 N           0.3298  -20.5951  -42.5703 N.am      10 UNK        -0.5000 
     25 C          -0.6904  -19.7428  -42.7417 C.2       9 UNK         0.5000 
     26 O          -1.8421  -20.1031  -42.9826 O.2       9 UNK        -0.5000 
     27 CA         -0.3725  -18.2354  -42.6710 C.3       9 UNK         0.1400 
     28 CB         -0.5125  -17.7113  -41.2347 C.3       9 UNK        -0.1800 
     29 N           0.9536  -17.8896  -43.1878 N.am      9 UNK        -0.5000 
     30 C           1.3583  -18.0990  -44.4485 C.2       8 UNK         0.5000 
     31 O           0.6480  -18.5994  -45.3155 O.2       8 UNK        -0.5000 
     32 CA          2.8230  -17.7690  -44.7767 C.3       8 UNK         0.1400 
     33 CB          3.0317  -16.2610  -44.9797 C.3       8 UNK        -0.1800 
     34 N           3.7248  -18.2666  -43.7395 N.am      8 UNK        -0.5000 
     35 C           3.9650  -19.5669  -43.5174 C.2       7 UNK         0.5000 
     36 O           3.4795  -20.4756  -44.1906 O.2       7 UNK        -0.5000 
     37 CA          4.8606  -19.9075  -42.3133 C.3       7 UNK         0.1400 
     38 CB          6.3448  -19.7955  -42.6918 C.3       7 UNK        -0.1800 
     39 N           4.5871  -19.0530  -41.1571 N.am      7 UNK        -0.5000 
     40 C           3.4420  -19.0682  -40.4601 C.2       6 UNK         0.5000 
     41 O           2.5087  -19.8350  -40.6948 O.2       6 UNK        -0.5000 
     42 CA          3.3004  -18.0149  -39.3458 C.3       6 UNK         0.1400 
     43 CB          3.9209  -18.5254  -38.0368 C.3       6 UNK        -0.1800 
     44 N           3.8944  -16.7204  -39.6955 N.am      6 UNK        -0.5000 
     45 C           3.4777  -15.9456  -40.7051 C.2       5 UNK         0.5000 
     46 O           2.5697  -16.2591  -41.4783 O.2       5 UNK        -0.5000 
     47 CA          4.2367  -14.6277  -40.9244 C.3       5 UNK         0.1400 
     48 CB          5.3386  -14.8135  -41.9789 C.3       5 UNK        -0.1800 
     49 N           3.3260  -13.5767  -41.3713 N.am      5 UNK        -0.5000 
     50 C           2.4879  -12.9031  -40.5733 C.2       4 UNK         0.5000 
     51 O           2.4422  -13.0699  -39.3529 O.2       4 UNK        -0.5000 
     52 CA          1.5287  -11.8895  -41.2388 C.3       4 UNK         0.1400 
     53 CB          1.3484  -10.6117  -40.3933 C.3       4 UNK        -0.1800 
     54 N           1.8519  -11.5461  -42.6304 N.am      4 UNK        -0.5000 
     55 C           2.9452  -10.9183  -43.0955 C.2       3 UNK         0.5000 
     56 O           3.8901  -10.5679  -42.3885 O.2       3 UNK        -0.5000 
     57 CA          3.0062  -10.6483  -44.6143 C.3       3 UNK         0.1400 
     58 CB          3.8409  -11.7357  -45.3102 C.3       3 UNK        -0.1800 
     59 N           1.6894  -10.5877  -45.2523 N.am      3 UNK        -0.5000 
     60 C           0.7668   -9.6389  -45.0361 C.2       2 UNK         0.5000 
     61 O           0.9679   -8.6363  -44.3500 O.2       2 UNK        -0.5000 
     62 CA         -0.6250   -9.8569  -45.6693 C.3       2 UNK         0.1400 
     63 CB         -0.7745   -9.0043  -46.9388 C.3       2 UNK        -0.1800 
     64 N          -0.9442  -11.2541  -45.9959 N.am      2 UNK        -0.5000 
     65 C          -1.0038  -12.2653  -45.1172 C.2       1 UNK         0.5000 
     66 O          -0.7329  -12.1424  -43.9196 O.2       1 UNK        -0.5000 
     67 C          -0.4409  -21.3909  -47.2396 C.2       11 UNK         0.5000 
     68 O          -0.8748  -22.0035  -48.2157 O.2       11 UNK        -0.5000 
     69 N          -1.1039  -20.3888  -46.6407 N.am      12 UNK        -0.5000 
     70 CA         -2.3983  -19.8272  -47.0461 C.3       12 UNK         0.1400 
     71 CB         -2.8223  -18.7468  -46.0399 C.3       12 UNK        -0.1800 
     72 C          -3.5324  -20.8595  -47.2067 C.2       12 UNK         0.5000 
     73 O          -4.4615  -20.6168  -47.9773 O.2       12 UNK        -0.5000 
     74 N          -3.4157  -22.0148  -46.5333 N.am      13 UNK        -0.5000 
     75 CA         -4.2842  -23.1844  -46.6872 C.3       13 UNK         0.1400 
     76 CB         -3.8269  -24.2816  -45.7163 C.3       13 UNK        -0.1800 
     77 C          -4.3485  -23.7354  -48.1275 C.2       13 UNK         0.5000 
     78 O          -5.3466  -24.3617  -48.4832 O.2       13 UNK        -0.5000 
     79 N          -3.3322  -23.4465  -48.9549 N.am      14 UNK        -0.5000 
     80 CA         -3.3164  -23.7328  -50.3901 C.3       14 UNK         0.1400 
     81 CB         -1.9272  -23.4138  -50.9595 C.3       14 UNK        -0.1800 
     82 C          -4.4149  -22.9968  -51.1852 C.2       14 UNK         0.5000 
     83 O          -4.7926  -23.4742  -52.2523 O.2       14 UNK        -0.5000 
     84 N          -4.9438  -21.8803  -50.6603 N.am      15 UNK        -0.5000 
     85 CA         -6.0984  -21.1885  -51.2381 C.3       15 UNK         0.1400 
     86 CB         -6.1620  -19.7509  -50.7010 C.3       15 UNK        -0.1800 
     87 C          -7.4196  -21.9307  -50.9639 C.2       15 UNK         0.5000 
     88 O          -8.3135  -21.9036  -51.8095 O.2       15 UNK        -0.5000 
     89 N          -7.5152  -22.5913  -49.8014 N.am      16 UNK        -0.5000 
     90 CA         -8.6689  -23.3968  -49.4004 C.3       16 UNK         0.1400 
     91 CB         -8.7039  -23.5171  -47.8685 C.3       16 UNK        -0.1800 
     92 C          -8.6471  -24.7849  -50.0626 C.2       16 UNK         0.5000 
     93 O          -9.6851  -25.2533  -50.5309 O.2       16 UNK        -0.5000 
     94 N          -7.4602  -25.4062  -50.1087 N.am      17 UNK        -0.5000 
     95 CA         -7.2175  -26.7013  -50.7503 C.3       17 UNK         0.1400 
     96 CB         -5.8729  -27.2537  -50.2531 C.3       17 UNK        -0.1800 
     97 C          -7.2345  -26.6358  -52.2918 C.2       17 UNK         0.5000 
     98 O          -7.4613  -27.6643  -52.9300 O.2       17 UNK        -0.5000 
     99 N          -7.0030  -25.4321  -52.8351 N.am      18 UNK        -0.5000 
    100 CA        -6.8357  -25.0501  -54.2386 C.3       18 UNK         0.1400 
    101 CB        -7.9872  -25.5492  -55.1327 C.3       18 UNK        -0.1800 
    102 C         -5.4565  -25.4571  -54.7903 C.2       18 UNK         0.5000 
    103 O         -5.0191  -26.5980  -54.6247 O.2       18 UNK        -0.5000 
    104 N         -4.8033  -24.5034  -55.4579 N.am      19 UNK        -0.5000 
    105 CA        -3.4951  -24.6288  -56.0866 C.3       19 UNK         0.1400 
    106 CB        -2.3876  -24.4372  -55.0347 C.3       19 UNK        -0.1800 
    107 C         -3.4035  -23.5524  -57.1735 C.2       19 UNK         0.5000 
    108 O         -4.0312  -22.4990  -57.0346 O.2       19 UNK        -0.5000 
    109 N         -2.6055  -23.8054  -58.2178 N.am      20 UNK        -0.5000 
    110 CA        -2.4470  -22.9213  -59.3803 C.3       20 UNK         0.1400 
    111 CB        -1.5585  -23.6180  -60.4223 C.3       20 UNK        -0.1800 
    112 C         -1.8893  -21.5222  -59.0464 C.2       20 UNK         0.5000 
    113 O         -2.2015  -20.5600  -59.7487 O.2       20 UNK        -0.5000 
    114 N         -1.0904  -21.4345  -57.9755 N.am      21 UNK        -0.5000 
    115 CA        -0.5215  -20.1890  -57.4623 C.3       21 UNK         0.1400 
    116 CB         0.7439  -20.5270  -56.6575 C.3       21 UNK        -0.1800 
    117 C         -1.5017  -19.3792  -56.5895 C.2       21 UNK         0.5000 
    118 O         -1.2732  -18.1836  -56.3991 O.2       21 UNK        -0.5000 
    119 N         -2.5411  -20.0334  -56.0535 N.am      22 UNK        -0.5000 
    120 CA        -3.4588  -19.4690  -55.0475 C.3       22 UNK         0.1400 
    121 C         -4.9268  -19.3388  -55.5382 C.2       22 UNK         0.5000 
    122 N         -5.3680  -20.0817  -56.5444 N.am      22 UNK        -0.7600 
    123 O         -5.6802  -18.5322  -55.0007 O.2       22 UNK        -0.5000 
    124 C124       -3.3994  -20.2676  -53.7207 C.3       23 UNK        -0.0398 
    125 S125       -1.7412  -20.2213  -52.9587 S.3       23 UNK        -0.2404 
    126 C126       -2.0933  -19.4092  -51.3631 C.3       23 UNK        -0.0205 
    127 H127       -3.9713  -14.8403  -42.1829 H         1 UNK         0.0600 
    128 H128       -4.2170  -16.1191  -43.3779 H         1 UNK         0.0600 
    129 H129       -2.6337  -15.8996  -42.6244 H         1 UNK         0.0600 
    130 H130       -1.2818  -15.2193  -44.2826 H         1 UNK         0.3000 
    131 H131       -2.1136  -13.5219  -46.4624 H         1 UNK         0.0600 
    132 H132        0.7066  -14.3747  -45.6108 H         1 UNK         0.0800 
    133 H133        0.2809  -13.6450  -47.1397 H         1 UNK         0.0800 
    134 H134        1.3054  -15.4505  -48.6207 H         1 UNK         0.0800 
    135 H135       -0.2820  -15.1327  -49.2885 H         1 UNK         0.0800 
    136 H136       -1.7119  -17.0397  -50.0861 H         1 UNK         0.1150 
    137 H137        0.3110  -20.7123  -51.0045 H         1 UNK         0.1150 
    138 H138        2.3023  -17.6692  -48.7396 H         1 UNK         0.1150 
    139 H139        3.0060  -20.3674  -50.8504 H         1 UNK         0.0800 
    140 H140        3.5308  -19.5889  -49.3803 H         1 UNK         0.0800 
    141 H141        3.0082  -21.3188  -46.6439 H         1 UNK         0.0800 
    142 H142        1.9798  -20.0380  -47.2173 H         1 UNK         0.0800 
    143 H143        0.9984  -22.9032  -46.8052 H         1 UNK         0.0600 
    144 H144        1.5778  -21.0546  -44.7533 H         1 UNK         0.3000 
    145 H145       -0.6534  -22.4092  -42.2913 H         1 UNK         0.0600 
    146 H146        1.5174  -22.5501  -41.1077 H         1 UNK         0.0600 
    147 H147        1.4014  -23.8173  -42.3197 H         1 UNK         0.0600 
    148 H148        2.3929  -22.3975  -42.6281 H         1 UNK         0.0600 
    149 H149        1.2305  -20.2290  -42.2831 H         1 UNK         0.3000 
    150 H150       -1.1068  -17.7220  -43.2945 H         1 UNK         0.0600 
    151 H151       -1.5116  -17.9068  -40.8432 H         1 UNK         0.0600 
    152 H152       -0.3490  -16.6343  -41.1891 H         1 UNK         0.0600 
    153 H153        0.2028  -18.1871  -40.5639 H         1 UNK         0.0600 
    154 H154        1.5940  -17.4409  -42.5367 H         1 UNK         0.3000 
    155 H155        3.0783  -18.2691  -45.7135 H         1 UNK         0.0600 
    156 H156        4.0805  -16.0280  -45.1628 H         1 UNK         0.0600 
    157 H157        2.7010  -15.6801  -44.1184 H         1 UNK         0.0600 
    158 H158        2.4726  -15.9143  -45.8483 H         1 UNK         0.0600 
    159 H159        4.1147  -17.5850  -43.1069 H         1 UNK         0.3000 
    160 H160        4.6568  -20.9421  -42.0286 H         1 UNK         0.0600 
    161 H161        6.6177  -18.7747  -42.9628 H         1 UNK         0.0600 
    162 H162        6.5789  -20.4352  -43.5439 H         1 UNK         0.0600 
    163 H163        6.9863  -20.1071  -41.8673 H         1 UNK         0.0600 
    164 H164        5.3036  -18.3930  -40.8937 H         1 UNK         0.3000 
    165 H165        2.2335  -17.8565  -39.1762 H         1 UNK         0.0600 
    166 H166        4.9974  -18.6737  -38.1307 H         1 UNK         0.0600 
    167 H167        3.7478  -17.8257  -37.2190 H         1 UNK         0.0600 
    168 H168        3.4822  -19.4803  -37.7437 H         1 UNK         0.0600 
    169 H169        4.6522  -16.4000  -39.1098 H         1 UNK         0.3000 
    170 H170        4.7011  -14.3200  -39.9850 H         1 UNK         0.0600 
    171 H171        6.0494  -15.5823  -41.6730 H         1 UNK         0.0600 
    172 H172        4.9299  -15.1090  -42.9452 H         1 UNK         0.0600 
    173 H173        5.9019  -13.8914  -42.1239 H         1 UNK         0.0600 
    174 H174        3.2756  -13.4090  -42.3639 H         1 UNK         0.3000 
    175 H175        0.5600  -12.3895  -41.2804 H         1 UNK         0.0600 
    176 H176        0.6515   -9.9210  -40.8684 H         1 UNK         0.0600 
    177 H177        0.9473  -10.8460  -39.4066 H         1 UNK         0.0600 
    178 H178        2.2926  -10.0872  -40.2451 H         1 UNK         0.0600 
    179 H179        1.1138  -11.7690  -43.2913 H         1 UNK         0.3000 
    180 H180        3.5007   -9.6856  -44.7598 H         1 UNK         0.0600 
    181 H181        3.9611  -11.5217  -46.3724 H         1 UNK         0.0600 
    182 H182        4.8409  -11.7977  -44.8785 H         1 UNK         0.0600 
    183 H183        3.3816  -12.7207  -45.2155 H         1 UNK         0.0600 
    184 H184        1.4430  -11.3581  -45.8541 H         1 UNK         0.3000 
    185 H185       -1.3632   -9.5156  -44.9407 H         1 UNK         0.0600 
    186 H186       -1.7859   -9.0673  -47.3408 H         1 UNK         0.0600 
    187 H187       -0.5758   -7.9521  -46.7300 H         1 UNK         0.0600 
    188 H188       -0.0811   -9.3204  -47.7192 H         1 UNK         0.0600 
    189 H189       -1.1689  -11.4364  -46.9638 H         1 UNK         0.3000 
    190 H190       -0.6152  -19.8874  -45.9036 H         1 UNK         0.3000 
    191 H191       -2.2453  -19.3525  -48.0163 H         1 UNK         0.0600 
    192 H192       -3.6789  -18.1841  -46.4128 H         1 UNK         0.0600 
    193 H193       -2.0215  -18.0340  -45.8529 H         1 UNK         0.0600 
    194 H194       -3.1097  -19.1807  -45.0826 H         1 UNK         0.0600 
    195 H195       -2.6047  -22.1350  -45.9408 H         1 UNK         0.3000 
    196 H196       -5.2956  -22.8800  -46.4113 H         1 UNK         0.0600 
    197 H197       -4.4835  -25.1510  -45.7707 H         1 UNK         0.0600 
    198 H198       -3.8396  -23.9282  -44.6850 H         1 UNK         0.0600 
    199 H199       -2.8145  -24.6191  -45.9423 H         1 UNK         0.0600 
    200 H200       -2.5354  -22.9269  -48.5944 H         1 UNK         0.3000 
    201 H201       -3.4913  -24.8023  -50.5160 H         1 UNK         0.0600 
    202 H202       -1.1572  -24.0205  -50.4829 H         1 UNK         0.0600 
    203 H203       -1.6636  -22.3675  -50.8092 H         1 UNK         0.0600 
    204 H204       -1.8838  -23.6134  -52.0307 H         1 UNK         0.0600 
    205 H205       -4.6096  -21.5377  -49.7651 H         1 UNK         0.3000 
    206 H206       -5.9720  -21.1387  -52.3214 H         1 UNK         0.0600 
    207 H207       -6.3673  -19.7285  -49.6303 H         1 UNK         0.0600 
    208 H208       -5.2271  -19.2183  -50.8729 H         1 UNK         0.0600 
    209 H209       -6.9535  -19.1873  -51.1964 H         1 UNK         0.0600 
    210 H210       -6.7171  -22.6039  -49.1826 H         1 UNK         0.3000 
    211 H211       -9.5820  -22.8874  -49.7166 H         1 UNK         0.0600 
    212 H212       -7.8211  -24.0240  -47.4781 H         1 UNK         0.0600 
    213 H213       -9.5767  -24.0848  -47.5437 H         1 UNK         0.0600 
    214 H214       -8.7616  -22.5355  -47.3980 H         1 UNK         0.0600 
    215 H215       -6.6684  -24.9779  -49.6342 H         1 UNK         0.3000 
    216 H216       -8.0054  -27.3906  -50.4396 H         1 UNK         0.0600 
    217 H217       -5.6815  -28.2455  -50.6645 H         1 UNK         0.0600 
    218 H218       -5.8588  -27.3427  -49.1666 H         1 UNK         0.0600 
    219 H219       -5.0432  -26.6110  -50.5475 H         1 UNK         0.0600 
    220 H220       -6.7697  -24.6926  -52.1868 H         1 UNK         0.3000 
    221 H221       -6.8835  -23.9596  -54.2336 H         1 UNK         0.0600 
    222 H222       -7.9629  -26.6307  -55.2676 H         1 UNK         0.0600 
    223 H223       -8.9577  -25.2819  -54.7144 H         1 UNK         0.0600 
    224 H224       -7.9250  -25.1010  -56.1249 H         1 UNK         0.0600 
    225 H225       -5.2301  -23.5954  -55.5932 H         1 UNK         0.3000 
    226 H226       -3.4049  -25.6126  -56.5517 H         1 UNK         0.0600 
    227 H227       -1.3981  -24.5213  -55.4851 H         1 UNK         0.0600 
    228 H228       -2.4518  -23.4580  -54.5582 H         1 UNK         0.0600 
    229 H229       -2.4522  -25.1915  -54.2503 H         1 UNK         0.0600 
    230 H230       -2.1077  -24.6837  -58.2530 H         1 UNK         0.3000 
    231 H231       -3.4362  -22.7764  -59.8196 H         1 UNK         0.0600 
    232 H232       -1.4404  -22.9988  -61.3127 H         1 UNK         0.0600 
    233 H233       -1.9936  -24.5647  -60.7432 H         1 UNK         0.0600 
    234 H234       -0.5616  -23.8213  -60.0293 H         1 UNK         0.0600 
    235 H235       -0.8793  -22.2780  -57.4633 H         1 UNK         0.3000 
    236 H236       -0.2295  -19.5579  -58.3046 H         1 UNK         0.0600 
    237 H237        0.5158  -21.1543  -55.7945 H         1 UNK         0.0600 
    238 H238        1.4754  -21.0518  -57.2723 H         1 UNK         0.0600 
    239 H239        1.2242  -19.6212  -56.2851 H         1 UNK         0.0600 
    240 H240       -2.7062  -20.9953  -56.3171 H         1 UNK         0.3000 
    241 H241       -3.1530  -18.4479  -54.8119 H         1 UNK         0.0600 
    242 H242       -6.3188  -19.9708  -56.8577 H         1 UNK         0.3800 
    243 H243       -4.8012  -20.8342  -56.9259 H         1 UNK         0.3800 
    244 H244       -4.1220  -19.8692  -53.0091 H         1 UNK         0.0800 
    245 H245       -3.6768  -21.3100  -53.8868 H         1 UNK         0.0800 
    246 H246       -2.7611  -18.5655  -51.5432 H         1 UNK         0.0800 
    247 H247       -2.6304  -20.1014  -50.7141 H         1 UNK         0.0800 
@<TRIPOS>BOND
     1    1    2 1    
     2    1  127 1    
     3    1  128 1    
     4    1  129 1    
     5    2    3 2    
     6    2    4 am   BACKBONE|DICT|INTERRES
     7    4    5 1    
     8    4  130 1    
     9    5    6 1    
    10    5   65 1    
    11    5  131 1    
    12    6    7 1    
    13    6  132 1    
    14    6  133 1    
    15    7    8 1    
    16    8    9 1    
    17    8  134 1    
    18    8  135 1    
    19    9   10 ar   
    20    9   14 ar   
    21   10   11 ar   
    22   10  136 1    
    23   11   12 ar   
    24   11  126 1    
    25   12   13 ar   
    26   12  137 1    
    27   13   14 ar   
    28   13   15 1    
    29   14  138 1    
    30   15   16 1    
    31   15  139 1    
    32   15  140 1    
    33   16   17 1    
    34   17   18 1    
    35   17  141 1    
    36   17  142 1    
    37   18   19 1    
    38   18   67 1    
    39   18  143 1    
    40   19   20 am   BACKBONE|DICT|INTERRES
    41   19  144 1    
    42   20   21 2    
    43   20   22 1    
    44   22   23 1    
    45   22   24 1    
    46   22  145 1    
    47   23  146 1    
    48   23  147 1    
    49   23  148 1    
    50   24   25 am   BACKBONE|DICT|INTERRES
    51   24  149 1    
    52   25   26 2    
    53   25   27 1    
    54   27   28 1    
    55   27   29 1    
    56   27  150 1    
    57   28  151 1    
    58   28  152 1    
    59   28  153 1    
    60   29   30 am   BACKBONE|DICT|INTERRES
    61   29  154 1    
    62   30   31 2    
    63   30   32 1    
    64   32   33 1    
    65   32   34 1    
    66   32  155 1    
    67   33  156 1    
    68   33  157 1    
    69   33  158 1    
    70   34   35 am   BACKBONE|DICT|INTERRES
    71   34  159 1    
    72   35   36 2    
    73   35   37 1    
    74   37   38 1    
    75   37   39 1    
    76   37  160 1    
    77   38  161 1    
    78   38  162 1    
    79   38  163 1    
    80   39   40 am   BACKBONE|DICT|INTERRES
    81   39  164 1    
    82   40   41 2    
    83   40   42 1    
    84   42   43 1    
    85   42   44 1    
    86   42  165 1    
    87   43  166 1    
    88   43  167 1    
    89   43  168 1    
    90   44   45 am   BACKBONE|DICT|INTERRES
    91   44  169 1    
    92   45   46 2    
    93   45   47 1    
    94   47   48 1    
    95   47   49 1    
    96   47  170 1    
    97   48  171 1    
    98   48  172 1    
    99   48  173 1    
   100   49   50 am   BACKBONE|DICT|INTERRES
   101   49  174 1    
   102   50   51 2    
   103   50   52 1    
   104   52   53 1    
   105   52   54 1    
   106   52  175 1    
   107   53  176 1    
   108   53  177 1    
   109   53  178 1    
   110   54   55 am   BACKBONE|DICT|INTERRES
   111   54  179 1    
   112   55   56 2    
   113   55   57 1    
   114   57   58 1    
   115   57   59 1    
   116   57  180 1    
   117   58  181 1    
   118   58  182 1    
   119   58  183 1    
   120   59   60 am   BACKBONE|DICT|INTERRES
   121   59  184 1    
   122   60   61 2    
   123   60   62 1    
   124   62   63 1    
   125   62   64 1    
   126   62  185 1    
   127   63  186 1    
   128   63  187 1    
   129   63  188 1    
   130   64   65 am   BACKBONE|DICT|INTERRES
   131   64  189 1    
   132   65   66 2    
   133   67   68 2    
   134   67   69 am   BACKBONE|DICT|INTERRES
   135   69   70 1    
   136   69  190 1    
   137   70   71 1    
   138   70   72 1    
   139   70  191 1    
   140   71  192 1    
   141   71  193 1    
   142   71  194 1    
   143   72   73 2    
   144   72   74 am   BACKBONE|DICT|INTERRES
   145   74   75 1    
   146   74  195 1    
   147   75   76 1    
   148   75   77 1    
   149   75  196 1    
   150   76  197 1    
   151   76  198 1    
   152   76  199 1    
   153   77   78 2    
   154   77   79 am   BACKBONE|DICT|INTERRES
   155   79   80 1    
   156   79  200 1    
   157   80   81 1    
   158   80   82 1    
   159   80  201 1    
   160   81  202 1    
   161   81  203 1    
   162   81  204 1    
   163   82   83 2    
   164   82   84 am   BACKBONE|DICT|INTERRES
   165   84   85 1    
   166   84  205 1    
   167   85   86 1    
   168   85   87 1    
   169   85  206 1    
   170   86  207 1    
   171   86  208 1    
   172   86  209 1    
   173   87   88 2    
   174   87   89 am   BACKBONE|DICT|INTERRES
   175   89   90 1    
   176   89  210 1    
   177   90   91 1    
   178   90   92 1    
   179   90  211 1    
   180   91  212 1    
   181   91  213 1    
   182   91  214 1    
   183   92   93 2    
   184   92   94 am   BACKBONE|DICT|INTERRES
   185   94   95 1    
   186   94  215 1    
   187   95   96 1    
   188   95   97 1    
   189   95  216 1    
   190   96  217 1    
   191   96  218 1    
   192   96  219 1    
   193   97   98 2    
   194   97   99 am   BACKBONE|DICT|INTERRES
   195   99  100 1    
   196   99  220 1    
   197  100  101 1    
   198  100  102 1    
   199  100  221 1    
   200  101  222 1    
   201  101  223 1    
   202  101  224 1    
   203  102  103 2    
   204  102  104 am   BACKBONE|DICT|INTERRES
   205  104  105 1    
   206  104  225 1    
   207  105  106 1    
   208  105  107 1    
   209  105  226 1    
   210  106  227 1    
   211  106  228 1    
   212  106  229 1    
   213  107  108 2    
   214  107  109 am   BACKBONE|DICT|INTERRES
   215  109  110 1    
   216  109  230 1    
   217  110  111 1    
   218  110  112 1    
   219  110  231 1    
   220  111  232 1    
   221  111  233 1    
   222  111  234 1    
   223  112  113 2    
   224  112  114 am   BACKBONE|DICT|INTERRES
   225  114  115 1    
   226  114  235 1    
   227  115  116 1    
   228  115  117 1    
   229  115  236 1    
   230  116  237 1    
   231  116  238 1    
   232  116  239 1    
   233  117  118 2    
   234  117  119 am   BACKBONE|DICT|INTERRES
   235  119  120 1    
   236  119  240 1    
   237  120  121 1    
   238  120  124 1    
   239  120  241 1    
   240  121  122 am   BACKBONE|DICT|INTERRES
   241  121  123 2    
   242  122  242 1    
   243  122  243 1    
   244  124  125 1    
   245  124  244 1    
   246  124  245 1    
   247  125  126 1    
   248  126  246 1    
   249  126  247 1    
@<TRIPOS>SUBSTRUCTURE
     1 UNK         1 GROUP             0       ****    0 ROOT    
