@<TRIPOS>MOLECULE
3R540
247   249    1
SMALL
USER_CHARGES


@<TRIPOS>ATOM
      1 CA         -4.0263  -17.9150  -42.9948 C.3       0 UNK        -0.1800 
      2 C          -4.0129  -16.7156  -43.9294 C.2       0 UNK         0.5000 
      3 O          -4.9061  -16.5786  -44.7651 O.2       0 UNK        -0.5000 
      4 N          -3.0050  -15.8509  -43.7951 N.am      1 UNK        -0.5000 
      5 CA         -2.8391  -14.6220  -44.5707 C.3       1 UNK         0.1400 
      6 C6         -2.2951  -14.8672  -46.0078 C.3       23 UNK        -0.0398 
      7 S7         -0.6813  -15.7189  -46.1016 S.3       23 UNK        -0.2404 
      8 C8         -1.1847  -17.4673  -46.1203 C.3       23 UNK        -0.0205 
      9 C9         -0.5493  -18.2212  -47.2751 C.ar      23 UNK        -0.0193 
     10 C10        -1.1557  -18.2093  -48.5336 C.ar      23 UNK        -0.1150 
     11 C11        -0.5837  -18.9017  -49.6039 C.ar      23 UNK        -0.0193 
     12 C12         0.6141  -19.5949  -49.4097 C.ar      23 UNK        -0.1150 
     13 C13         1.2340  -19.6122  -48.1571 C.ar      23 UNK        -0.0193 
     14 C14         0.6407  -18.9301  -47.0892 C.ar      23 UNK        -0.1150 
     15 C15         2.5716  -20.3194  -47.9788 C.3       23 UNK        -0.0205 
     16 S16         2.4170  -22.1297  -47.8910 S.3       23 UNK        -0.2404 
     17 C17         1.6517  -22.3403  -46.2533 C.3       23 UNK        -0.0398 
     18 CA          0.4747  -23.3411  -46.2316 C.3       11 UNK         0.1400 
     19 N           0.1009  -23.6493  -44.8499 N.am      11 UNK        -0.5000 
     20 C          -0.7015  -24.6501  -44.4656 C.2       10 UNK         0.5000 
     21 O          -1.1923  -25.4724  -45.2370 O.2       10 UNK        -0.5000 
     22 CA         -1.0504  -24.6998  -42.9665 C.3       10 UNK         0.1400 
     23 CB          0.0566  -25.4104  -42.1739 C.3       10 UNK        -0.1800 
     24 N          -1.2721  -23.3641  -42.4055 N.am      10 UNK        -0.5000 
     25 C          -2.2934  -22.5676  -42.7512 C.2       9 UNK         0.5000 
     26 O          -3.1784  -22.9019  -43.5362 O.2       9 UNK        -0.5000 
     27 CA         -2.3113  -21.1463  -42.1651 C.3       9 UNK         0.1400 
     28 CB         -3.1179  -21.1037  -40.8596 C.3       9 UNK        -0.1800 
     29 N          -0.9775  -20.5896  -41.9339 N.am      9 UNK        -0.5000 
     30 C          -0.1082  -20.2722  -42.9020 C.2       8 UNK         0.5000 
     31 O          -0.3233  -20.4556  -44.1020 O.2       8 UNK        -0.5000 
     32 CA          1.2447  -19.6984  -42.4397 C.3       8 UNK         0.1400 
     33 CB          2.4030  -20.5943  -42.9057 C.3       8 UNK        -0.1800 
     34 N           1.5015  -18.3297  -42.8877 N.am      8 UNK        -0.5000 
     35 C           0.7286  -17.2554  -42.6874 C.2       7 UNK         0.5000 
     36 O          -0.3859  -17.2993  -42.1654 O.2       7 UNK        -0.5000 
     37 CA          1.2927  -15.8840  -43.1130 C.3       7 UNK         0.1400 
     38 CB          1.9869  -15.1866  -41.9294 C.3       7 UNK        -0.1800 
     39 N           2.1531  -15.8694  -44.3038 N.am      7 UNK        -0.5000 
     40 C           3.3740  -16.3894  -44.4914 C.2       6 UNK         0.5000 
     41 O           3.9448  -17.1111  -43.6735 O.2       6 UNK        -0.5000 
     42 CA          4.0815  -16.0517  -45.8216 C.3       6 UNK         0.1400 
     43 CB          4.0508  -17.2506  -46.7774 C.3       6 UNK        -0.1800 
     44 N           3.5227  -14.8851  -46.5126 N.am      6 UNK        -0.5000 
     45 C           3.6657  -13.6194  -46.0984 C.2       5 UNK         0.5000 
     46 O           4.3202  -13.3114  -45.0995 O.2       5 UNK        -0.5000 
     47 CA          2.9784  -12.5289  -46.9468 C.3       5 UNK         0.1400 
     48 CB          1.5719  -12.9432  -47.4220 C.3       5 UNK        -0.1800 
     49 N           2.8543  -11.3042  -46.1626 N.am      5 UNK        -0.5000 
     50 C           3.6445  -10.2272  -46.2605 C.2       4 UNK         0.5000 
     51 O           4.5222  -10.0977  -47.1154 O.2       4 UNK        -0.5000 
     52 CA          3.4189   -9.0944  -45.2359 C.3       4 UNK         0.1400 
     53 CB          2.6209   -7.9459  -45.8730 C.3       4 UNK        -0.1800 
     54 N           2.7146   -9.5433  -44.0338 N.am      4 UNK        -0.5000 
     55 C           3.2517  -10.2951  -43.0623 C.2       3 UNK         0.5000 
     56 O           4.4495  -10.5725  -42.9996 O.2       3 UNK        -0.5000 
     57 CA          2.2896  -10.8363  -41.9828 C.3       3 UNK         0.1400 
     58 CB          2.4557  -10.0529  -40.6714 C.3       3 UNK        -0.1800 
     59 N           0.8740  -10.8126  -42.3716 N.am      3 UNK        -0.5000 
     60 C           0.3282  -11.5365  -43.3581 C.2       2 UNK         0.5000 
     61 O           0.9670  -12.3083  -44.0752 O.2       2 UNK        -0.5000 
     62 CA         -1.1640  -11.2751  -43.6361 C.3       2 UNK         0.1400 
     63 CB         -1.3191  -10.0320  -44.5274 C.3       2 UNK        -0.1800 
     64 N          -1.8417  -12.3977  -44.2865 N.am      2 UNK        -0.5000 
     65 C          -2.0361  -13.6031  -43.7366 C.2       1 UNK         0.5000 
     66 O          -1.6543  -13.9029  -42.6012 O.2       1 UNK        -0.5000 
     67 C          -0.7446  -22.8456  -47.0395 C.2       11 UNK         0.5000 
     68 O          -0.9295  -23.2568  -48.1877 O.2       11 UNK        -0.5000 
     69 N          -1.5848  -22.0203  -46.3970 N.am      12 UNK        -0.5000 
     70 CA         -2.8440  -21.5337  -46.9524 C.3       12 UNK         0.1400 
     71 CB         -3.4358  -20.4525  -46.0351 C.3       12 UNK        -0.1800 
     72 C          -3.8576  -22.6683  -47.1846 C.2       12 UNK         0.5000 
     73 O          -4.4362  -22.7502  -48.2672 O.2       12 UNK        -0.5000 
     74 N          -4.0230  -23.5411  -46.1797 N.am      13 UNK        -0.5000 
     75 CA         -4.9005  -24.7134  -46.2133 C.3       13 UNK         0.1400 
     76 CB         -4.9737  -25.3367  -44.8114 C.3       13 UNK        -0.1800 
     77 C          -4.4689  -25.7663  -47.2499 C.2       13 UNK         0.5000 
     78 O          -5.3282  -26.3924  -47.8713 O.2       13 UNK        -0.5000 
     79 N          -3.1514  -25.9207  -47.4415 N.am      14 UNK        -0.5000 
     80 CA         -2.5533  -26.7637  -48.4783 C.3       14 UNK         0.1400 
     81 CB         -1.0595  -26.9543  -48.1713 C.3       14 UNK        -0.1800 
     82 C          -2.7390  -26.2071  -49.9048 C.2       14 UNK         0.5000 
     83 O          -2.5977  -26.9700  -50.8612 O.2       14 UNK        -0.5000 
     84 N          -3.0442  -24.9042  -50.0175 N.am      15 UNK        -0.5000 
     85 CA         -3.2171  -24.1244  -51.2444 C.3       15 UNK         0.1400 
     86 CB         -4.4888  -24.5570  -52.0025 C.3       15 UNK        -0.1800 
     87 C          -1.9486  -24.1571  -52.1154 C.2       15 UNK         0.5000 
     88 O          -1.9872  -24.5980  -53.2652 O.2       15 UNK        -0.5000 
     89 N          -0.8287  -23.7036  -51.5348 N.am      16 UNK        -0.5000 
     90 CA          0.5066  -23.7197  -52.1447 C.3       16 UNK         0.1400 
     91 CB          1.5352  -23.2821  -51.0968 C.3       16 UNK        -0.1800 
     92 C           0.6518  -22.8933  -53.4423 C.2       16 UNK         0.5000 
     93 O           1.6110  -23.1049  -54.1849 O.2       16 UNK        -0.5000 
     94 N          -0.3147  -22.0079  -53.7233 N.am      17 UNK        -0.5000 
     95 CA         -0.4791  -21.3109  -55.0021 C.3       17 UNK         0.1400 
     96 CB         -1.4283  -20.1187  -54.7943 C.3       17 UNK        -0.1800 
     97 C          -0.9898  -22.2168  -56.1482 C.2       17 UNK         0.5000 
     98 O          -1.0996  -21.7398  -57.2784 O.2       17 UNK        -0.5000 
     99 N          -1.3274  -23.4809  -55.8465 N.am      18 UNK        -0.5000 
    100 CA        -1.8990  -24.5321  -56.6992 C.3       18 UNK         0.1400 
    101 CB        -1.0672  -24.7827  -57.9718 C.3       18 UNK        -0.1800 
    102 C         -3.3854  -24.2946  -57.0147 C.2       18 UNK         0.5000 
    103 O         -4.1960  -25.2088  -56.8570 O.2       18 UNK        -0.5000 
    104 N         -3.7250  -23.0612  -57.4009 N.am      19 UNK        -0.5000 
    105 CA        -5.0851  -22.5347  -57.3899 C.3       19 UNK         0.1400 
    106 CB        -5.1342  -21.2872  -58.2857 C.3       19 UNK        -0.1800 
    107 C         -5.4937  -22.1723  -55.9507 C.2       19 UNK         0.5000 
    108 O         -4.6304  -21.8835  -55.1170 O.2       19 UNK        -0.5000 
    109 N         -6.8051  -22.1150  -55.6921 N.am      20 UNK        -0.5000 
    110 CA        -7.4005  -21.7130  -54.4114 C.3       20 UNK         0.1400 
    111 CB        -8.8268  -22.2860  -54.3292 C.3       20 UNK        -0.1800 
    112 C         -7.3580  -20.1821  -54.1826 C.2       20 UNK         0.5000 
    113 O         -8.3496  -19.5871  -53.7577 O.2       20 UNK        -0.5000 
    114 N         -6.2104  -19.5678  -54.4914 N.am      21 UNK        -0.5000 
    115 CA        -5.9446  -18.1367  -54.3592 C.3       21 UNK         0.1400 
    116 CB        -4.8313  -17.7545  -55.3475 C.3       21 UNK        -0.1800 
    117 C         -5.5491  -17.7397  -52.9255 C.2       21 UNK         0.5000 
    118 O         -5.6914  -16.5710  -52.5633 O.2       21 UNK        -0.5000 
    119 N         -5.0446  -18.7054  -52.1468 N.am      22 UNK        -0.5000 
    120 CA        -4.6332  -18.5312  -50.7486 C.3       22 UNK         0.1400 
    121 C         -5.8290  -18.2343  -49.8010 C.2       22 UNK         0.5000 
    122 N         -5.6581  -17.3422  -48.8346 N.am      22 UNK        -0.7600 
    123 O         -6.8930  -18.8399  -49.9054 O.2       22 UNK        -0.5000 
    124 C124       -3.8328  -19.7499  -50.2239 C.3       23 UNK        -0.0398 
    125 S125       -2.4005  -20.2310  -51.2532 S.3       23 UNK        -0.2404 
    126 C126       -1.2280  -18.8623  -50.9815 C.3       23 UNK        -0.0205 
    127 H127       -3.0504  -18.0759  -42.5358 H         1 UNK         0.0600 
    128 H128       -4.2986  -18.8140  -43.5466 H         1 UNK         0.0600 
    129 H129       -4.7593  -17.7665  -42.2022 H         1 UNK         0.0600 
    130 H130       -2.3107  -15.9759  -43.0666 H         1 UNK         0.3000 
    131 H131       -3.8285  -14.1712  -44.6743 H         1 UNK         0.0600 
    132 H132       -3.0281  -15.4340  -46.5825 H         1 UNK         0.0800 
    133 H133       -2.1998  -13.9230  -46.5448 H         1 UNK         0.0800 
    134 H134       -0.9137  -17.9285  -45.1698 H         1 UNK         0.0800 
    135 H135       -2.2684  -17.5481  -46.1966 H         1 UNK         0.0800 
    136 H136       -2.0688  -17.6508  -48.6800 H         1 UNK         0.1150 
    137 H137        1.0756  -20.1053  -50.2415 H         1 UNK         0.1150 
    138 H138        1.1113  -18.9329  -46.1158 H         1 UNK         0.1150 
    139 H139        3.2253  -20.0630  -48.8136 H         1 UNK         0.0800 
    140 H140        3.0772  -19.9690  -47.0789 H         1 UNK         0.0800 
    141 H141        1.3314  -21.3739  -45.8678 H         1 UNK         0.0800 
    142 H142        2.4386  -22.6833  -45.5802 H         1 UNK         0.0800 
    143 H143        0.8138  -24.2719  -46.6916 H         1 UNK         0.0600 
    144 H144        0.4126  -22.9960  -44.1477 H         1 UNK         0.3000 
    145 H145       -1.9727  -25.2745  -42.8570 H         1 UNK         0.0600 
    146 H146       -0.2158  -25.5142  -41.1234 H         1 UNK         0.0600 
    147 H147        0.2316  -26.4141  -42.5637 H         1 UNK         0.0600 
    148 H148        1.0022  -24.8692  -42.2239 H         1 UNK         0.0600 
    149 H149       -0.5916  -23.0215  -41.7436 H         1 UNK         0.3000 
    150 H150       -2.8121  -20.5117  -42.8961 H         1 UNK         0.0600 
    151 H151       -2.6497  -21.7011  -40.0763 H         1 UNK         0.0600 
    152 H152       -4.1262  -21.4917  -41.0111 H         1 UNK         0.0600 
    153 H153       -3.2169  -20.0824  -40.4913 H         1 UNK         0.0600 
    154 H154       -0.7306  -20.4008  -40.9732 H         1 UNK         0.3000 
    155 H155        1.2558  -19.6827  -41.3482 H         1 UNK         0.0600 
    156 H156        2.5376  -20.5456  -43.9862 H         1 UNK         0.0600 
    157 H157        2.2318  -21.6377  -42.6376 H         1 UNK         0.0600 
    158 H158        3.3425  -20.2910  -42.4432 H         1 UNK         0.0600 
    159 H159        2.4192  -18.1519  -43.2842 H         1 UNK         0.3000 
    160 H160        0.4340  -15.2718  -43.3821 H         1 UNK         0.0600 
    161 H161        2.8442  -15.7546  -41.5672 H         1 UNK         0.0600 
    162 H162        1.2976  -15.0621  -41.0934 H         1 UNK         0.0600 
    163 H163        2.3364  -14.1947  -42.2137 H         1 UNK         0.0600 
    164 H164        1.7729  -15.3362  -45.0733 H         1 UNK         0.3000 
    165 H165        5.1258  -15.8401  -45.5821 H         1 UNK         0.0600 
    166 H166        4.6629  -17.0667  -47.6605 H         1 UNK         0.0600 
    167 H167        4.4409  -18.1472  -46.2944 H         1 UNK         0.0600 
    168 H168        3.0366  -17.4625  -47.1129 H         1 UNK         0.0600 
    169 H169        2.9796  -15.0704  -47.3435 H         1 UNK         0.3000 
    170 H170        3.6013  -12.3570  -47.8266 H         1 UNK         0.0600 
    171 H171        1.6079  -13.7950  -48.1015 H         1 UNK         0.0600 
    172 H172        0.9271  -13.2125  -46.5854 H         1 UNK         0.0600 
    173 H173        1.0869  -12.1294  -47.9613 H         1 UNK         0.0600 
    174 H174        2.2200  -11.3723  -45.3744 H         1 UNK         0.3000 
    175 H175        4.3990   -8.7116  -44.9439 H         1 UNK         0.0600 
    176 H176        1.6251   -8.2691  -46.1792 H         1 UNK         0.0600 
    177 H177        2.5062   -7.1126  -45.1796 H         1 UNK         0.0600 
    178 H178        3.1283   -7.5621  -46.7591 H         1 UNK         0.0600 
    179 H179        1.7274   -9.3422  -43.9870 H         1 UNK         0.3000 
    180 H180        2.5688  -11.8745  -41.7965 H         1 UNK         0.0600 
    181 H181        2.1723   -9.0063  -40.7897 H         1 UNK         0.0600 
    182 H182        3.4916  -10.0757  -40.3301 H         1 UNK         0.0600 
    183 H183        1.8448  -10.4800  -39.8760 H         1 UNK         0.0600 
    184 H184        0.2822  -10.1871  -41.8435 H         1 UNK         0.3000 
    185 H185       -1.6645  -11.0895  -42.6833 H         1 UNK         0.0600 
    186 H186       -0.8735   -9.1523  -44.0613 H         1 UNK         0.0600 
    187 H187       -0.8368  -10.1696  -45.4964 H         1 UNK         0.0600 
    188 H188       -2.3698   -9.8019  -44.7054 H         1 UNK         0.0600 
    189 H189       -2.1729  -12.2260  -45.2237 H         1 UNK         0.3000 
    190 H190       -1.3293  -21.6846  -45.4756 H         1 UNK         0.3000 
    191 H191       -2.6010  -21.0846  -47.9148 H         1 UNK         0.0600 
    192 H192       -2.6709  -19.7566  -45.6989 H         1 UNK         0.0600 
    193 H193       -4.2025  -19.8782  -46.5563 H         1 UNK         0.0600 
    194 H194       -3.8978  -20.8790  -45.1449 H         1 UNK         0.0600 
    195 H195       -3.5449  -23.3650  -45.2989 H         1 UNK         0.3000 
    196 H196       -5.9004  -24.3712  -46.4873 H         1 UNK         0.0600 
    197 H197       -5.6338  -26.2049  -44.8022 H         1 UNK         0.0600 
    198 H198       -5.3630  -24.6247  -44.0835 H         1 UNK         0.0600 
    199 H199       -3.9925  -25.6648  -44.4666 H         1 UNK         0.0600 
    200 H200       -2.5074  -25.4252  -46.8342 H         1 UNK         0.3000 
    201 H201       -3.0358  -27.7426  -48.4430 H         1 UNK         0.0600 
    202 H202       -0.5844  -27.5953  -48.9149 H         1 UNK         0.0600 
    203 H203       -0.9135  -27.4242  -47.1987 H         1 UNK         0.0600 
    204 H204       -0.5256  -26.0036  -48.1686 H         1 UNK         0.0600 
    205 H205       -3.1309  -24.3721  -49.1606 H         1 UNK         0.3000 
    206 H206       -3.3588  -23.0890  -50.9332 H         1 UNK         0.0600 
    207 H207       -5.3702  -24.4789  -51.3660 H         1 UNK         0.0600 
    208 H208       -4.6574  -23.9200  -52.8722 H         1 UNK         0.0600 
    209 H209       -4.4218  -25.5851  -52.3592 H         1 UNK         0.0600 
    210 H210       -0.8787  -23.3856  -50.5740 H         1 UNK         0.3000 
    211 H211        0.7234  -24.7560  -52.4113 H         1 UNK         0.0600 
    212 H212        1.3395  -22.2691  -50.7505 H         1 UNK         0.0600 
    213 H213        2.5483  -23.3038  -51.5002 H         1 UNK         0.0600 
    214 H214        1.5165  -23.9423  -50.2294 H         1 UNK         0.0600 
    215 H215       -1.0574  -21.8883  -53.0493 H         1 UNK         0.3000 
    216 H216        0.4930  -20.9216  -55.3107 H         1 UNK         0.0600 
    217 H217       -1.5788  -19.5652  -55.7220 H         1 UNK         0.0600 
    218 H218       -1.0258  -19.4164  -54.0653 H         1 UNK         0.0600 
    219 H219       -2.4087  -20.4423  -54.4436 H         1 UNK         0.0600 
    220 H220       -1.2998  -23.7401  -54.8643 H         1 UNK         0.3000 
    221 H221       -1.8501  -25.4419  -56.0988 H         1 UNK         0.0600 
    222 H222       -1.1164  -23.9463  -58.6690 H         1 UNK         0.0600 
    223 H223       -0.0191  -24.9584  -57.7295 H         1 UNK         0.0600 
    224 H224       -1.4313  -25.6639  -58.5012 H         1 UNK         0.0600 
    225 H225       -2.9755  -22.3807  -57.4663 H         1 UNK         0.3000 
    226 H226       -5.7725  -23.2872  -57.7818 H         1 UNK         0.0600 
    227 H227       -4.8424  -21.5256  -59.3087 H         1 UNK         0.0600 
    228 H228       -6.1411  -20.8698  -58.3245 H         1 UNK         0.0600 
    229 H229       -4.4678  -20.5037  -57.9216 H         1 UNK         0.0600 
    230 H230       -7.4564  -22.3179  -56.4369 H         1 UNK         0.3000 
    231 H231       -6.8198  -22.1654  -53.6045 H         1 UNK         0.0600 
    232 H232       -9.4746  -21.8635  -55.0981 H         1 UNK         0.0600 
    233 H233       -9.2814  -22.0727  -53.3608 H         1 UNK         0.0600 
    234 H234       -8.8239  -23.3695  -54.4500 H         1 UNK         0.0600 
    235 H235       -5.4434  -20.1527  -54.8085 H         1 UNK         0.3000 
    236 H236       -6.8460  -17.5801  -54.6244 H         1 UNK         0.0600 
    237 H237       -5.1168  -17.9888  -56.3733 H         1 UNK         0.0600 
    238 H238       -4.6207  -16.6851  -55.3049 H         1 UNK         0.0600 
    239 H239       -3.9016  -18.2815  -55.1296 H         1 UNK         0.0600 
    240 H240       -4.9670  -19.6377  -52.5228 H         1 UNK         0.3000 
    241 H241       -3.9753  -17.6613  -50.7225 H         1 UNK         0.0600 
    242 H242       -6.4212  -17.1586  -48.2020 H         1 UNK         0.3800 
    243 H243       -4.8014  -16.8228  -48.7332 H         1 UNK         0.3800 
    244 H244       -3.4851  -19.5485  -49.2129 H         1 UNK         0.0800 
    245 H245       -4.4840  -20.6227  -50.1471 H         1 UNK         0.0800 
    246 H246       -0.4489  -18.9242  -51.7423 H         1 UNK         0.0800 
    247 H247       -1.7211  -17.9041  -51.1453 H         1 UNK         0.0800 
@<TRIPOS>BOND
     1    1    2 1    
     2    1  127 1    
     3    1  128 1    
     4    1  129 1    
     5    2    3 2    
     6    2    4 am   BACKBONE|DICT|INTERRES
     7    4    5 1    
     8    4  130 1    
     9    5    6 1    
    10    5   65 1    
    11    5  131 1    
    12    6    7 1    
    13    6  132 1    
    14    6  133 1    
    15    7    8 1    
    16    8    9 1    
    17    8  134 1    
    18    8  135 1    
    19    9   10 ar   
    20    9   14 ar   
    21   10   11 ar   
    22   10  136 1    
    23   11   12 ar   
    24   11  126 1    
    25   12   13 ar   
    26   12  137 1    
    27   13   14 ar   
    28   13   15 1    
    29   14  138 1    
    30   15   16 1    
    31   15  139 1    
    32   15  140 1    
    33   16   17 1    
    34   17   18 1    
    35   17  141 1    
    36   17  142 1    
    37   18   19 1    
    38   18   67 1    
    39   18  143 1    
    40   19   20 am   BACKBONE|DICT|INTERRES
    41   19  144 1    
    42   20   21 2    
    43   20   22 1    
    44   22   23 1    
    45   22   24 1    
    46   22  145 1    
    47   23  146 1    
    48   23  147 1    
    49   23  148 1    
    50   24   25 am   BACKBONE|DICT|INTERRES
    51   24  149 1    
    52   25   26 2    
    53   25   27 1    
    54   27   28 1    
    55   27   29 1    
    56   27  150 1    
    57   28  151 1    
    58   28  152 1    
    59   28  153 1    
    60   29   30 am   BACKBONE|DICT|INTERRES
    61   29  154 1    
    62   30   31 2    
    63   30   32 1    
    64   32   33 1    
    65   32   34 1    
    66   32  155 1    
    67   33  156 1    
    68   33  157 1    
    69   33  158 1    
    70   34   35 am   BACKBONE|DICT|INTERRES
    71   34  159 1    
    72   35   36 2    
    73   35   37 1    
    74   37   38 1    
    75   37   39 1    
    76   37  160 1    
    77   38  161 1    
    78   38  162 1    
    79   38  163 1    
    80   39   40 am   BACKBONE|DICT|INTERRES
    81   39  164 1    
    82   40   41 2    
    83   40   42 1    
    84   42   43 1    
    85   42   44 1    
    86   42  165 1    
    87   43  166 1    
    88   43  167 1    
    89   43  168 1    
    90   44   45 am   BACKBONE|DICT|INTERRES
    91   44  169 1    
    92   45   46 2    
    93   45   47 1    
    94   47   48 1    
    95   47   49 1    
    96   47  170 1    
    97   48  171 1    
    98   48  172 1    
    99   48  173 1    
   100   49   50 am   BACKBONE|DICT|INTERRES
   101   49  174 1    
   102   50   51 2    
   103   50   52 1    
   104   52   53 1    
   105   52   54 1    
   106   52  175 1    
   107   53  176 1    
   108   53  177 1    
   109   53  178 1    
   110   54   55 am   BACKBONE|DICT|INTERRES
   111   54  179 1    
   112   55   56 2    
   113   55   57 1    
   114   57   58 1    
   115   57   59 1    
   116   57  180 1    
   117   58  181 1    
   118   58  182 1    
   119   58  183 1    
   120   59   60 am   BACKBONE|DICT|INTERRES
   121   59  184 1    
   122   60   61 2    
   123   60   62 1    
   124   62   63 1    
   125   62   64 1    
   126   62  185 1    
   127   63  186 1    
   128   63  187 1    
   129   63  188 1    
   130   64   65 am   BACKBONE|DICT|INTERRES
   131   64  189 1    
   132   65   66 2    
   133   67   68 2    
   134   67   69 am   BACKBONE|DICT|INTERRES
   135   69   70 1    
   136   69  190 1    
   137   70   71 1    
   138   70   72 1    
   139   70  191 1    
   140   71  192 1    
   141   71  193 1    
   142   71  194 1    
   143   72   73 2    
   144   72   74 am   BACKBONE|DICT|INTERRES
   145   74   75 1    
   146   74  195 1    
   147   75   76 1    
   148   75   77 1    
   149   75  196 1    
   150   76  197 1    
   151   76  198 1    
   152   76  199 1    
   153   77   78 2    
   154   77   79 am   BACKBONE|DICT|INTERRES
   155   79   80 1    
   156   79  200 1    
   157   80   81 1    
   158   80   82 1    
   159   80  201 1    
   160   81  202 1    
   161   81  203 1    
   162   81  204 1    
   163   82   83 2    
   164   82   84 am   BACKBONE|DICT|INTERRES
   165   84   85 1    
   166   84  205 1    
   167   85   86 1    
   168   85   87 1    
   169   85  206 1    
   170   86  207 1    
   171   86  208 1    
   172   86  209 1    
   173   87   88 2    
   174   87   89 am   BACKBONE|DICT|INTERRES
   175   89   90 1    
   176   89  210 1    
   177   90   91 1    
   178   90   92 1    
   179   90  211 1    
   180   91  212 1    
   181   91  213 1    
   182   91  214 1    
   183   92   93 2    
   184   92   94 am   BACKBONE|DICT|INTERRES
   185   94   95 1    
   186   94  215 1    
   187   95   96 1    
   188   95   97 1    
   189   95  216 1    
   190   96  217 1    
   191   96  218 1    
   192   96  219 1    
   193   97   98 2    
   194   97   99 am   BACKBONE|DICT|INTERRES
   195   99  100 1    
   196   99  220 1    
   197  100  101 1    
   198  100  102 1    
   199  100  221 1    
   200  101  222 1    
   201  101  223 1    
   202  101  224 1    
   203  102  103 2    
   204  102  104 am   BACKBONE|DICT|INTERRES
   205  104  105 1    
   206  104  225 1    
   207  105  106 1    
   208  105  107 1    
   209  105  226 1    
   210  106  227 1    
   211  106  228 1    
   212  106  229 1    
   213  107  108 2    
   214  107  109 am   BACKBONE|DICT|INTERRES
   215  109  110 1    
   216  109  230 1    
   217  110  111 1    
   218  110  112 1    
   219  110  231 1    
   220  111  232 1    
   221  111  233 1    
   222  111  234 1    
   223  112  113 2    
   224  112  114 am   BACKBONE|DICT|INTERRES
   225  114  115 1    
   226  114  235 1    
   227  115  116 1    
   228  115  117 1    
   229  115  236 1    
   230  116  237 1    
   231  116  238 1    
   232  116  239 1    
   233  117  118 2    
   234  117  119 am   BACKBONE|DICT|INTERRES
   235  119  120 1    
   236  119  240 1    
   237  120  121 1    
   238  120  124 1    
   239  120  241 1    
   240  121  122 am   BACKBONE|DICT|INTERRES
   241  121  123 2    
   242  122  242 1    
   243  122  243 1    
   244  124  125 1    
   245  124  244 1    
   246  124  245 1    
   247  125  126 1    
   248  126  246 1    
   249  126  247 1    
@<TRIPOS>SUBSTRUCTURE
     1 UNK         1 GROUP             0       ****    0 ROOT    
