@<TRIPOS>MOLECULE
3R540
247   249    1
SMALL
USER_CHARGES


@<TRIPOS>ATOM
      1 CA         -2.9949  -13.8468  -51.4576 C.3       0 UNK        -0.1800 
      2 C          -3.1297  -14.0189  -49.9517 C.2       0 UNK         0.5000 
      3 O          -2.3790  -14.7916  -49.3554 O.2       0 UNK        -0.5000 
      4 N          -4.0805  -13.3042  -49.3359 N.am      1 UNK        -0.5000 
      5 CA         -4.4060  -13.3692  -47.9059 C.3       1 UNK         0.1400 
      6 C6         -5.8671  -12.9274  -47.6043 C.3       23 UNK        -0.0398 
      7 S7         -7.1373  -13.7263  -48.6496 S.3       23 UNK        -0.2404 
      8 C8         -7.5096  -15.2551  -47.7254 C.3       23 UNK        -0.0205 
      9 C9         -6.3291  -16.2155  -47.7082 C.ar      23 UNK        -0.0193 
     10 C10        -5.7552  -16.6422  -48.9089 C.ar      23 UNK        -0.1150 
     11 C11        -4.6242  -17.4597  -48.9047 C.ar      23 UNK        -0.0193 
     12 C12        -4.0787  -17.8718  -47.6860 C.ar      23 UNK        -0.1150 
     13 C13        -4.6682  -17.4898  -46.4753 C.ar      23 UNK        -0.0193 
     14 C14        -5.7908  -16.6559  -46.4954 C.ar      23 UNK        -0.1150 
     15 C15        -4.1021  -17.9621  -45.1422 C.3       23 UNK        -0.0205 
     16 S16        -4.9295  -19.4904  -44.5878 S.3       23 UNK        -0.2404 
     17 C17        -3.5842  -20.7323  -44.5201 C.3       23 UNK        -0.0398 
     18 CA         -2.7777  -20.9342  -45.8347 C.3       11 UNK         0.1400 
     19 N          -1.4172  -21.4043  -45.5791 N.am      11 UNK        -0.5000 
     20 C          -1.0470  -22.5914  -45.0825 C.2       10 UNK         0.5000 
     21 O          -1.8282  -23.5039  -44.8115 O.2       10 UNK        -0.5000 
     22 CA          0.4571  -22.7575  -44.7952 C.3       10 UNK         0.1400 
     23 CB          1.2671  -22.8963  -46.0922 C.3       10 UNK        -0.1800 
     24 N           0.9903  -21.6362  -44.0217 N.am      10 UNK        -0.5000 
     25 C           0.7067  -21.3991  -42.7333 C.2       9 UNK         0.5000 
     26 O           0.0083  -22.1363  -42.0366 O.2       9 UNK        -0.5000 
     27 CA          1.2922  -20.1132  -42.1230 C.3       9 UNK         0.1400 
     28 CB          2.7746  -20.2990  -41.7644 C.3       9 UNK        -0.1800 
     29 N           1.1480  -18.9582  -43.0071 N.am      9 UNK        -0.5000 
     30 C          -0.0195  -18.3845  -43.3318 C.2       8 UNK         0.5000 
     31 O          -1.1103  -18.7439  -42.8921 O.2       8 UNK        -0.5000 
     32 CA          0.0479  -17.2065  -44.3175 C.3       8 UNK         0.1400 
     33 CB          0.3787  -15.9095  -43.5634 C.3       8 UNK        -0.1800 
     34 N           1.0348  -17.4306  -45.3743 N.am      8 UNK        -0.5000 
     35 C           0.8978  -18.3212  -46.3677 C.2       7 UNK         0.5000 
     36 O          -0.0858  -19.0456  -46.5135 O.2       7 UNK        -0.5000 
     37 CA          2.0784  -18.4454  -47.3472 C.3       7 UNK         0.1400 
     38 CB          2.0199  -17.3193  -48.3924 C.3       7 UNK        -0.1800 
     39 N           3.3787  -18.4055  -46.6802 N.am      7 UNK        -0.5000 
     40 C           3.8124  -19.2800  -45.7600 C.2       6 UNK         0.5000 
     41 O           3.1852  -20.2796  -45.4106 O.2       6 UNK        -0.5000 
     42 CA          5.1370  -18.9172  -45.0565 C.3       6 UNK         0.1400 
     43 CB          6.3388  -19.4372  -45.8585 C.3       6 UNK        -0.1800 
     44 N           5.2719  -17.4693  -44.8485 N.am      6 UNK        -0.5000 
     45 C           4.4302  -16.7488  -44.0959 C.2       5 UNK         0.5000 
     46 O           3.5394  -17.2546  -43.4055 O.2       5 UNK        -0.5000 
     47 CA          4.5315  -15.2188  -44.2015 C.3       5 UNK         0.1400 
     48 CB          4.0504  -14.7703  -45.6015 C.3       5 UNK        -0.1800 
     49 N           3.6859  -14.6632  -43.1471 N.am      5 UNK        -0.5000 
     50 C           3.3684  -13.3866  -42.9196 C.2       4 UNK         0.5000 
     51 O           3.8067  -12.4299  -43.5618 O.2       4 UNK        -0.5000 
     52 CA          2.3673  -13.1331  -41.7873 C.3       4 UNK         0.1400 
     53 CB          3.0248  -12.3910  -40.6095 C.3       4 UNK        -0.1800 
     54 N           1.2652  -12.3528  -42.3358 N.am      4 UNK        -0.5000 
     55 C           0.0346  -12.2727  -41.8176 C.2       3 UNK         0.5000 
     56 O          -0.3133  -12.8431  -40.7831 O.2       3 UNK        -0.5000 
     57 CA         -0.9822  -11.4140  -42.5912 C.3       3 UNK         0.1400 
     58 CB         -0.8569   -9.9363  -42.1882 C.3       3 UNK        -0.1800 
     59 N          -0.8308  -11.5335  -44.0435 N.am      3 UNK        -0.5000 
     60 C          -1.2666  -12.5785  -44.7583 C.2       2 UNK         0.5000 
     61 O          -1.8376  -13.5555  -44.2685 O.2       2 UNK        -0.5000 
     62 CA         -1.0090  -12.5259  -46.2771 C.3       2 UNK         0.1400 
     63 CB          0.2661  -13.3054  -46.6391 C.3       2 UNK        -0.1800 
     64 N          -2.1277  -13.0681  -47.0484 N.am      2 UNK        -0.5000 
     65 C          -3.3749  -12.5812  -47.0662 C.2       1 UNK         0.5000 
     66 O          -3.7071  -11.5457  -46.4851 O.2       1 UNK        -0.5000 
     67 C          -3.5270  -21.7362  -46.9247 C.2       11 UNK         0.5000 
     68 O          -2.9370  -22.5764  -47.6094 O.2       11 UNK        -0.5000 
     69 N          -4.8184  -21.4269  -47.0942 N.am      12 UNK        -0.5000 
     70 CA         -5.7279  -21.9610  -48.1098 C.3       12 UNK         0.1400 
     71 CB         -7.0957  -21.2846  -47.9397 C.3       12 UNK        -0.1800 
     72 C          -5.8695  -23.4924  -48.0894 C.2       12 UNK         0.5000 
     73 O          -6.0269  -24.0998  -49.1478 O.2       12 UNK        -0.5000 
     74 N          -5.7370  -24.0938  -46.8988 N.am      13 UNK        -0.5000 
     75 CA         -5.7315  -25.5417  -46.6734 C.3       13 UNK         0.1400 
     76 CB         -5.6599  -25.8046  -45.1614 C.3       13 UNK        -0.1800 
     77 C          -4.5934  -26.2880  -47.4017 C.2       13 UNK         0.5000 
     78 O          -4.7445  -27.4748  -47.6941 O.2       13 UNK        -0.5000 
     79 N          -3.4931  -25.5820  -47.6914 N.am      14 UNK        -0.5000 
     80 CA         -2.3393  -26.0786  -48.4384 C.3       14 UNK         0.1400 
     81 CB         -1.1132  -26.0280  -47.5118 C.3       14 UNK        -0.1800 
     82 C          -2.0967  -25.2606  -49.7218 C.2       14 UNK         0.5000 
     83 O          -1.0362  -25.4074  -50.3297 O.2       14 UNK        -0.5000 
     84 N          -3.0401  -24.3811  -50.0967 N.am      15 UNK        -0.5000 
     85 CA         -2.9633  -23.4273  -51.2124 C.3       15 UNK         0.1400 
     86 CB         -3.0695  -24.1777  -52.5554 C.3       15 UNK        -0.1800 
     87 C          -1.7263  -22.5032  -51.1343 C.2       15 UNK         0.5000 
     88 O          -1.0601  -22.2653  -52.1443 O.2       15 UNK        -0.5000 
     89 N          -1.4094  -22.0527  -49.9108 N.am      16 UNK        -0.5000 
     90 CA         -0.2212  -21.2829  -49.5261 C.3       16 UNK         0.1400 
     91 CB         -0.2169  -19.9023  -50.2096 C.3       16 UNK        -0.1800 
     92 C           1.0972  -22.0592  -49.7398 C.2       16 UNK         0.5000 
     93 O           2.1224  -21.4507  -50.0422 O.2       16 UNK        -0.5000 
     94 N           1.0338  -23.3899  -49.5789 N.am      17 UNK        -0.5000 
     95 CA          2.0621  -24.3820  -49.9123 C.3       17 UNK         0.1400 
     96 CB          3.3770  -24.1448  -49.1386 C.3       17 UNK        -0.1800 
     97 C           2.2441  -24.4913  -51.4398 C.2       17 UNK         0.5000 
     98 O           3.3688  -24.4445  -51.9413 O.2       17 UNK        -0.5000 
     99 N           1.1059  -24.6267  -52.1387 N.am      18 UNK        -0.5000 
    100 CA         0.9416  -24.7044  -53.5943 C.3       18 UNK         0.1400 
    101 CB         1.4659  -26.0569  -54.1187 C.3       18 UNK        -0.1800 
    102 C          1.5430  -23.4903  -54.3344 C.2       18 UNK         0.5000 
    103 O          2.2635  -23.6613  -55.3205 O.2       18 UNK        -0.5000 
    104 N          1.2514  -22.2869  -53.8262 N.am      19 UNK        -0.5000 
    105 CA         1.8197  -21.0235  -54.2989 C.3       19 UNK         0.1400 
    106 CB         2.7992  -20.4943  -53.2391 C.3       19 UNK        -0.1800 
    107 C          0.7571  -19.9592  -54.6216 C.2       19 UNK         0.5000 
    108 O          1.1152  -18.9374  -55.2102 O.2       19 UNK        -0.5000 
    109 N         -0.5085  -20.1814  -54.2438 N.am      20 UNK        -0.5000 
    110 CA        -1.6027  -19.2343  -54.4466 C.3       20 UNK         0.1400 
    111 CB        -1.8448  -18.4621  -53.1404 C.3       20 UNK        -0.1800 
    112 C         -2.8759  -19.9602  -54.9002 C.2       20 UNK         0.5000 
    113 O         -3.0097  -21.1710  -54.7136 O.2       20 UNK        -0.5000 
    114 N         -3.8067  -19.1857  -55.4707 N.am      21 UNK        -0.5000 
    115 CA        -5.0917  -19.6504  -56.0021 C.3       21 UNK         0.1400 
    116 CB        -5.6444  -18.5718  -56.9485 C.3       21 UNK        -0.1800 
    117 C         -6.1339  -20.0116  -54.9220 C.2       21 UNK         0.5000 
    118 O         -7.1987  -20.5260  -55.2664 O.2       21 UNK        -0.5000 
    119 N         -5.8270  -19.7345  -53.6479 N.am      22 UNK        -0.5000 
    120 CA        -6.6660  -20.0501  -52.4808 C.3       22 UNK         0.1400 
    121 C         -6.8438  -21.5664  -52.1690 C.2       22 UNK         0.5000 
    122 N         -6.0663  -22.4654  -52.7597 N.am      22 UNK        -0.7600 
    123 O         -7.7223  -21.9316  -51.3943 O.2       22 UNK        -0.5000 
    124 C124       -6.2247  -19.2504  -51.2278 C.3       23 UNK        -0.0398 
    125 S125       -4.4852  -19.5355  -50.7368 S.3       23 UNK        -0.2404 
    126 C126       -3.9722  -17.8689  -50.2160 C.3       23 UNK        -0.0205 
    127 H127       -3.1220  -14.8077  -51.9563 H         1 UNK         0.0600 
    128 H128       -2.0052  -13.4621  -51.7036 H         1 UNK         0.0600 
    129 H129       -3.7387  -13.1560  -51.8553 H         1 UNK         0.0600 
    130 H130       -4.6574  -12.6784  -49.8791 H         1 UNK         0.3000 
    131 H131       -4.3115  -14.4087  -47.5904 H         1 UNK         0.0600 
    132 H132       -5.9744  -11.8516  -47.7535 H         1 UNK         0.0800 
    133 H133       -6.1082  -13.1105  -46.5558 H         1 UNK         0.0800 
    134 H134       -8.3591  -15.7530  -48.1945 H         1 UNK         0.0800 
    135 H135       -7.8232  -14.9966  -46.7128 H         1 UNK         0.0800 
    136 H136       -6.1692  -16.3028  -49.8476 H         1 UNK         0.1150 
    137 H137       -3.1921  -18.4854  -47.6972 H         1 UNK         0.1150 
    138 H138       -6.2387  -16.3422  -45.5629 H         1 UNK         0.1150 
    139 H139       -3.0225  -18.0929  -45.2028 H         1 UNK         0.0800 
    140 H140       -4.2574  -17.1918  -44.3852 H         1 UNK         0.0800 
    141 H141       -4.0007  -21.6818  -44.1793 H         1 UNK         0.0800 
    142 H142       -2.9134  -20.4150  -43.7216 H         1 UNK         0.0800 
    143 H143       -2.6040  -19.9628  -46.2818 H         1 UNK         0.0600 
    144 H144       -0.6996  -20.7159  -45.7851 H         1 UNK         0.3000 
    145 H145        0.5894  -23.6723  -44.2136 H         1 UNK         0.0600 
    146 H146        2.3185  -23.0863  -45.8761 H         1 UNK         0.0600 
    147 H147        0.9081  -23.7266  -46.6980 H         1 UNK         0.0600 
    148 H148        1.2158  -21.9918  -46.6982 H         1 UNK         0.0600 
    149 H149        1.6249  -21.0081  -44.5072 H         1 UNK         0.3000 
    150 H150        0.7453  -19.9009  -41.2019 H         1 UNK         0.0600 
    151 H151        2.9060  -21.1271  -41.0670 H         1 UNK         0.0600 
    152 H152        3.1805  -19.4052  -41.2902 H         1 UNK         0.0600 
    153 H153        3.3796  -20.5131  -42.6455 H         1 UNK         0.0600 
    154 H154        2.0044  -18.5495  -43.3658 H         1 UNK         0.3000 
    155 H155       -0.9295  -17.0871  -44.7880 H         1 UNK         0.0600 
    156 H156       -0.4514  -15.6173  -42.9192 H         1 UNK         0.0600 
    157 H157        0.5691  -15.0808  -44.2431 H         1 UNK         0.0600 
    158 H158        1.2519  -16.0250  -42.9240 H         1 UNK         0.0600 
    159 H159        1.9004  -16.9205  -45.2984 H         1 UNK         0.3000 
    160 H160        1.9902  -19.4068  -47.8569 H         1 UNK         0.0600 
    161 H161        2.7384  -17.4902  -49.1943 H         1 UNK         0.0600 
    162 H162        2.2350  -16.3456  -47.9504 H         1 UNK         0.0600 
    163 H163        1.0319  -17.2505  -48.8495 H         1 UNK         0.0600 
    164 H164        3.9760  -17.6257  -46.9087 H         1 UNK         0.3000 
    165 H165        5.1401  -19.4036  -44.0789 H         1 UNK         0.0600 
    166 H166        7.2750  -19.2457  -45.3339 H         1 UNK         0.0600 
    167 H167        6.2677  -20.5150  -46.0113 H         1 UNK         0.0600 
    168 H168        6.4023  -18.9696  -46.8418 H         1 UNK         0.0600 
    169 H169        5.9890  -16.9982  -45.3816 H         1 UNK         0.3000 
    170 H170        5.5661  -14.9147  -44.0349 H         1 UNK         0.0600 
    171 H171        4.6006  -15.2745  -46.3965 H         1 UNK         0.0600 
    172 H172        2.9907  -14.9801  -45.7504 H         1 UNK         0.0600 
    173 H173        4.2013  -13.7030  -45.7583 H         1 UNK         0.0600 
    174 H174        3.2818  -15.3898  -42.5673 H         1 UNK         0.3000 
    175 H175        1.9817  -14.0905  -41.4301 H         1 UNK         0.0600 
    176 H176        3.3919  -11.4085  -40.9086 H         1 UNK         0.0600 
    177 H177        2.3231  -12.2494  -39.7875 H         1 UNK         0.0600 
    178 H178        3.8725  -12.9550  -40.2186 H         1 UNK         0.0600 
    179 H179        1.4749  -11.8669  -43.1973 H         1 UNK         0.3000 
    180 H180       -1.9830  -11.7536  -42.3150 H         1 UNK         0.0600 
    181 H181        0.1189   -9.5261  -42.4512 H         1 UNK         0.0600 
    182 H182       -0.9849   -9.8137  -41.1119 H         1 UNK         0.0600 
    183 H183       -1.6196   -9.3289  -42.6760 H         1 UNK         0.0600 
    184 H184       -0.3794  -10.7639  -44.5165 H         1 UNK         0.3000 
    185 H185       -0.8750  -11.4834  -46.5727 H         1 UNK         0.0600 
    186 H186        1.1193  -12.9657  -46.0501 H         1 UNK         0.0600 
    187 H187        0.1470  -14.3751  -46.4629 H         1 UNK         0.0600 
    188 H188        0.5231  -13.1706  -47.6899 H         1 UNK         0.0600 
    189 H189       -1.9441  -13.8953  -47.6070 H         1 UNK         0.3000 
    190 H190       -5.2094  -20.7155  -46.4890 H         1 UNK         0.3000 
    191 H191       -5.3269  -21.6935  -49.0870 H         1 UNK         0.0600 
    192 H192       -7.0144  -20.2018  -48.0392 H         1 UNK         0.0600 
    193 H193       -7.8012  -21.6296  -48.6962 H         1 UNK         0.0600 
    194 H194       -7.5312  -21.4988  -46.9630 H         1 UNK         0.0600 
    195 H195       -5.5922  -23.5118  -46.0873 H         1 UNK         0.3000 
    196 H196       -6.6763  -25.9395  -47.0491 H         1 UNK         0.0600 
    197 H197       -5.6804  -26.8743  -44.9487 H         1 UNK         0.0600 
    198 H198       -6.5060  -25.3553  -44.6411 H         1 UNK         0.0600 
    199 H199       -4.7439  -25.4009  -44.7273 H         1 UNK         0.0600 
    200 H200       -3.4478  -24.6071  -47.4134 H         1 UNK         0.3000 
    201 H201       -2.4923  -27.1126  -48.7526 H         1 UNK         0.0600 
    202 H202       -1.2667  -26.6423  -46.6245 H         1 UNK         0.0600 
    203 H203       -0.9166  -25.0095  -47.1796 H         1 UNK         0.0600 
    204 H204       -0.2163  -26.3980  -48.0099 H         1 UNK         0.0600 
    205 H205       -3.8948  -24.3469  -49.5553 H         1 UNK         0.3000 
    206 H206       -3.8307  -22.7731  -51.1204 H         1 UNK         0.0600 
    207 H207       -3.9867  -24.7641  -52.6044 H         1 UNK         0.0600 
    208 H208       -3.0843  -23.4841  -53.3958 H         1 UNK         0.0600 
    209 H209       -2.2329  -24.8586  -52.7074 H         1 UNK         0.0600 
    210 H210       -2.0179  -22.3178  -49.1374 H         1 UNK         0.3000 
    211 H211       -0.3045  -21.1156  -48.4518 H         1 UNK         0.0600 
    212 H212       -1.1376  -19.3604  -50.0013 H         1 UNK         0.0600 
    213 H213       -0.1028  -19.9837  -51.2896 H         1 UNK         0.0600 
    214 H214        0.6081  -19.2909  -49.8524 H         1 UNK         0.0600 
    215 H215        0.1233  -23.7853  -49.3876 H         1 UNK         0.3000 
    216 H216        1.6694  -25.3456  -49.5846 H         1 UNK         0.0600 
    217 H217        4.0667  -24.9758  -49.2890 H         1 UNK         0.0600 
    218 H218        3.1968  -24.0639  -48.0674 H         1 UNK         0.0600 
    219 H219        3.8898  -23.2394  -49.4630 H         1 UNK         0.0600 
    220 H220        0.2450  -24.6949  -51.6034 H         1 UNK         0.3000 
    221 H221       -0.1310  -24.6711  -53.7862 H         1 UNK         0.0600 
    222 H222        2.5443  -26.1512  -53.9873 H         1 UNK         0.0600 
    223 H223        0.9909  -26.8899  -53.6005 H         1 UNK         0.0600 
    224 H224        1.2531  -26.1738  -55.1819 H         1 UNK         0.0600 
    225 H225        0.6072  -22.2381  -53.0406 H         1 UNK         0.3000 
    226 H226        2.3791  -21.1832  -55.2225 H         1 UNK         0.0600 
    227 H227        2.2780  -20.1923  -52.3309 H         1 UNK         0.0600 
    228 H228        3.5382  -21.2487  -52.9674 H         1 UNK         0.0600 
    229 H229        3.3418  -19.6231  -53.6078 H         1 UNK         0.0600 
    230 H230       -0.7680  -21.0522  -53.7908 H         1 UNK         0.3000 
    231 H231       -1.3455  -18.5219  -55.2333 H         1 UNK         0.0600 
    232 H232       -0.9562  -17.9074  -52.8387 H         1 UNK         0.0600 
    233 H233       -2.1042  -19.1411  -52.3298 H         1 UNK         0.0600 
    234 H234       -2.6573  -17.7421  -53.2432 H         1 UNK         0.0600 
    235 H235       -3.6214  -18.1979  -55.5715 H         1 UNK         0.3000 
    236 H236       -4.9117  -20.5551  -56.5866 H         1 UNK         0.0600 
    237 H237       -4.9445  -18.3591  -57.7568 H         1 UNK         0.0600 
    238 H238       -6.5791  -18.8941  -57.4095 H         1 UNK         0.0600 
    239 H239       -5.8439  -17.6383  -56.4209 H         1 UNK         0.0600 
    240 H240       -4.9239  -19.3334  -53.4466 H         1 UNK         0.3000 
    241 H241       -7.6702  -19.7007  -52.7286 H         1 UNK         0.0600 
    242 H242       -5.3551  -22.1778  -53.4133 H         1 UNK         0.3800 
    243 H243       -6.2104  -23.4419  -52.5602 H         1 UNK         0.3800 
    244 H244       -6.3652  -18.1882  -51.4291 H         1 UNK         0.0800 
    245 H245       -6.8701  -19.4714  -50.3768 H         1 UNK         0.0800 
    246 H246       -4.2015  -17.1490  -51.0028 H         1 UNK         0.0800 
    247 H247       -2.8886  -17.8448  -50.1001 H         1 UNK         0.0800 
@<TRIPOS>BOND
     1    1    2 1    
     2    1  127 1    
     3    1  128 1    
     4    1  129 1    
     5    2    3 2    
     6    2    4 am   BACKBONE|DICT|INTERRES
     7    4    5 1    
     8    4  130 1    
     9    5    6 1    
    10    5   65 1    
    11    5  131 1    
    12    6    7 1    
    13    6  132 1    
    14    6  133 1    
    15    7    8 1    
    16    8    9 1    
    17    8  134 1    
    18    8  135 1    
    19    9   10 ar   
    20    9   14 ar   
    21   10   11 ar   
    22   10  136 1    
    23   11   12 ar   
    24   11  126 1    
    25   12   13 ar   
    26   12  137 1    
    27   13   14 ar   
    28   13   15 1    
    29   14  138 1    
    30   15   16 1    
    31   15  139 1    
    32   15  140 1    
    33   16   17 1    
    34   17   18 1    
    35   17  141 1    
    36   17  142 1    
    37   18   19 1    
    38   18   67 1    
    39   18  143 1    
    40   19   20 am   BACKBONE|DICT|INTERRES
    41   19  144 1    
    42   20   21 2    
    43   20   22 1    
    44   22   23 1    
    45   22   24 1    
    46   22  145 1    
    47   23  146 1    
    48   23  147 1    
    49   23  148 1    
    50   24   25 am   BACKBONE|DICT|INTERRES
    51   24  149 1    
    52   25   26 2    
    53   25   27 1    
    54   27   28 1    
    55   27   29 1    
    56   27  150 1    
    57   28  151 1    
    58   28  152 1    
    59   28  153 1    
    60   29   30 am   BACKBONE|DICT|INTERRES
    61   29  154 1    
    62   30   31 2    
    63   30   32 1    
    64   32   33 1    
    65   32   34 1    
    66   32  155 1    
    67   33  156 1    
    68   33  157 1    
    69   33  158 1    
    70   34   35 am   BACKBONE|DICT|INTERRES
    71   34  159 1    
    72   35   36 2    
    73   35   37 1    
    74   37   38 1    
    75   37   39 1    
    76   37  160 1    
    77   38  161 1    
    78   38  162 1    
    79   38  163 1    
    80   39   40 am   BACKBONE|DICT|INTERRES
    81   39  164 1    
    82   40   41 2    
    83   40   42 1    
    84   42   43 1    
    85   42   44 1    
    86   42  165 1    
    87   43  166 1    
    88   43  167 1    
    89   43  168 1    
    90   44   45 am   BACKBONE|DICT|INTERRES
    91   44  169 1    
    92   45   46 2    
    93   45   47 1    
    94   47   48 1    
    95   47   49 1    
    96   47  170 1    
    97   48  171 1    
    98   48  172 1    
    99   48  173 1    
   100   49   50 am   BACKBONE|DICT|INTERRES
   101   49  174 1    
   102   50   51 2    
   103   50   52 1    
   104   52   53 1    
   105   52   54 1    
   106   52  175 1    
   107   53  176 1    
   108   53  177 1    
   109   53  178 1    
   110   54   55 am   BACKBONE|DICT|INTERRES
   111   54  179 1    
   112   55   56 2    
   113   55   57 1    
   114   57   58 1    
   115   57   59 1    
   116   57  180 1    
   117   58  181 1    
   118   58  182 1    
   119   58  183 1    
   120   59   60 am   BACKBONE|DICT|INTERRES
   121   59  184 1    
   122   60   61 2    
   123   60   62 1    
   124   62   63 1    
   125   62   64 1    
   126   62  185 1    
   127   63  186 1    
   128   63  187 1    
   129   63  188 1    
   130   64   65 am   BACKBONE|DICT|INTERRES
   131   64  189 1    
   132   65   66 2    
   133   67   68 2    
   134   67   69 am   BACKBONE|DICT|INTERRES
   135   69   70 1    
   136   69  190 1    
   137   70   71 1    
   138   70   72 1    
   139   70  191 1    
   140   71  192 1    
   141   71  193 1    
   142   71  194 1    
   143   72   73 2    
   144   72   74 am   BACKBONE|DICT|INTERRES
   145   74   75 1    
   146   74  195 1    
   147   75   76 1    
   148   75   77 1    
   149   75  196 1    
   150   76  197 1    
   151   76  198 1    
   152   76  199 1    
   153   77   78 2    
   154   77   79 am   BACKBONE|DICT|INTERRES
   155   79   80 1    
   156   79  200 1    
   157   80   81 1    
   158   80   82 1    
   159   80  201 1    
   160   81  202 1    
   161   81  203 1    
   162   81  204 1    
   163   82   83 2    
   164   82   84 am   BACKBONE|DICT|INTERRES
   165   84   85 1    
   166   84  205 1    
   167   85   86 1    
   168   85   87 1    
   169   85  206 1    
   170   86  207 1    
   171   86  208 1    
   172   86  209 1    
   173   87   88 2    
   174   87   89 am   BACKBONE|DICT|INTERRES
   175   89   90 1    
   176   89  210 1    
   177   90   91 1    
   178   90   92 1    
   179   90  211 1    
   180   91  212 1    
   181   91  213 1    
   182   91  214 1    
   183   92   93 2    
   184   92   94 am   BACKBONE|DICT|INTERRES
   185   94   95 1    
   186   94  215 1    
   187   95   96 1    
   188   95   97 1    
   189   95  216 1    
   190   96  217 1    
   191   96  218 1    
   192   96  219 1    
   193   97   98 2    
   194   97   99 am   BACKBONE|DICT|INTERRES
   195   99  100 1    
   196   99  220 1    
   197  100  101 1    
   198  100  102 1    
   199  100  221 1    
   200  101  222 1    
   201  101  223 1    
   202  101  224 1    
   203  102  103 2    
   204  102  104 am   BACKBONE|DICT|INTERRES
   205  104  105 1    
   206  104  225 1    
   207  105  106 1    
   208  105  107 1    
   209  105  226 1    
   210  106  227 1    
   211  106  228 1    
   212  106  229 1    
   213  107  108 2    
   214  107  109 am   BACKBONE|DICT|INTERRES
   215  109  110 1    
   216  109  230 1    
   217  110  111 1    
   218  110  112 1    
   219  110  231 1    
   220  111  232 1    
   221  111  233 1    
   222  111  234 1    
   223  112  113 2    
   224  112  114 am   BACKBONE|DICT|INTERRES
   225  114  115 1    
   226  114  235 1    
   227  115  116 1    
   228  115  117 1    
   229  115  236 1    
   230  116  237 1    
   231  116  238 1    
   232  116  239 1    
   233  117  118 2    
   234  117  119 am   BACKBONE|DICT|INTERRES
   235  119  120 1    
   236  119  240 1    
   237  120  121 1    
   238  120  124 1    
   239  120  241 1    
   240  121  122 am   BACKBONE|DICT|INTERRES
   241  121  123 2    
   242  122  242 1    
   243  122  243 1    
   244  124  125 1    
   245  124  244 1    
   246  124  245 1    
   247  125  126 1    
   248  126  246 1    
   249  126  247 1    
@<TRIPOS>SUBSTRUCTURE
     1 UNK         1 GROUP             0       ****    0 ROOT    
