@<TRIPOS>MOLECULE
3R540
247   249    1
SMALL
USER_CHARGES


@<TRIPOS>ATOM
      1 CA          2.4988  -16.7388  -50.3865 C.3       0 UNK        -0.1800 
      2 C           2.4957  -15.4411  -51.1899 C.2       0 UNK         0.5000 
      3 O           3.1419  -15.3761  -52.2329 O.2       0 UNK        -0.5000 
      4 N           1.8027  -14.3820  -50.7495 N.am      1 UNK        -0.5000 
      5 CA          0.9874  -14.2951  -49.5279 C.3       1 UNK         0.1400 
      6 C6         -0.3094  -13.4756  -49.7419 C.3       23 UNK        -0.0398 
      7 S7         -1.3545  -14.1451  -51.0834 S.3       23 UNK        -0.2404 
      8 C8         -2.8493  -14.7100  -50.1919 C.3       23 UNK        -0.0205 
      9 C9         -2.7996  -16.1072  -49.5652 C.ar      23 UNK        -0.0193 
     10 C10        -3.9325  -16.5508  -48.8736 C.ar      23 UNK        -0.1150 
     11 C11        -3.9837  -17.8350  -48.3250 C.ar      23 UNK        -0.0193 
     12 C12        -2.8804  -18.6777  -48.4502 C.ar      23 UNK        -0.1150 
     13 C13        -1.7329  -18.2509  -49.1199 C.ar      23 UNK        -0.0193 
     14 C14        -1.7016  -16.9714  -49.6845 C.ar      23 UNK        -0.1150 
     15 C15        -0.5529  -19.1953  -49.2794 C.3       23 UNK        -0.0205 
     16 S16         0.6999  -18.9949  -47.9733 S.3       23 UNK        -0.2404 
     17 C17        -0.1570  -19.5174  -46.4454 C.3       23 UNK        -0.0398 
     18 CA         -0.1062  -21.0459  -46.2041 C.3       11 UNK         0.1400 
     19 N           0.0342  -21.3776  -44.7844 N.am      11 UNK        -0.5000 
     20 C           0.3352  -22.6006  -44.3260 C.2       10 UNK         0.5000 
     21 O           0.5675  -23.5662  -45.0532 O.2       10 UNK        -0.5000 
     22 CA          0.3212  -22.7849  -42.8004 C.3       10 UNK         0.1400 
     23 CB          1.6339  -22.2887  -42.1768 C.3       10 UNK        -0.1800 
     24 N          -0.8155  -22.0993  -42.1841 N.am      10 UNK        -0.5000 
     25 C          -2.0896  -22.4959  -42.3170 C.2       9 UNK         0.5000 
     26 O          -2.4302  -23.4920  -42.9528 O.2       9 UNK        -0.5000 
     27 CA         -3.1687  -21.6165  -41.6604 C.3       9 UNK         0.1400 
     28 CB         -3.3575  -22.0045  -40.1865 C.3       9 UNK        -0.1800 
     29 N          -2.8772  -20.1860  -41.7504 N.am      9 UNK        -0.5000 
     30 C          -2.8124  -19.4913  -42.8947 C.2       8 UNK         0.5000 
     31 O          -2.9861  -19.9809  -44.0097 O.2       8 UNK        -0.5000 
     32 CA         -2.4309  -18.0077  -42.7726 C.3       8 UNK         0.1400 
     33 CB         -3.6625  -17.1568  -42.4310 C.3       8 UNK        -0.1800 
     34 N          -1.3716  -17.7563  -41.7893 N.am      8 UNK        -0.5000 
     35 C          -0.1481  -18.3015  -41.8145 C.2       7 UNK         0.5000 
     36 O           0.2251  -19.0981  -42.6792 O.2       7 UNK        -0.5000 
     37 CA          0.8027  -17.8896  -40.6811 C.3       7 UNK         0.1400 
     38 CB          1.6648  -19.0693  -40.1939 C.3       7 UNK        -0.1800 
     39 N           1.6609  -16.8011  -41.1365 N.am      7 UNK        -0.5000 
     40 C           2.2432  -15.8963  -40.3387 C.2       6 UNK         0.5000 
     41 O           2.0817  -15.8591  -39.1180 O.2       6 UNK        -0.5000 
     42 CA          3.1545  -14.8513  -41.0097 C.3       6 UNK         0.1400 
     43 CB          4.4811  -15.4782  -41.4686 C.3       6 UNK        -0.1800 
     44 N           2.4964  -14.2053  -42.1430 N.am      6 UNK        -0.5000 
     45 C           1.6070  -13.2073  -42.0362 C.2       5 UNK         0.5000 
     46 O           1.3115  -12.6652  -40.9705 O.2       5 UNK        -0.5000 
     47 CA          0.9107  -12.7496  -43.3346 C.3       5 UNK         0.1400 
     48 CB          1.6767  -11.5941  -43.9960 C.3       5 UNK        -0.1800 
     49 N           0.7502  -13.8412  -44.2950 N.am      5 UNK        -0.5000 
     50 C          -0.0525  -14.8960  -44.1022 C.2       4 UNK         0.5000 
     51 O          -0.8287  -14.9956  -43.1534 O.2       4 UNK        -0.5000 
     52 CA          0.0577  -16.0486  -45.1129 C.3       4 UNK         0.1400 
     53 CB         -0.9874  -15.8934  -46.2269 C.3       4 UNK        -0.1800 
     54 N           1.4016  -16.1770  -45.6833 N.am      4 UNK        -0.5000 
     55 C           2.4617  -16.6433  -45.0059 C.2       3 UNK         0.5000 
     56 O           2.4016  -17.0207  -43.8384 O.2       3 UNK        -0.5000 
     57 CA          3.8259  -16.6452  -45.7214 C.3       3 UNK         0.1400 
     58 CB          4.0549  -17.9671  -46.4676 C.3       3 UNK        -0.1800 
     59 N           3.9763  -15.5278  -46.6520 N.am      3 UNK        -0.5000 
     60 C           4.0952  -14.2455  -46.2798 C.2       2 UNK         0.5000 
     61 O           4.1785  -13.8810  -45.1073 O.2       2 UNK        -0.5000 
     62 CA          4.0435  -13.1971  -47.4101 C.3       2 UNK         0.1400 
     63 CB          5.4432  -12.9614  -47.9961 C.3       2 UNK        -0.1800 
     64 N           3.1199  -13.5701  -48.4890 N.am      2 UNK        -0.5000 
     65 C           1.8003  -13.7570  -48.3291 C.2       1 UNK         0.5000 
     66 O           1.2307  -13.5647  -47.2559 O.2       1 UNK        -0.5000 
     67 C          -1.3112  -21.7771  -46.8338 C.2       11 UNK         0.5000 
     68 O          -1.1784  -22.3453  -47.9161 O.2       11 UNK        -0.5000 
     69 N          -2.4519  -21.8023  -46.1290 N.am      12 UNK        -0.5000 
     70 CA         -3.6581  -22.5269  -46.5356 C.3       12 UNK         0.1400 
     71 CB         -4.8156  -22.1734  -45.5908 C.3       12 UNK        -0.1800 
     72 C          -3.4576  -24.0537  -46.6030 C.2       12 UNK         0.5000 
     73 O          -4.0263  -24.6934  -47.4869 O.2       12 UNK        -0.5000 
     74 N          -2.6418  -24.6066  -45.6930 N.am      13 UNK        -0.5000 
     75 CA         -2.2395  -26.0141  -45.6907 C.3       13 UNK         0.1400 
     76 CB         -1.5980  -26.3719  -44.3414 C.3       13 UNK        -0.1800 
     77 C          -1.2947  -26.3626  -46.8562 C.2       13 UNK         0.5000 
     78 O          -1.4295  -27.4407  -47.4366 O.2       13 UNK        -0.5000 
     79 N          -0.3719  -25.4474  -47.1901 N.am      14 UNK        -0.5000 
     80 CA          0.5111  -25.5490  -48.3558 C.3       14 UNK         0.1400 
     81 CB          1.6117  -24.4800  -48.2678 C.3       14 UNK        -0.1800 
     82 C          -0.2632  -25.4401  -49.6842 C.2       14 UNK         0.5000 
     83 O           0.0185  -26.1972  -50.6142 O.2       14 UNK        -0.5000 
     84 N          -1.2502  -24.5336  -49.7160 N.am      15 UNK        -0.5000 
     85 CA         -2.2157  -24.2929  -50.7865 C.3       15 UNK         0.1400 
     86 CB         -3.1784  -25.4953  -50.9231 C.3       15 UNK        -0.1800 
     87 C          -1.5320  -23.8685  -52.1038 C.2       15 UNK         0.5000 
     88 O          -0.7882  -22.8844  -52.1066 O.2       15 UNK        -0.5000 
     89 N          -1.8129  -24.5997  -53.1927 N.am      16 UNK        -0.5000 
     90 CA         -1.2938  -24.4161  -54.5508 C.3       16 UNK         0.1400 
     91 CB          0.2215  -24.7188  -54.5827 C.3       16 UNK        -0.1800 
     92 C          -1.6514  -23.0394  -55.1532 C.2       16 UNK         0.5000 
     93 O          -2.5973  -22.3874  -54.7017 O.2       16 UNK        -0.5000 
     94 N          -0.8874  -22.6160  -56.1683 N.am      17 UNK        -0.5000 
     95 CA         -1.0314  -21.3306  -56.8570 C.3       17 UNK         0.1400 
     96 CB         -0.1636  -21.3485  -58.1249 C.3       17 UNK        -0.1800 
     97 C          -0.6833  -20.1106  -55.9799 C.2       17 UNK         0.5000 
     98 O          -1.0713  -18.9951  -56.3265 O.2       17 UNK        -0.5000 
     99 N           0.0292  -20.3365  -54.8655 N.am      18 UNK        -0.5000 
    100 CA         0.3227  -19.3272  -53.8493 C.3       18 UNK         0.1400 
    101 CB         1.3602  -19.8792  -52.8589 C.3       18 UNK        -0.1800 
    102 C         -0.9517  -18.8688  -53.1185 C.2       18 UNK         0.5000 
    103 O         -1.1529  -17.6664  -52.9552 O.2       18 UNK        -0.5000 
    104 N         -1.7937  -19.8339  -52.7213 N.am      19 UNK        -0.5000 
    105 CA        -3.1080  -19.5755  -52.1359 C.3       19 UNK         0.1400 
    106 CB        -3.5488  -20.7888  -51.3041 C.3       19 UNK        -0.1800 
    107 C         -4.1567  -19.2558  -53.2099 C.2       19 UNK         0.5000 
    108 O         -4.9425  -18.3260  -53.0299 O.2       19 UNK        -0.5000 
    109 N         -4.1570  -20.0500  -54.2928 N.am      20 UNK        -0.5000 
    110 CA        -5.1016  -20.0121  -55.4141 C.3       20 UNK         0.1400 
    111 CB        -4.8993  -18.7338  -56.2536 C.3       20 UNK        -0.1800 
    112 C         -6.5645  -20.2233  -54.9628 C.2       20 UNK         0.5000 
    113 O         -7.4677  -19.5491  -55.4608 O.2       20 UNK        -0.5000 
    114 N         -6.7522  -21.1575  -54.0151 N.am      21 UNK        -0.5000 
    115 CA        -8.0047  -21.4986  -53.3303 C.3       21 UNK         0.1400 
    116 CB        -9.0217  -22.1186  -54.3120 C.3       21 UNK        -0.1800 
    117 C         -8.5705  -20.2976  -52.5433 C.2       21 UNK         0.5000 
    118 O         -9.6414  -19.7826  -52.8709 O.2       21 UNK        -0.5000 
    119 N         -7.8132  -19.8608  -51.5280 N.am      22 UNK        -0.5000 
    120 CA        -8.1272  -18.7009  -50.6745 C.3       22 UNK         0.1400 
    121 C         -9.3699  -18.8498  -49.7435 C.2       22 UNK         0.5000 
    122 N         -9.9200  -20.0421  -49.5475 N.am      22 UNK        -0.7600 
    123 O         -9.8502  -17.8596  -49.1984 O.2       22 UNK        -0.5000 
    124 C124       -6.8781  -18.2099  -49.8957 C.3       23 UNK        -0.0398 
    125 S125       -6.2239  -19.4164  -48.6863 S.3       23 UNK        -0.2404 
    126 C126       -5.2323  -18.3296  -47.6127 C.3       23 UNK        -0.0205 
    127 H127        2.7159  -16.5611  -49.3345 H         1 UNK         0.0600 
    128 H128        3.2549  -17.4251  -50.7682 H         1 UNK         0.0600 
    129 H129        1.5309  -17.2305  -50.4668 H         1 UNK         0.0600 
    130 H130        1.8108  -13.5427  -51.3118 H         1 UNK         0.3000 
    131 H131        0.6720  -15.2943  -49.2290 H         1 UNK         0.0600 
    132 H132       -0.8965  -13.4386  -48.8228 H         1 UNK         0.0800 
    133 H133       -0.0689  -12.4399  -49.9871 H         1 UNK         0.0800 
    134 H134       -3.1111  -13.9782  -49.4266 H         1 UNK         0.0800 
    135 H135       -3.6716  -14.7018  -50.9087 H         1 UNK         0.0800 
    136 H136       -4.7910  -15.9001  -48.7836 H         1 UNK         0.1150 
    137 H137       -2.9278  -19.6758  -48.0409 H         1 UNK         0.1150 
    138 H138       -0.8275  -16.6733  -50.2413 H         1 UNK         0.1150 
    139 H139       -0.8911  -20.2290  -49.3189 H         1 UNK         0.0800 
    140 H140       -0.0754  -19.0142  -50.2416 H         1 UNK         0.0800 
    141 H141        0.3774  -19.0150  -45.6388 H         1 UNK         0.0800 
    142 H142       -1.1707  -19.1198  -46.3980 H         1 UNK         0.0800 
    143 H143        0.7910  -21.4344  -46.6916 H         1 UNK         0.0600 
    144 H144       -0.1187  -20.6316  -44.1144 H         1 UNK         0.3000 
    145 H145        0.2301  -23.8529  -42.5907 H         1 UNK         0.0600 
    146 H146        1.6294  -22.4089  -41.0934 H         1 UNK         0.0600 
    147 H147        2.4831  -22.8532  -42.5635 H         1 UNK         0.0600 
    148 H148        1.8154  -21.2374  -42.3993 H         1 UNK         0.0600 
    149 H149       -0.6200  -21.2360  -41.6994 H         1 UNK         0.3000 
    150 H150       -4.1091  -21.8001  -42.1842 H         1 UNK         0.0600 
    151 H151       -3.5957  -23.0647  -40.0899 H         1 UNK         0.0600 
    152 H152       -4.1772  -21.4464  -39.7335 H         1 UNK         0.0600 
    153 H153       -2.4573  -21.8155  -39.6004 H         1 UNK         0.0600 
    154 H154       -2.7088  -19.6990  -40.8825 H         1 UNK         0.3000 
    155 H155       -2.0712  -17.6905  -43.7506 H         1 UNK         0.0600 
    156 H156       -3.4217  -16.0936  -42.4476 H         1 UNK         0.0600 
    157 H157       -4.0592  -17.3967  -41.4438 H         1 UNK         0.0600 
    158 H158       -4.4618  -17.3182  -43.1557 H         1 UNK         0.0600 
    159 H159       -1.5842  -17.0774  -41.0727 H         1 UNK         0.3000 
    160 H160        0.1936  -17.5449  -39.8428 H         1 UNK         0.0600 
    161 H161        2.3760  -19.3865  -40.9572 H         1 UNK         0.0600 
    162 H162        1.0462  -19.9300  -39.9373 H         1 UNK         0.0600 
    163 H163        2.2329  -18.8012  -39.3032 H         1 UNK         0.0600 
    164 H164        1.8616  -16.7950  -42.1366 H         1 UNK         0.3000 
    165 H165        3.3940  -14.0897  -40.2643 H         1 UNK         0.0600 
    166 H166        4.3309  -16.2593  -42.2133 H         1 UNK         0.0600 
    167 H167        5.1409  -14.7270  -41.9032 H         1 UNK         0.0600 
    168 H168        5.0092  -15.9277  -40.6269 H         1 UNK         0.0600 
    169 H169        2.6848  -14.5871  -43.0592 H         1 UNK         0.3000 
    170 H170       -0.0840  -12.3865  -43.0677 H         1 UNK         0.0600 
    171 H171        1.1774  -11.2584  -44.9052 H         1 UNK         0.0600 
    172 H172        1.7422  -10.7374  -43.3243 H         1 UNK         0.0600 
    173 H173        2.6945  -11.8804  -44.2591 H         1 UNK         0.0600 
    174 H174        1.2963  -13.7965  -45.1473 H         1 UNK         0.3000 
    175 H175       -0.1528  -16.9737  -44.5785 H         1 UNK         0.0600 
    176 H176       -0.8939  -16.6834  -46.9670 H         1 UNK         0.0600 
    177 H177       -1.9982  -15.9496  -45.8215 H         1 UNK         0.0600 
    178 H178       -0.9003  -14.9394  -46.7448 H         1 UNK         0.0600 
    179 H179        1.5320  -15.8255  -46.6185 H         1 UNK         0.3000 
    180 H180        4.5961  -16.5562  -44.9519 H         1 UNK         0.0600 
    181 H181        3.3857  -18.0710  -47.3206 H         1 UNK         0.0600 
    182 H182        3.8885  -18.8231  -45.8119 H         1 UNK         0.0600 
    183 H183        5.0779  -18.0358  -46.8377 H         1 UNK         0.0600 
    184 H184        3.9428  -15.7435  -47.6362 H         1 UNK         0.3000 
    185 H185        3.6906  -12.2598  -46.9746 H         1 UNK         0.0600 
    186 H186        5.4301  -12.1643  -48.7397 H         1 UNK         0.0600 
    187 H187        6.1475  -12.6658  -47.2172 H         1 UNK         0.0600 
    188 H188        5.8383  -13.8594  -48.4727 H         1 UNK         0.0600 
    189 H189        3.5206  -13.7213  -49.4036 H         1 UNK         0.3000 
    190 H190       -2.5154  -21.2722  -45.2627 H         1 UNK         0.3000 
    191 H191       -3.9254  -22.1856  -47.5382 H         1 UNK         0.0600 
    192 H192       -5.7332  -22.6812  -45.8899 H         1 UNK         0.0600 
    193 H193       -5.0201  -21.1030  -45.6004 H         1 UNK         0.0600 
    194 H194       -4.5974  -22.4643  -44.5631 H         1 UNK         0.0600 
    195 H195       -2.2772  -24.0282  -44.9444 H         1 UNK         0.3000 
    196 H196       -3.1400  -26.6215  -45.8034 H         1 UNK         0.0600 
    197 H197       -1.3008  -27.4209  -44.3164 H         1 UNK         0.0600 
    198 H198       -2.2962  -26.2132  -43.5195 H         1 UNK         0.0600 
    199 H199       -0.7082  -25.7740  -44.1449 H         1 UNK         0.0600 
    200 H200       -0.2844  -24.6122  -46.6215 H         1 UNK         0.3000 
    201 H201        0.9912  -26.5294  -48.3287 H         1 UNK         0.0600 
    202 H202        2.1879  -24.5823  -47.3481 H         1 UNK         0.0600 
    203 H203        1.2015  -23.4707  -48.2938 H         1 UNK         0.0600 
    204 H204        2.3087  -24.5707  -49.1018 H         1 UNK         0.0600 
    205 H205       -1.3140  -23.8882  -48.9317 H         1 UNK         0.3000 
    206 H206       -2.8095  -23.4408  -50.4579 H         1 UNK         0.0600 
    207 H207       -3.6511  -25.7240  -49.9681 H         1 UNK         0.0600 
    208 H208       -3.9814  -25.2818  -51.6295 H         1 UNK         0.0600 
    209 H209       -2.6665  -26.3990  -51.2558 H         1 UNK         0.0600 
    210 H210       -2.4608  -25.3660  -53.0807 H         1 UNK         0.3000 
    211 H211       -1.7972  -25.1593  -55.1703 H         1 UNK         0.0600 
    212 H212        0.8022  -23.9399  -54.0869 H         1 UNK         0.0600 
    213 H213        0.5922  -24.8119  -55.6038 H         1 UNK         0.0600 
    214 H214        0.4416  -25.6616  -54.0813 H         1 UNK         0.0600 
    215 H215       -0.1339  -23.2091  -56.4847 H         1 UNK         0.3000 
    216 H216       -2.0758  -21.2239  -57.1579 H         1 UNK         0.0600 
    217 H217        0.8940  -21.4685  -57.8868 H         1 UNK         0.0600 
    218 H218       -0.4536  -22.1616  -58.7907 H         1 UNK         0.0600 
    219 H219       -0.2703  -20.4189  -58.6856 H         1 UNK         0.0600 
    220 H220        0.3079  -21.2840  -54.6592 H         1 UNK         0.3000 
    221 H221        0.7572  -18.4581  -54.3480 H         1 UNK         0.0600 
    222 H222        2.2797  -20.1652  -53.3697 H         1 UNK         0.0600 
    223 H223        1.6247  -19.1283  -52.1144 H         1 UNK         0.0600 
    224 H224        0.9873  -20.7539  -52.3247 H         1 UNK         0.0600 
    225 H225       -1.5452  -20.8019  -52.8834 H         1 UNK         0.3000 
    226 H226       -3.0457  -18.7118  -51.4739 H         1 UNK         0.0600 
    227 H227       -2.8295  -21.0096  -50.5162 H         1 UNK         0.0600 
    228 H228       -4.5082  -20.6019  -50.8228 H         1 UNK         0.0600 
    229 H229       -3.6598  -21.6801  -51.9218 H         1 UNK         0.0600 
    230 H230       -3.4827  -20.8119  -54.3321 H         1 UNK         0.3000 
    231 H231       -4.8535  -20.8638  -56.0491 H         1 UNK         0.0600 
    232 H232       -5.5073  -18.7596  -57.1586 H         1 UNK         0.0600 
    233 H233       -3.8602  -18.6282  -56.5650 H         1 UNK         0.0600 
    234 H234       -5.1753  -17.8364  -55.6992 H         1 UNK         0.0600 
    235 H235       -5.9314  -21.6447  -53.6853 H         1 UNK         0.3000 
    236 H236       -7.7581  -22.2657  -52.5946 H         1 UNK         0.0600 
    237 H237       -8.6007  -22.9875  -54.8177 H         1 UNK         0.0600 
    238 H238       -9.9159  -22.4519  -53.7840 H         1 UNK         0.0600 
    239 H239       -9.3416  -21.4097  -55.0760 H         1 UNK         0.0600 
    240 H240       -6.9497  -20.3365  -51.3159 H         1 UNK         0.3000 
    241 H241       -8.3916  -17.8937  -51.3605 H         1 UNK         0.0600 
    242 H242      -10.7261  -20.1249  -48.9483 H         1 UNK         0.3800 
    243 H243       -9.5334  -20.8625  -49.9847 H         1 UNK         0.3800 
    244 H244       -6.0792  -17.9670  -50.5973 H         1 UNK         0.0800 
    245 H245       -7.1061  -17.2762  -49.3789 H         1 UNK         0.0800 
    246 H246       -4.9414  -18.8835  -46.7189 H         1 UNK         0.0800 
    247 H247       -5.8412  -17.4930  -47.2669 H         1 UNK         0.0800 
@<TRIPOS>BOND
     1    1    2 1    
     2    1  127 1    
     3    1  128 1    
     4    1  129 1    
     5    2    3 2    
     6    2    4 am   BACKBONE|DICT|INTERRES
     7    4    5 1    
     8    4  130 1    
     9    5    6 1    
    10    5   65 1    
    11    5  131 1    
    12    6    7 1    
    13    6  132 1    
    14    6  133 1    
    15    7    8 1    
    16    8    9 1    
    17    8  134 1    
    18    8  135 1    
    19    9   10 ar   
    20    9   14 ar   
    21   10   11 ar   
    22   10  136 1    
    23   11   12 ar   
    24   11  126 1    
    25   12   13 ar   
    26   12  137 1    
    27   13   14 ar   
    28   13   15 1    
    29   14  138 1    
    30   15   16 1    
    31   15  139 1    
    32   15  140 1    
    33   16   17 1    
    34   17   18 1    
    35   17  141 1    
    36   17  142 1    
    37   18   19 1    
    38   18   67 1    
    39   18  143 1    
    40   19   20 am   BACKBONE|DICT|INTERRES
    41   19  144 1    
    42   20   21 2    
    43   20   22 1    
    44   22   23 1    
    45   22   24 1    
    46   22  145 1    
    47   23  146 1    
    48   23  147 1    
    49   23  148 1    
    50   24   25 am   BACKBONE|DICT|INTERRES
    51   24  149 1    
    52   25   26 2    
    53   25   27 1    
    54   27   28 1    
    55   27   29 1    
    56   27  150 1    
    57   28  151 1    
    58   28  152 1    
    59   28  153 1    
    60   29   30 am   BACKBONE|DICT|INTERRES
    61   29  154 1    
    62   30   31 2    
    63   30   32 1    
    64   32   33 1    
    65   32   34 1    
    66   32  155 1    
    67   33  156 1    
    68   33  157 1    
    69   33  158 1    
    70   34   35 am   BACKBONE|DICT|INTERRES
    71   34  159 1    
    72   35   36 2    
    73   35   37 1    
    74   37   38 1    
    75   37   39 1    
    76   37  160 1    
    77   38  161 1    
    78   38  162 1    
    79   38  163 1    
    80   39   40 am   BACKBONE|DICT|INTERRES
    81   39  164 1    
    82   40   41 2    
    83   40   42 1    
    84   42   43 1    
    85   42   44 1    
    86   42  165 1    
    87   43  166 1    
    88   43  167 1    
    89   43  168 1    
    90   44   45 am   BACKBONE|DICT|INTERRES
    91   44  169 1    
    92   45   46 2    
    93   45   47 1    
    94   47   48 1    
    95   47   49 1    
    96   47  170 1    
    97   48  171 1    
    98   48  172 1    
    99   48  173 1    
   100   49   50 am   BACKBONE|DICT|INTERRES
   101   49  174 1    
   102   50   51 2    
   103   50   52 1    
   104   52   53 1    
   105   52   54 1    
   106   52  175 1    
   107   53  176 1    
   108   53  177 1    
   109   53  178 1    
   110   54   55 am   BACKBONE|DICT|INTERRES
   111   54  179 1    
   112   55   56 2    
   113   55   57 1    
   114   57   58 1    
   115   57   59 1    
   116   57  180 1    
   117   58  181 1    
   118   58  182 1    
   119   58  183 1    
   120   59   60 am   BACKBONE|DICT|INTERRES
   121   59  184 1    
   122   60   61 2    
   123   60   62 1    
   124   62   63 1    
   125   62   64 1    
   126   62  185 1    
   127   63  186 1    
   128   63  187 1    
   129   63  188 1    
   130   64   65 am   BACKBONE|DICT|INTERRES
   131   64  189 1    
   132   65   66 2    
   133   67   68 2    
   134   67   69 am   BACKBONE|DICT|INTERRES
   135   69   70 1    
   136   69  190 1    
   137   70   71 1    
   138   70   72 1    
   139   70  191 1    
   140   71  192 1    
   141   71  193 1    
   142   71  194 1    
   143   72   73 2    
   144   72   74 am   BACKBONE|DICT|INTERRES
   145   74   75 1    
   146   74  195 1    
   147   75   76 1    
   148   75   77 1    
   149   75  196 1    
   150   76  197 1    
   151   76  198 1    
   152   76  199 1    
   153   77   78 2    
   154   77   79 am   BACKBONE|DICT|INTERRES
   155   79   80 1    
   156   79  200 1    
   157   80   81 1    
   158   80   82 1    
   159   80  201 1    
   160   81  202 1    
   161   81  203 1    
   162   81  204 1    
   163   82   83 2    
   164   82   84 am   BACKBONE|DICT|INTERRES
   165   84   85 1    
   166   84  205 1    
   167   85   86 1    
   168   85   87 1    
   169   85  206 1    
   170   86  207 1    
   171   86  208 1    
   172   86  209 1    
   173   87   88 2    
   174   87   89 am   BACKBONE|DICT|INTERRES
   175   89   90 1    
   176   89  210 1    
   177   90   91 1    
   178   90   92 1    
   179   90  211 1    
   180   91  212 1    
   181   91  213 1    
   182   91  214 1    
   183   92   93 2    
   184   92   94 am   BACKBONE|DICT|INTERRES
   185   94   95 1    
   186   94  215 1    
   187   95   96 1    
   188   95   97 1    
   189   95  216 1    
   190   96  217 1    
   191   96  218 1    
   192   96  219 1    
   193   97   98 2    
   194   97   99 am   BACKBONE|DICT|INTERRES
   195   99  100 1    
   196   99  220 1    
   197  100  101 1    
   198  100  102 1    
   199  100  221 1    
   200  101  222 1    
   201  101  223 1    
   202  101  224 1    
   203  102  103 2    
   204  102  104 am   BACKBONE|DICT|INTERRES
   205  104  105 1    
   206  104  225 1    
   207  105  106 1    
   208  105  107 1    
   209  105  226 1    
   210  106  227 1    
   211  106  228 1    
   212  106  229 1    
   213  107  108 2    
   214  107  109 am   BACKBONE|DICT|INTERRES
   215  109  110 1    
   216  109  230 1    
   217  110  111 1    
   218  110  112 1    
   219  110  231 1    
   220  111  232 1    
   221  111  233 1    
   222  111  234 1    
   223  112  113 2    
   224  112  114 am   BACKBONE|DICT|INTERRES
   225  114  115 1    
   226  114  235 1    
   227  115  116 1    
   228  115  117 1    
   229  115  236 1    
   230  116  237 1    
   231  116  238 1    
   232  116  239 1    
   233  117  118 2    
   234  117  119 am   BACKBONE|DICT|INTERRES
   235  119  120 1    
   236  119  240 1    
   237  120  121 1    
   238  120  124 1    
   239  120  241 1    
   240  121  122 am   BACKBONE|DICT|INTERRES
   241  121  123 2    
   242  122  242 1    
   243  122  243 1    
   244  124  125 1    
   245  124  244 1    
   246  124  245 1    
   247  125  126 1    
   248  126  246 1    
   249  126  247 1    
@<TRIPOS>SUBSTRUCTURE
     1 UNK         1 GROUP             0       ****    0 ROOT    
