@<TRIPOS>MOLECULE
3R540
247   249    1
SMALL
USER_CHARGES


@<TRIPOS>ATOM
      1 CA         -1.9897  -12.2896  -45.8118 C.3       0 UNK        -0.1800 
      2 C          -0.8833  -12.0399  -46.8248 C.2       0 UNK         0.5000 
      3 O          -1.0482  -11.2063  -47.7167 O.2       0 UNK        -0.5000 
      4 N           0.2493  -12.7416  -46.6907 N.am      1 UNK        -0.5000 
      5 CA          1.4399  -12.5853  -47.5318 C.3       1 UNK         0.1400 
      6 C6          2.2777  -13.8861  -47.5929 C.3       23 UNK        -0.0398 
      7 S7          1.3563  -15.2754  -48.3342 S.3       23 UNK        -0.2404 
      8 C8          2.2791  -15.5187  -49.8815 C.3       23 UNK        -0.0205 
      9 C9          1.7083  -16.6736  -50.6888 C.ar      23 UNK        -0.0193 
     10 C10         0.9583  -16.4339  -51.8434 C.ar      23 UNK        -0.1150 
     11 C11         0.4462  -17.4979  -52.5927 C.ar      23 UNK        -0.0193 
     12 C12         0.6774  -18.8112  -52.1677 C.ar      23 UNK        -0.1150 
     13 C13         1.4341  -19.0656  -51.0182 C.ar      23 UNK        -0.0193 
     14 C14         1.9519  -17.9898  -50.2899 C.ar      23 UNK        -0.1150 
     15 C15         1.7411  -20.4999  -50.5993 C.3       23 UNK        -0.0205 
     16 S16         1.4293  -20.8205  -48.8309 S.3       23 UNK        -0.2404 
     17 C17        -0.3901  -20.7394  -48.7447 C.3       23 UNK        -0.0398 
     18 CA         -0.9653  -21.9036  -47.9022 C.3       11 UNK         0.1400 
     19 N          -0.6703  -21.7604  -46.4747 N.am      11 UNK        -0.5000 
     20 C          -0.7878  -22.7408  -45.5697 C.2       10 UNK         0.5000 
     21 O          -1.1482  -23.8865  -45.8439 O.2       10 UNK        -0.5000 
     22 CA         -0.5179  -22.3569  -44.1033 C.3       10 UNK         0.1400 
     23 CB          0.9905  -22.3026  -43.8201 C.3       10 UNK        -0.1800 
     24 N          -1.1383  -21.0827  -43.7301 N.am      10 UNK        -0.5000 
     25 C          -2.4598  -20.8553  -43.7366 C.2       9 UNK         0.5000 
     26 O          -3.2934  -21.7099  -44.0341 O.2       9 UNK        -0.5000 
     27 CA         -2.9318  -19.4262  -43.4142 C.3       9 UNK         0.1400 
     28 CB         -2.8689  -19.1507  -41.9048 C.3       9 UNK        -0.1800 
     29 N          -2.1715  -18.4083  -44.1385 N.am      9 UNK        -0.5000 
     30 C          -2.1498  -18.2839  -45.4738 C.2       8 UNK         0.5000 
     31 O          -2.8146  -18.9808  -46.2377 O.2       8 UNK        -0.5000 
     32 CA         -1.1867  -17.2371  -46.0593 C.3       8 UNK         0.1400 
     33 CB         -1.8201  -15.8412  -46.0367 C.3       8 UNK        -0.1800 
     34 N           0.1028  -17.2103  -45.3683 N.am      8 UNK        -0.5000 
     35 C           0.9557  -18.2443  -45.3387 C.2       7 UNK         0.5000 
     36 O           0.7534  -19.3172  -45.9038 O.2       7 UNK        -0.5000 
     37 CA          2.2101  -18.0761  -44.4691 C.3       7 UNK         0.1400 
     38 CB          3.2608  -17.2110  -45.1799 C.3       7 UNK        -0.1800 
     39 N           1.8846  -17.5051  -43.1617 N.am      7 UNK        -0.5000 
     40 C           1.1702  -18.1440  -42.2226 C.2       6 UNK         0.5000 
     41 O           0.7535  -19.2954  -42.3468 O.2       6 UNK        -0.5000 
     42 CA          0.8311  -17.3539  -40.9455 C.3       6 UNK         0.1400 
     43 CB          1.9587  -17.4915  -39.9119 C.3       6 UNK        -0.1800 
     44 N           0.5781  -15.9348  -41.1980 N.am      6 UNK        -0.5000 
     45 C          -0.4411  -15.4542  -41.9254 C.2       5 UNK         0.5000 
     46 O          -1.2950  -16.1628  -42.4575 O.2       5 UNK        -0.5000 
     47 CA         -0.4798  -13.9275  -42.1297 C.3       5 UNK         0.1400 
     48 CB         -1.2542  -13.2448  -40.9937 C.3       5 UNK        -0.1800 
     49 N           0.8586  -13.3401  -42.2285 N.am      5 UNK        -0.5000 
     50 C           1.7255  -13.5934  -43.2160 C.2       4 UNK         0.5000 
     51 O           1.4384  -14.2549  -44.2170 O.2       4 UNK        -0.5000 
     52 CA          3.1418  -13.0222  -43.0235 C.3       4 UNK         0.1400 
     53 CB          4.2030  -13.7429  -43.8710 C.3       4 UNK        -0.1800 
     54 N           3.1783  -11.5894  -43.3072 N.am      4 UNK        -0.5000 
     55 C           2.8630  -10.6342  -42.4201 C.2       3 UNK         0.5000 
     56 O           2.4611  -10.8796  -41.2812 O.2       3 UNK        -0.5000 
     57 CA          3.0378   -9.1636  -42.8517 C.3       3 UNK         0.1400 
     58 CB          4.3531   -8.5972  -42.2949 C.3       3 UNK        -0.1800 
     59 N           3.0226   -8.9776  -44.3027 N.am      3 UNK        -0.5000 
     60 C           1.9179   -9.0168  -45.0565 C.2       2 UNK         0.5000 
     61 O           0.7844   -9.1631  -44.5957 O.2       2 UNK        -0.5000 
     62 CA          2.0942   -8.9146  -46.5855 C.3       2 UNK         0.1400 
     63 CB          3.5010   -8.4697  -47.0479 C.3       2 UNK        -0.1800 
     64 N           1.7013  -10.1784  -47.2112 N.am      2 UNK        -0.5000 
     65 C           2.2477  -11.3846  -47.0001 C.2       1 UNK         0.5000 
     66 O           3.2813  -11.5648  -46.3536 O.2       1 UNK        -0.5000 
     67 C          -2.4642  -22.1128  -48.1970 C.2       11 UNK         0.5000 
     68 O          -2.7811  -22.5755  -49.2898 O.2       11 UNK        -0.5000 
     69 N          -3.3577  -21.7662  -47.2617 N.am      12 UNK        -0.5000 
     70 CA         -4.7920  -22.0323  -47.3547 C.3       12 UNK         0.1400 
     71 CB         -5.5724  -20.9259  -46.6274 C.3       12 UNK        -0.1800 
     72 C          -5.1386  -23.4129  -46.7755 C.2       12 UNK         0.5000 
     73 O          -5.9361  -24.1371  -47.3707 O.2       12 UNK        -0.5000 
     74 N          -4.5427  -23.7464  -45.6225 N.am      13 UNK        -0.5000 
     75 CA         -4.7763  -24.9895  -44.8878 C.3       13 UNK         0.1400 
     76 CB         -4.1714  -24.8607  -43.4813 C.3       13 UNK        -0.1800 
     77 C          -4.2229  -26.2400  -45.5938 C.2       13 UNK         0.5000 
     78 O          -4.8264  -27.3087  -45.4840 O.2       13 UNK        -0.5000 
     79 N          -3.0901  -26.0913  -46.2881 N.am      14 UNK        -0.5000 
     80 CA         -2.3979  -27.1588  -47.0009 C.3       14 UNK         0.1400 
     81 CB         -1.2451  -27.6856  -46.1205 C.3       14 UNK        -0.1800 
     82 C          -1.9663  -26.6425  -48.3843 C.2       14 UNK         0.5000 
     83 O          -2.7976  -26.0718  -49.0941 O.2       14 UNK        -0.5000 
     84 N          -0.6944  -26.8715  -48.7468 N.am      15 UNK        -0.5000 
     85 CA         -0.0170  -26.4409  -49.9748 C.3       15 UNK         0.1400 
     86 CB          0.2181  -24.9196  -49.9460 C.3       15 UNK        -0.1800 
     87 C          -0.7317  -26.9129  -51.2561 C.2       15 UNK         0.5000 
     88 O          -1.1045  -26.0950  -52.0962 O.2       15 UNK        -0.5000 
     89 N          -0.9241  -28.2357  -51.3641 N.am      16 UNK        -0.5000 
     90 CA         -1.5720  -28.9301  -52.4852 C.3       16 UNK         0.1400 
     91 CB         -0.7079  -28.8357  -53.7612 C.3       16 UNK        -0.1800 
     92 C          -3.0327  -28.4781  -52.7042 C.2       16 UNK         0.5000 
     93 O          -3.4530  -28.2574  -53.8413 O.2       16 UNK        -0.5000 
     94 N          -3.7676  -28.3672  -51.5886 N.am      17 UNK        -0.5000 
     95 CA         -5.1714  -27.9697  -51.4743 C.3       17 UNK         0.1400 
     96 CB         -6.0981  -28.9570  -52.2168 C.3       17 UNK        -0.1800 
     97 C          -5.4080  -26.4983  -51.8690 C.2       17 UNK         0.5000 
     98 O          -6.0291  -26.2192  -52.8963 O.2       17 UNK        -0.5000 
     99 N          -4.9424  -25.5946  -50.9978 N.am      18 UNK        -0.5000 
    100 CA        -5.2211  -24.1586  -50.9711 C.3       18 UNK         0.1400 
    101 CB        -6.7346  -23.8738  -50.8559 C.3       18 UNK        -0.1800 
    102 C         -4.5434  -23.3744  -52.1104 C.2       18 UNK         0.5000 
    103 O         -5.2220  -22.7695  -52.9427 O.2       18 UNK        -0.5000 
    104 N         -3.2043  -23.3361  -52.0878 N.am      19 UNK        -0.5000 
    105 CA        -2.3772  -22.4605  -52.9282 C.3       19 UNK         0.1400 
    106 CB        -0.8925  -22.7831  -52.7129 C.3       19 UNK        -0.1800 
    107 C         -2.6145  -20.9547  -52.6900 C.2       19 UNK         0.5000 
    108 O         -2.3297  -20.1601  -53.5846 O.2       19 UNK        -0.5000 
    109 N         -3.1486  -20.5908  -51.5123 N.am      20 UNK        -0.5000 
    110 CA        -3.5544  -19.2284  -51.1464 C.3       20 UNK         0.1400 
    111 CB        -3.9363  -19.1832  -49.6614 C.3       20 UNK        -0.1800 
    112 C         -4.6957  -18.6466  -52.0078 C.2       20 UNK         0.5000 
    113 O         -4.9014  -17.4322  -51.9877 O.2       20 UNK        -0.5000 
    114 N         -5.3899  -19.4867  -52.7897 N.am      21 UNK        -0.5000 
    115 CA        -6.2361  -19.0681  -53.9089 C.3       21 UNK         0.1400 
    116 CB        -7.2652  -20.1751  -54.1985 C.3       21 UNK        -0.1800 
    117 C         -5.3462  -18.7366  -55.1285 C.2       21 UNK         0.5000 
    118 O         -5.3852  -19.4399  -56.1400 O.2       21 UNK        -0.5000 
    119 N         -4.5043  -17.7095  -54.9630 N.am      22 UNK        -0.5000 
    120 CA        -3.4184  -17.3097  -55.8673 C.3       22 UNK         0.1400 
    121 C         -3.9094  -16.9014  -57.2842 C.2       22 UNK         0.5000 
    122 N         -3.1813  -17.2678  -58.3303 N.am      22 UNK        -0.7600 
    123 O         -4.9171  -16.2146  -57.4398 O.2       22 UNK        -0.5000 
    124 C124       -2.5565  -16.1747  -55.2518 C.3       23 UNK        -0.0398 
    125 S125       -1.9610  -16.5228  -53.5578 S.3       23 UNK        -0.2404 
    126 C126       -0.3153  -17.2219  -53.8827 C.3       23 UNK        -0.0205 
    127 H127       -2.2208  -11.3700  -45.2741 H         1 UNK         0.0600 
    128 H128       -1.7034  -13.0453  -45.0840 H         1 UNK         0.0600 
    129 H129       -2.8934  -12.6298  -46.3176 H         1 UNK         0.0600 
    130 H130        0.3623  -13.3817  -45.9133 H         1 UNK         0.3000 
    131 H131        1.1340  -12.3472  -48.5530 H         1 UNK         0.0600 
    132 H132        3.1989  -13.7202  -48.1539 H         1 UNK         0.0800 
    133 H133        2.5851  -14.1913  -46.5946 H         1 UNK         0.0800 
    134 H134        3.3266  -15.7213  -49.6529 H         1 UNK         0.0800 
    135 H135        2.2586  -14.5959  -50.4634 H         1 UNK         0.0800 
    136 H136        0.7777  -15.4184  -52.1674 H         1 UNK         0.1150 
    137 H137        0.2877  -19.6351  -52.7484 H         1 UNK         0.1150 
    138 H138        2.5448  -18.1756  -49.4051 H         1 UNK         0.1150 
    139 H139        1.1761  -21.2134  -51.1987 H         1 UNK         0.0800 
    140 H140        2.7938  -20.6974  -50.8045 H         1 UNK         0.0800 
    141 H141       -0.7810  -20.7628  -49.7634 H         1 UNK         0.0800 
    142 H142       -0.6831  -19.7746  -48.3279 H         1 UNK         0.0800 
    143 H143       -0.4762  -22.8200  -48.2293 H         1 UNK         0.0600 
    144 H144       -0.3118  -20.8547  -46.1794 H         1 UNK         0.3000 
    145 H145       -0.9529  -23.1351  -43.4728 H         1 UNK         0.0600 
    146 H146        1.1858  -22.1160  -42.7640 H         1 UNK         0.0600 
    147 H147        1.4711  -23.2469  -44.0787 H         1 UNK         0.0600 
    148 H148        1.4808  -21.5156  -44.3938 H         1 UNK         0.0600 
    149 H149       -0.5097  -20.3370  -43.4457 H         1 UNK         0.3000 
    150 H150       -3.9744  -19.3438  -43.7281 H         1 UNK         0.0600 
    151 H151       -3.4678  -19.8751  -41.3517 H         1 UNK         0.0600 
    152 H152       -3.2563  -18.1594  -41.6686 H         1 UNK         0.0600 
    153 H153       -1.8495  -19.2102  -41.5248 H         1 UNK         0.0600 
    154 H154       -1.6391  -17.7494  -43.5787 H         1 UNK         0.3000 
    155 H155       -0.9994  -17.5057  -47.1013 H         1 UNK         0.0600 
    156 H156       -2.7886  -15.8425  -46.5383 H         1 UNK         0.0600 
    157 H157       -1.1890  -15.1239  -46.5579 H         1 UNK         0.0600 
    158 H158       -1.9761  -15.4841  -45.0188 H         1 UNK         0.0600 
    159 H159        0.3426  -16.3652  -44.8683 H         1 UNK         0.3000 
    160 H160        2.6412  -19.0670  -44.3099 H         1 UNK         0.0600 
    161 H161        4.1809  -17.1499  -44.5991 H         1 UNK         0.0600 
    162 H162        2.9005  -16.1975  -45.3510 H         1 UNK         0.0600 
    163 H163        3.5173  -17.6326  -46.1528 H         1 UNK         0.0600 
    164 H164        2.1558  -16.5472  -43.0002 H         1 UNK         0.3000 
    165 H165       -0.0767  -17.7856  -40.5195 H         1 UNK         0.0600 
    166 H166        1.6948  -17.0046  -38.9729 H         1 UNK         0.0600 
    167 H167        2.1561  -18.5407  -39.6878 H         1 UNK         0.0600 
    168 H168        2.8904  -17.0512  -40.2693 H         1 UNK         0.0600 
    169 H169        1.2289  -15.2784  -40.7933 H         1 UNK         0.3000 
    170 H170       -1.0068  -13.7358  -43.0638 H         1 UNK         0.0600 
    171 H171       -2.2632  -13.6509  -40.9103 H         1 UNK         0.0600 
    172 H172       -0.7630  -13.3834  -40.0297 H         1 UNK         0.0600 
    173 H173       -1.3495  -12.1734  -41.1711 H         1 UNK         0.0600 
    174 H174        1.1530  -12.7296  -41.4761 H         1 UNK         0.3000 
    175 H175        3.4179  -13.1860  -41.9795 H         1 UNK         0.0600 
    176 H176        4.0283  -13.6265  -44.9383 H         1 UNK         0.0600 
    177 H177        5.2006  -13.3596  -43.6566 H         1 UNK         0.0600 
    178 H178        4.2148  -14.8106  -43.6523 H         1 UNK         0.0600 
    179 H179        3.4278  -11.3275  -44.2546 H         1 UNK         0.3000 
    180 H180        2.2133   -8.5940  -42.4175 H         1 UNK         0.0600 
    181 H181        5.2203   -9.1216  -42.6985 H         1 UNK         0.0600 
    182 H182        4.3900   -8.6898  -41.2085 H         1 UNK         0.0600 
    183 H183        4.4592   -7.5386  -42.5327 H         1 UNK         0.0600 
    184 H184        3.9176   -8.8786  -44.7598 H         1 UNK         0.3000 
    185 H185        1.3818   -8.1624  -46.9273 H         1 UNK         0.0600 
    186 H186        3.7603   -7.4972  -46.6277 H         1 UNK         0.0600 
    187 H187        4.2826   -9.1734  -46.7614 H         1 UNK         0.0600 
    188 H188        3.5359   -8.3677  -48.1326 H         1 UNK         0.0600 
    189 H189        0.7973  -10.1685  -47.6713 H         1 UNK         0.3000 
    190 H190       -3.0302  -21.3209  -46.4143 H         1 UNK         0.3000 
    191 H191       -5.1020  -22.0213  -48.4012 H         1 UNK         0.0600 
    192 H192       -5.3320  -20.8880  -45.5650 H         1 UNK         0.0600 
    193 H193       -6.6475  -21.0864  -46.7148 H         1 UNK         0.0600 
    194 H194       -5.3546  -19.9450  -47.0495 H         1 UNK         0.0600 
    195 H195       -3.9415  -23.0640  -45.1681 H         1 UNK         0.3000 
    196 H196       -5.8553  -25.1200  -44.7830 H         1 UNK         0.0600 
    197 H197       -4.3409  -25.7656  -42.8964 H         1 UNK         0.0600 
    198 H198       -4.6192  -24.0309  -42.9341 H         1 UNK         0.0600 
    199 H199       -3.0946  -24.6912  -43.5229 H         1 UNK         0.0600 
    200 H200       -2.6452  -25.1787  -46.3182 H         1 UNK         0.3000 
    201 H201       -3.0833  -27.9860  -47.1951 H         1 UNK         0.0600 
    202 H202       -1.6212  -28.0367  -45.1593 H         1 UNK         0.0600 
    203 H203       -0.5047  -26.9100  -45.9182 H         1 UNK         0.0600 
    204 H204       -0.7368  -28.5302  -46.5869 H         1 UNK         0.0600 
    205 H205       -0.1111  -27.3680  -48.0880 H         1 UNK         0.3000 
    206 H206        0.9626  -26.9210  -49.9763 H         1 UNK         0.0600 
    207 H207        0.7773  -24.6264  -49.0578 H         1 UNK         0.0600 
    208 H208        0.7954  -24.5955  -50.8125 H         1 UNK         0.0600 
    209 H209       -0.7248  -24.3734  -49.9530 H         1 UNK         0.0600 
    210 H210       -0.6007  -28.8254  -50.6099 H         1 UNK         0.3000 
    211 H211       -1.6221  -29.9835  -52.2056 H         1 UNK         0.0600 
    212 H212       -0.6505  -27.8144  -54.1391 H         1 UNK         0.0600 
    213 H213       -1.1201  -29.4554  -54.5583 H         1 UNK         0.0600 
    214 H214        0.3087  -29.1821  -53.5755 H         1 UNK         0.0600 
    215 H215       -3.2955  -28.5330  -50.7117 H         1 UNK         0.3000 
    216 H216       -5.4187  -28.0469  -50.4141 H         1 UNK         0.0600 
    217 H217       -7.1454  -28.7123  -52.0368 H         1 UNK         0.0600 
    218 H218       -5.9403  -29.9795  -51.8738 H         1 UNK         0.0600 
    219 H219       -5.9435  -28.9378  -53.2957 H         1 UNK         0.0600 
    220 H220       -4.3379  -25.9153  -50.2447 H         1 UNK         0.3000 
    221 H221       -4.7806  -23.8076  -50.0413 H         1 UNK         0.0600 
    222 H222       -7.2801  -24.1707  -51.7518 H         1 UNK         0.0600 
    223 H223       -7.1702  -24.3993  -50.0060 H         1 UNK         0.0600 
    224 H224       -6.9158  -22.8090  -50.7044 H         1 UNK         0.0600 
    225 H225       -2.7238  -23.8412  -51.3543 H         1 UNK         0.3000 
    226 H226       -2.6256  -22.6667  -53.9711 H         1 UNK         0.0600 
    227 H227       -0.2541  -22.1032  -53.2786 H         1 UNK         0.0600 
    228 H228       -0.6172  -22.6959  -51.6626 H         1 UNK         0.0600 
    229 H229       -0.6535  -23.7899  -53.0493 H         1 UNK         0.0600 
    230 H230       -3.2943  -21.3155  -50.8177 H         1 UNK         0.3000 
    231 H231       -2.6876  -18.5802  -51.2912 H         1 UNK         0.0600 
    232 H232       -3.0867  -19.4256  -49.0261 H         1 UNK         0.0600 
    233 H233       -4.7452  -19.8778  -49.4384 H         1 UNK         0.0600 
    234 H234       -4.2707  -18.1871  -49.3687 H         1 UNK         0.0600 
    235 H235       -5.1528  -20.4705  -52.7646 H         1 UNK         0.3000 
    236 H236       -6.7854  -18.1642  -53.6373 H         1 UNK         0.0600 
    237 H237       -7.8845  -20.3756  -53.3241 H         1 UNK         0.0600 
    238 H238       -7.9322  -19.8840  -55.0107 H         1 UNK         0.0600 
    239 H239       -6.7834  -21.1099  -54.4872 H         1 UNK         0.0600 
    240 H240       -4.5274  -17.2248  -54.0737 H         1 UNK         0.3000 
    241 H241       -2.7788  -18.1879  -55.9762 H         1 UNK         0.0600 
    242 H242       -3.4802  -16.9952  -59.2542 H         1 UNK         0.3800 
    243 H243       -2.3472  -17.8253  -58.2273 H         1 UNK         0.3800 
    244 H244       -1.6994  -15.9578  -55.8917 H         1 UNK         0.0800 
    245 H245       -3.1353  -15.2503  -55.2062 H         1 UNK         0.0800 
    246 H246        0.2618  -16.5287  -54.4964 H         1 UNK         0.0800 
    247 H247       -0.4276  -18.1371  -54.4663 H         1 UNK         0.0800 
@<TRIPOS>BOND
     1    1    2 1    
     2    1  127 1    
     3    1  128 1    
     4    1  129 1    
     5    2    3 2    
     6    2    4 am   BACKBONE|DICT|INTERRES
     7    4    5 1    
     8    4  130 1    
     9    5    6 1    
    10    5   65 1    
    11    5  131 1    
    12    6    7 1    
    13    6  132 1    
    14    6  133 1    
    15    7    8 1    
    16    8    9 1    
    17    8  134 1    
    18    8  135 1    
    19    9   10 ar   
    20    9   14 ar   
    21   10   11 ar   
    22   10  136 1    
    23   11   12 ar   
    24   11  126 1    
    25   12   13 ar   
    26   12  137 1    
    27   13   14 ar   
    28   13   15 1    
    29   14  138 1    
    30   15   16 1    
    31   15  139 1    
    32   15  140 1    
    33   16   17 1    
    34   17   18 1    
    35   17  141 1    
    36   17  142 1    
    37   18   19 1    
    38   18   67 1    
    39   18  143 1    
    40   19   20 am   BACKBONE|DICT|INTERRES
    41   19  144 1    
    42   20   21 2    
    43   20   22 1    
    44   22   23 1    
    45   22   24 1    
    46   22  145 1    
    47   23  146 1    
    48   23  147 1    
    49   23  148 1    
    50   24   25 am   BACKBONE|DICT|INTERRES
    51   24  149 1    
    52   25   26 2    
    53   25   27 1    
    54   27   28 1    
    55   27   29 1    
    56   27  150 1    
    57   28  151 1    
    58   28  152 1    
    59   28  153 1    
    60   29   30 am   BACKBONE|DICT|INTERRES
    61   29  154 1    
    62   30   31 2    
    63   30   32 1    
    64   32   33 1    
    65   32   34 1    
    66   32  155 1    
    67   33  156 1    
    68   33  157 1    
    69   33  158 1    
    70   34   35 am   BACKBONE|DICT|INTERRES
    71   34  159 1    
    72   35   36 2    
    73   35   37 1    
    74   37   38 1    
    75   37   39 1    
    76   37  160 1    
    77   38  161 1    
    78   38  162 1    
    79   38  163 1    
    80   39   40 am   BACKBONE|DICT|INTERRES
    81   39  164 1    
    82   40   41 2    
    83   40   42 1    
    84   42   43 1    
    85   42   44 1    
    86   42  165 1    
    87   43  166 1    
    88   43  167 1    
    89   43  168 1    
    90   44   45 am   BACKBONE|DICT|INTERRES
    91   44  169 1    
    92   45   46 2    
    93   45   47 1    
    94   47   48 1    
    95   47   49 1    
    96   47  170 1    
    97   48  171 1    
    98   48  172 1    
    99   48  173 1    
   100   49   50 am   BACKBONE|DICT|INTERRES
   101   49  174 1    
   102   50   51 2    
   103   50   52 1    
   104   52   53 1    
   105   52   54 1    
   106   52  175 1    
   107   53  176 1    
   108   53  177 1    
   109   53  178 1    
   110   54   55 am   BACKBONE|DICT|INTERRES
   111   54  179 1    
   112   55   56 2    
   113   55   57 1    
   114   57   58 1    
   115   57   59 1    
   116   57  180 1    
   117   58  181 1    
   118   58  182 1    
   119   58  183 1    
   120   59   60 am   BACKBONE|DICT|INTERRES
   121   59  184 1    
   122   60   61 2    
   123   60   62 1    
   124   62   63 1    
   125   62   64 1    
   126   62  185 1    
   127   63  186 1    
   128   63  187 1    
   129   63  188 1    
   130   64   65 am   BACKBONE|DICT|INTERRES
   131   64  189 1    
   132   65   66 2    
   133   67   68 2    
   134   67   69 am   BACKBONE|DICT|INTERRES
   135   69   70 1    
   136   69  190 1    
   137   70   71 1    
   138   70   72 1    
   139   70  191 1    
   140   71  192 1    
   141   71  193 1    
   142   71  194 1    
   143   72   73 2    
   144   72   74 am   BACKBONE|DICT|INTERRES
   145   74   75 1    
   146   74  195 1    
   147   75   76 1    
   148   75   77 1    
   149   75  196 1    
   150   76  197 1    
   151   76  198 1    
   152   76  199 1    
   153   77   78 2    
   154   77   79 am   BACKBONE|DICT|INTERRES
   155   79   80 1    
   156   79  200 1    
   157   80   81 1    
   158   80   82 1    
   159   80  201 1    
   160   81  202 1    
   161   81  203 1    
   162   81  204 1    
   163   82   83 2    
   164   82   84 am   BACKBONE|DICT|INTERRES
   165   84   85 1    
   166   84  205 1    
   167   85   86 1    
   168   85   87 1    
   169   85  206 1    
   170   86  207 1    
   171   86  208 1    
   172   86  209 1    
   173   87   88 2    
   174   87   89 am   BACKBONE|DICT|INTERRES
   175   89   90 1    
   176   89  210 1    
   177   90   91 1    
   178   90   92 1    
   179   90  211 1    
   180   91  212 1    
   181   91  213 1    
   182   91  214 1    
   183   92   93 2    
   184   92   94 am   BACKBONE|DICT|INTERRES
   185   94   95 1    
   186   94  215 1    
   187   95   96 1    
   188   95   97 1    
   189   95  216 1    
   190   96  217 1    
   191   96  218 1    
   192   96  219 1    
   193   97   98 2    
   194   97   99 am   BACKBONE|DICT|INTERRES
   195   99  100 1    
   196   99  220 1    
   197  100  101 1    
   198  100  102 1    
   199  100  221 1    
   200  101  222 1    
   201  101  223 1    
   202  101  224 1    
   203  102  103 2    
   204  102  104 am   BACKBONE|DICT|INTERRES
   205  104  105 1    
   206  104  225 1    
   207  105  106 1    
   208  105  107 1    
   209  105  226 1    
   210  106  227 1    
   211  106  228 1    
   212  106  229 1    
   213  107  108 2    
   214  107  109 am   BACKBONE|DICT|INTERRES
   215  109  110 1    
   216  109  230 1    
   217  110  111 1    
   218  110  112 1    
   219  110  231 1    
   220  111  232 1    
   221  111  233 1    
   222  111  234 1    
   223  112  113 2    
   224  112  114 am   BACKBONE|DICT|INTERRES
   225  114  115 1    
   226  114  235 1    
   227  115  116 1    
   228  115  117 1    
   229  115  236 1    
   230  116  237 1    
   231  116  238 1    
   232  116  239 1    
   233  117  118 2    
   234  117  119 am   BACKBONE|DICT|INTERRES
   235  119  120 1    
   236  119  240 1    
   237  120  121 1    
   238  120  124 1    
   239  120  241 1    
   240  121  122 am   BACKBONE|DICT|INTERRES
   241  121  123 2    
   242  122  242 1    
   243  122  243 1    
   244  124  125 1    
   245  124  244 1    
   246  124  245 1    
   247  125  126 1    
   248  126  246 1    
   249  126  247 1    
@<TRIPOS>SUBSTRUCTURE
     1 UNK         1 GROUP             0       ****    0 ROOT    
