@<TRIPOS>MOLECULE
3R540
247   249    1
SMALL
USER_CHARGES


@<TRIPOS>ATOM
      1 CA          0.2023  -10.1059  -46.2236 C.3       0 UNK        -0.1800 
      2 C           1.6083  -10.6785  -46.3325 C.2       0 UNK         0.5000 
      3 O           2.3570  -10.6498  -45.3546 O.2       0 UNK        -0.5000 
      4 N           1.9672  -11.1908  -47.5187 N.am      1 UNK        -0.5000 
      5 CA          3.2695  -11.7820  -47.8548 C.3       1 UNK         0.1400 
      6 C6          3.5005  -13.1601  -47.1698 C.3       23 UNK        -0.0398 
      7 S7          2.3333  -14.4285  -47.7613 S.3       23 UNK        -0.2404 
      8 C8          3.3244  -15.1684  -49.0942 C.3       23 UNK        -0.0205 
      9 C9          2.6256  -16.3555  -49.7360 C.ar      23 UNK        -0.0193 
     10 C10         1.5517  -16.1538  -50.6063 C.ar      23 UNK        -0.1150 
     11 C11         0.9241  -17.2371  -51.2313 C.ar      23 UNK        -0.0193 
     12 C12         1.4004  -18.5316  -50.9936 C.ar      23 UNK        -0.1150 
     13 C13         2.4897  -18.7440  -50.1409 C.ar      23 UNK        -0.0193 
     14 C14         3.0854  -17.6536  -49.5021 C.ar      23 UNK        -0.1150 
     15 C15         3.0705  -20.1385  -49.9508 C.3       23 UNK        -0.0205 
     16 S16         2.4913  -20.9280  -48.4189 S.3       23 UNK        -0.2404 
     17 C17         0.7896  -21.3588  -48.8937 C.3       23 UNK        -0.0398 
     18 CA          0.1503  -22.3994  -47.9473 C.3       11 UNK         0.1400 
     19 N          -0.0425  -21.8972  -46.5821 N.am      11 UNK        -0.5000 
     20 C          -0.4584  -22.6486  -45.5516 C.2       10 UNK         0.5000 
     21 O          -0.6646  -23.8597  -45.6281 O.2       10 UNK        -0.5000 
     22 CA         -0.7480  -21.9247  -44.2251 C.3       10 UNK         0.1400 
     23 CB          0.5452  -21.6897  -43.4309 C.3       10 UNK        -0.1800 
     24 N          -1.4581  -20.6601  -44.4191 N.am      10 UNK        -0.5000 
     25 C          -2.6947  -20.5587  -44.9284 C.2       9 UNK         0.5000 
     26 O          -3.3864  -21.5283  -45.2353 O.2       9 UNK        -0.5000 
     27 CA         -3.2374  -19.1411  -45.1846 C.3       9 UNK         0.1400 
     28 CB         -3.8051  -18.5321  -43.8951 C.3       9 UNK        -0.1800 
     29 N          -2.2333  -18.2446  -45.7568 N.am      9 UNK        -0.5000 
     30 C          -1.6340  -18.4332  -46.9415 C.2       8 UNK         0.5000 
     31 O          -1.8908  -19.3708  -47.6962 O.2       8 UNK        -0.5000 
     32 CA         -0.5296  -17.4313  -47.3199 C.3       8 UNK         0.1400 
     33 CB         -1.1437  -16.1384  -47.8771 C.3       8 UNK        -0.1800 
     34 N           0.3473  -17.1172  -46.1901 N.am      8 UNK        -0.5000 
     35 C           1.1290  -18.0095  -45.5660 C.2       7 UNK         0.5000 
     36 O           1.2146  -19.1919  -45.8939 O.2       7 UNK        -0.5000 
     37 CA          1.8853  -17.5118  -44.3203 C.3       7 UNK         0.1400 
     38 CB          3.0772  -16.6225  -44.7049 C.3       7 UNK        -0.1800 
     39 N           1.0097  -16.7871  -43.3986 N.am      7 UNK        -0.5000 
     40 C          -0.0102  -17.3483  -42.7296 C.2       6 UNK         0.5000 
     41 O          -0.2723  -18.5492  -42.7701 O.2       6 UNK        -0.5000 
     42 CA         -0.9213  -16.4118  -41.9108 C.3       6 UNK         0.1400 
     43 CB         -0.4082  -16.2907  -40.4684 C.3       6 UNK        -0.1800 
     44 N          -1.0434  -15.0735  -42.4864 N.am      6 UNK        -0.5000 
     45 C          -1.4745  -14.7887  -43.7234 C.2       5 UNK         0.5000 
     46 O          -1.9368  -15.6326  -44.4906 O.2       5 UNK        -0.5000 
     47 CA         -1.3227  -13.3299  -44.2022 C.3       5 UNK         0.1400 
     48 CB         -2.6979  -12.6578  -44.3294 C.3       5 UNK        -0.1800 
     49 N          -0.4644  -12.5027  -43.3451 N.am      5 UNK        -0.5000 
     50 C           0.8496  -12.6834  -43.1552 C.2       4 UNK         0.5000 
     51 O           1.5024  -13.5964  -43.6704 O.2       4 UNK        -0.5000 
     52 CA          1.5215  -11.7206  -42.1695 C.3       4 UNK         0.1400 
     53 CB          1.2604  -12.1622  -40.7169 C.3       4 UNK        -0.1800 
     54 N           2.9530  -11.6981  -42.4358 N.am      4 UNK        -0.5000 
     55 C           3.7939  -10.7238  -42.0752 C.2       3 UNK         0.5000 
     56 O           3.4594   -9.7246  -41.4371 O.2       3 UNK        -0.5000 
     57 CA          5.2485  -10.8800  -42.5307 C.3       3 UNK         0.1400 
     58 CB          5.8371  -12.2578  -42.1625 C.3       3 UNK        -0.1800 
     59 N           5.3248  -10.6517  -43.9705 N.am      3 UNK        -0.5000 
     60 C           6.4340  -10.2813  -44.6267 C.2       2 UNK         0.5000 
     61 O           7.5142  -10.0786  -44.0692 O.2       2 UNK        -0.5000 
     62 CA          6.3246  -10.1383  -46.1575 C.3       2 UNK         0.1400 
     63 CB          7.6569  -10.4025  -46.8840 C.3       2 UNK        -0.1800 
     64 N           5.3023  -11.0484  -46.6674 N.am      2 UNK        -0.5000 
     65 C           4.4012  -10.7550  -47.6105 C.2       1 UNK         0.5000 
     66 O           4.4102   -9.7073  -48.2606 O.2       1 UNK        -0.5000 
     67 C          -1.1657  -22.9273  -48.5508 C.2       11 UNK         0.5000 
     68 O          -1.1812  -24.0358  -49.0862 O.2       11 UNK        -0.5000 
     69 N          -2.2477  -22.1463  -48.4220 N.am      12 UNK        -0.5000 
     70 CA         -3.5908  -22.5117  -48.8711 C.3       12 UNK         0.1400 
     71 CB         -4.5409  -21.3216  -48.6777 C.3       12 UNK        -0.1800 
     72 C          -4.1307  -23.7646  -48.1597 C.2       12 UNK         0.5000 
     73 O          -4.6859  -24.6397  -48.8218 O.2       12 UNK        -0.5000 
     74 N          -3.9257  -23.8492  -46.8373 N.am      13 UNK        -0.5000 
     75 CA         -4.2913  -24.9977  -46.0084 C.3       13 UNK         0.1400 
     76 CB         -4.0986  -24.6529  -44.5243 C.3       13 UNK        -0.1800 
     77 C          -3.5134  -26.2722  -46.3796 C.2       13 UNK         0.5000 
     78 O          -4.1247  -27.3333  -46.5059 O.2       13 UNK        -0.5000 
     79 N          -2.1955  -26.1448  -46.5945 N.am      14 UNK        -0.5000 
     80 CA         -1.3160  -27.2310  -47.0391 C.3       14 UNK         0.1400 
     81 CB          0.1449  -26.7582  -46.9995 C.3       14 UNK        -0.1800 
     82 C          -1.6784  -27.7626  -48.4394 C.2       14 UNK         0.5000 
     83 O          -1.5947  -28.9678  -48.6769 O.2       14 UNK        -0.5000 
     84 N          -2.1161  -26.8574  -49.3226 N.am      15 UNK        -0.5000 
     85 CA         -2.6315  -27.1537  -50.6588 C.3       15 UNK         0.1400 
     86 CB         -2.4301  -25.9089  -51.5343 C.3       15 UNK        -0.1800 
     87 C          -4.1115  -27.5966  -50.6681 C.2       15 UNK         0.5000 
     88 O          -4.6539  -27.8351  -51.7478 O.2       15 UNK        -0.5000 
     89 N          -4.7545  -27.6710  -49.4912 N.am      16 UNK        -0.5000 
     90 CA         -6.1567  -28.0432  -49.2585 C.3       16 UNK         0.1400 
     91 CB         -6.3651  -29.5439  -49.5476 C.3       16 UNK        -0.1800 
     92 C          -7.1670  -27.1446  -50.0072 C.2       16 UNK         0.5000 
     93 O          -8.2292  -27.6158  -50.4165 O.2       16 UNK        -0.5000 
     94 N          -6.7942  -25.8703  -50.1963 N.am      17 UNK        -0.5000 
     95 CA         -7.4844  -24.8170  -50.9470 C.3       17 UNK         0.1400 
     96 CB         -8.8275  -24.4588  -50.2795 C.3       17 UNK        -0.1800 
     97 C          -7.6343  -25.0902  -52.4614 C.2       17 UNK         0.5000 
     98 O          -8.3418  -24.3415  -53.1373 O.2       17 UNK        -0.5000 
     99 N          -6.9566  -26.1218  -52.9883 N.am      18 UNK        -0.5000 
    100 CA        -6.9337  -26.4542  -54.4163 C.3       18 UNK         0.1400 
    101 CB        -6.5662  -27.9367  -54.5817 C.3       18 UNK        -0.1800 
    102 C         -5.9587  -25.5621  -55.2095 C.2       18 UNK         0.5000 
    103 O         -6.0730  -25.4672  -56.4322 O.2       18 UNK        -0.5000 
    104 N         -5.0277  -24.9216  -54.4977 N.am      19 UNK        -0.5000 
    105 CA        -4.0487  -23.9628  -54.9852 C.3       19 UNK         0.1400 
    106 CB        -2.8388  -24.7091  -55.5783 C.3       19 UNK        -0.1800 
    107 C         -3.6440  -23.0673  -53.8036 C.2       19 UNK         0.5000 
    108 O         -4.0742  -23.3134  -52.6735 O.2       19 UNK        -0.5000 
    109 N         -2.8301  -22.0415  -54.0877 N.am      20 UNK        -0.5000 
    110 CA        -2.1906  -21.1210  -53.1342 C.3       20 UNK         0.1400 
    111 CB        -1.1951  -21.8815  -52.2358 C.3       20 UNK        -0.1800 
    112 C         -3.1503  -20.2385  -52.3051 C.2       20 UNK         0.5000 
    113 O         -2.6963  -19.5372  -51.4011 O.2       20 UNK        -0.5000 
    114 N         -4.4458  -20.2383  -52.6425 N.am      21 UNK        -0.5000 
    115 CA        -5.5010  -19.4505  -52.0053 C.3       21 UNK         0.1400 
    116 CB        -6.8469  -20.1634  -52.2291 C.3       21 UNK        -0.1800 
    117 C         -5.4958  -17.9907  -52.5055 C.2       21 UNK         0.5000 
    118 O         -6.4896  -17.5151  -53.0575 O.2       21 UNK        -0.5000 
    119 N         -4.3547  -17.3167  -52.3281 N.am      22 UNK        -0.5000 
    120 CA        -4.1057  -15.9275  -52.7408 C.3       22 UNK         0.1400 
    121 C         -4.7504  -14.8382  -51.8314 C.2       22 UNK         0.5000 
    122 N         -5.3149  -15.1780  -50.6787 N.am      22 UNK        -0.7600 
    123 O         -4.7541  -13.6632  -52.1888 O.2       22 UNK        -0.5000 
    124 C124       -2.5952  -15.6717  -52.9839 C.3       23 UNK        -0.0398 
    125 S125       -1.5457  -15.9666  -51.5162 S.3       23 UNK        -0.2404 
    126 C126       -0.2197  -17.0042  -52.2132 C.3       23 UNK        -0.0205 
    127 H127        0.2497   -9.0354  -46.0246 H         1 UNK         0.0600 
    128 H128       -0.3702  -10.2585  -47.1388 H         1 UNK         0.0600 
    129 H129       -0.3359  -10.5805  -45.4047 H         1 UNK         0.0600 
    130 H130        1.3068  -11.1591  -48.2820 H         1 UNK         0.3000 
    131 H131        3.2607  -11.9476  -48.9332 H         1 UNK         0.0600 
    132 H132        4.5139  -13.5234  -47.3474 H         1 UNK         0.0800 
    133 H133        3.3871  -13.0833  -46.0870 H         1 UNK         0.0800 
    134 H134        3.5270  -14.4143  -49.8560 H         1 UNK         0.0800 
    135 H135        4.2935  -15.4744  -48.6969 H         1 UNK         0.0800 
    136 H136        1.2056  -15.1482  -50.7997 H         1 UNK         0.1150 
    137 H137        0.9418  -19.3720  -51.4942 H         1 UNK         0.1150 
    138 H138        3.9270  -17.8165  -48.8435 H         1 UNK         0.1150 
    139 H139        2.8388  -20.7729  -50.8076 H         1 UNK         0.0800 
    140 H140        4.1590  -20.0724  -49.9154 H         1 UNK         0.0800 
    141 H141        0.8292  -21.7574  -49.9082 H         1 UNK         0.0800 
    142 H142        0.1931  -20.4466  -48.9390 H         1 UNK         0.0800 
    143 H143        0.8301  -23.2518  -47.8811 H         1 UNK         0.0600 
    144 H144        0.1525  -20.9132  -46.4271 H         1 UNK         0.3000 
    145 H145       -1.3913  -22.5753  -43.6293 H         1 UNK         0.0600 
    146 H146        0.3324  -21.2642  -42.4502 H         1 UNK         0.0600 
    147 H147        1.0793  -22.6268  -43.2694 H         1 UNK         0.0600 
    148 H148        1.2223  -21.0113  -43.9496 H         1 UNK         0.0600 
    149 H149       -0.9660  -19.8166  -44.1419 H         1 UNK         0.3000 
    150 H150       -4.0515  -19.2223  -45.9076 H         1 UNK         0.0600 
    151 H151       -4.6267  -19.1372  -43.5099 H         1 UNK         0.0600 
    152 H152       -4.1913  -17.5271  -44.0664 H         1 UNK         0.0600 
    153 H153       -3.0493  -18.4743  -43.1131 H         1 UNK         0.0600 
    154 H154       -1.9954  -17.4149  -45.2201 H         1 UNK         0.3000 
    155 H155        0.0783  -17.8870  -48.1048 H         1 UNK         0.0600 
    156 H156       -0.3846  -15.5064  -48.3361 H         1 UNK         0.0600 
    157 H157       -1.6460  -15.5560  -47.1056 H         1 UNK         0.0600 
    158 H158       -1.8844  -16.3622  -48.6448 H         1 UNK         0.0600 
    159 H159        0.3102  -16.1731  -45.8369 H         1 UNK         0.3000 
    160 H160        2.2744  -18.3893  -43.7993 H         1 UNK         0.0600 
    161 H161        2.7502  -15.6733  -45.1282 H         1 UNK         0.0600 
    162 H162        3.7122  -17.1128  -45.4440 H         1 UNK         0.0600 
    163 H163        3.6972  -16.4006  -43.8363 H         1 UNK         0.0600 
    164 H164        1.1482  -15.7858  -43.3328 H         1 UNK         0.3000 
    165 H165       -1.9189  -16.8520  -41.8837 H         1 UNK         0.0600 
    166 H166        0.5773  -15.8245  -40.4293 H         1 UNK         0.0600 
    167 H167       -1.0863  -15.6957  -39.8562 H         1 UNK         0.0600 
    168 H168       -0.3262  -17.2724  -39.9999 H         1 UNK         0.0600 
    169 H169       -0.6900  -14.3115  -41.9286 H         1 UNK         0.3000 
    170 H170       -0.8666  -13.3665  -45.1939 H         1 UNK         0.0600 
    171 H171       -3.3528  -13.2284  -44.9894 H         1 UNK         0.0600 
    172 H172       -3.1965  -12.5765  -43.3627 H         1 UNK         0.0600 
    173 H173       -2.6116  -11.6557  -44.7495 H         1 UNK         0.0600 
    174 H174       -0.9241  -11.7438  -42.8623 H         1 UNK         0.3000 
    175 H175        1.1123  -10.7214  -42.3337 H         1 UNK         0.0600 
    176 H176        1.7113  -11.4715  -40.0043 H         1 UNK         0.0600 
    177 H177        0.1923  -12.1944  -40.4991 H         1 UNK         0.0600 
    178 H178        1.6672  -13.1553  -40.5212 H         1 UNK         0.0600 
    179 H179        3.2758  -12.4696  -43.0057 H         1 UNK         0.3000 
    180 H180        5.8285  -10.1104  -42.0164 H         1 UNK         0.0600 
    181 H181        5.3777  -13.0653  -42.7334 H         1 UNK         0.0600 
    182 H182        5.6900  -12.4753  -41.1039 H         1 UNK         0.0600 
    183 H183        6.9102  -12.2898  -42.3512 H         1 UNK         0.0600 
    184 H184        4.4447  -10.7078  -44.4733 H         1 UNK         0.3000 
    185 H185        6.0278   -9.1042  -46.3440 H         1 UNK         0.0600 
    186 H186        7.5475  -10.2836  -47.9621 H         1 UNK         0.0600 
    187 H187        8.4285   -9.7032  -46.5597 H         1 UNK         0.0600 
    188 H188        8.0232  -11.4118  -46.6934 H         1 UNK         0.0600 
    189 H189        5.2262  -11.9243  -46.1709 H         1 UNK         0.3000 
    190 H190       -2.1425  -21.2237  -48.0056 H         1 UNK         0.3000 
    191 H191       -3.5345  -22.7305  -49.9393 H         1 UNK         0.0600 
    192 H192       -4.1477  -20.4260  -49.1575 H         1 UNK         0.0600 
    193 H193       -5.5183  -21.5287  -49.1150 H         1 UNK         0.0600 
    194 H194       -4.6915  -21.0909  -47.6229 H         1 UNK         0.0600 
    195 H195       -3.5097  -23.0566  -46.3548 H         1 UNK         0.3000 
    196 H196       -5.3519  -25.1988  -46.1727 H         1 UNK         0.0600 
    197 H197       -4.3772  -25.4936  -43.8877 H         1 UNK         0.0600 
    198 H198       -4.7195  -23.8055  -44.2336 H         1 UNK         0.0600 
    199 H199       -3.0621  -24.3998  -44.3004 H         1 UNK         0.0600 
    200 H200       -1.7548  -25.2430  -46.4322 H         1 UNK         0.3000 
    201 H201       -1.4253  -28.0574  -46.3339 H         1 UNK         0.0600 
    202 H202        0.4356  -26.4626  -45.9913 H         1 UNK         0.0600 
    203 H203        0.3095  -25.9048  -47.6581 H         1 UNK         0.0600 
    204 H204        0.8226  -27.5528  -47.3139 H         1 UNK         0.0600 
    205 H205       -2.0938  -25.8769  -49.0600 H         1 UNK         0.3000 
    206 H206       -2.0501  -27.9700  -51.0918 H         1 UNK         0.0600 
    207 H207       -1.3755  -25.6446  -51.6115 H         1 UNK         0.0600 
    208 H208       -2.8012  -26.0681  -52.5468 H         1 UNK         0.0600 
    209 H209       -2.9567  -25.0503  -51.1179 H         1 UNK         0.0600 
    210 H210       -4.2375  -27.4230  -48.6565 H         1 UNK         0.3000 
    211 H211       -6.3412  -27.8819  -48.1958 H         1 UNK         0.0600 
    212 H212       -6.2522  -29.7705  -50.6083 H         1 UNK         0.0600 
    213 H213       -7.3626  -29.8669  -49.2477 H         1 UNK         0.0600 
    214 H214       -5.6493  -30.1536  -48.9961 H         1 UNK         0.0600 
    215 H215       -5.9111  -25.5769  -49.7791 H         1 UNK         0.3000 
    216 H216       -6.8395  -23.9399  -50.8721 H         1 UNK         0.0600 
    217 H217       -8.6948  -24.2430  -49.2193 H         1 UNK         0.0600 
    218 H218       -9.5536  -25.2669  -50.3703 H         1 UNK         0.0600 
    219 H219       -9.2683  -23.5719  -50.7359 H         1 UNK         0.0600 
    220 H220       -6.3780  -26.6936  -52.3829 H         1 UNK         0.3000 
    221 H221       -7.9332  -26.3056  -54.8303 H         1 UNK         0.0600 
    222 H222       -5.5498  -28.1405  -54.2436 H         1 UNK         0.0600 
    223 H223       -7.2432  -28.5779  -54.0169 H         1 UNK         0.0600 
    224 H224       -6.6282  -28.2383  -55.6280 H         1 UNK         0.0600 
    225 H225       -5.0422  -25.0045  -53.4885 H         1 UNK         0.3000 
    226 H226       -4.5086  -23.3332  -55.7496 H         1 UNK         0.0600 
    227 H227       -3.1398  -25.3630  -56.3969 H         1 UNK         0.0600 
    228 H228       -2.1009  -24.0138  -55.9792 H         1 UNK         0.0600 
    229 H229       -2.3382  -25.3230  -54.8290 H         1 UNK         0.0600 
    230 H230       -2.5641  -21.9036  -55.0530 H         1 UNK         0.3000 
    231 H231       -1.6103  -20.4231  -53.7394 H         1 UNK         0.0600 
    232 H232       -0.6461  -21.1917  -51.5965 H         1 UNK         0.0600 
    233 H233       -0.4618  -22.4262  -52.8302 H         1 UNK         0.0600 
    234 H234       -1.6983  -22.5982  -51.5870 H         1 UNK         0.0600 
    235 H235       -4.7298  -20.8290  -53.4091 H         1 UNK         0.3000 
    236 H236       -5.3213  -19.4182  -50.9297 H         1 UNK         0.0600 
    237 H237       -7.6597  -19.6302  -51.7345 H         1 UNK         0.0600 
    238 H238       -7.0951  -20.2342  -53.2888 H         1 UNK         0.0600 
    239 H239       -6.8285  -21.1748  -51.8219 H         1 UNK         0.0600 
    240 H240       -3.5853  -17.7929  -51.8668 H         1 UNK         0.3000 
    241 H241       -4.5932  -15.7985  -53.7091 H         1 UNK         0.0600 
    242 H242       -5.3141  -16.1371  -50.3730 H         1 UNK         0.3800 
    243 H243       -5.7357  -14.4661  -50.1028 H         1 UNK         0.3800 
    244 H244       -2.2558  -16.3114  -53.7994 H         1 UNK         0.0800 
    245 H245       -2.4277  -14.6499  -53.3285 H         1 UNK         0.0800 
    246 H246       -0.6507  -17.9533  -52.5350 H         1 UNK         0.0800 
    247 H247        0.1838  -16.5226  -53.1048 H         1 UNK         0.0800 
@<TRIPOS>BOND
     1    1    2 1    
     2    1  127 1    
     3    1  128 1    
     4    1  129 1    
     5    2    3 2    
     6    2    4 am   BACKBONE|DICT|INTERRES
     7    4    5 1    
     8    4  130 1    
     9    5    6 1    
    10    5   65 1    
    11    5  131 1    
    12    6    7 1    
    13    6  132 1    
    14    6  133 1    
    15    7    8 1    
    16    8    9 1    
    17    8  134 1    
    18    8  135 1    
    19    9   10 ar   
    20    9   14 ar   
    21   10   11 ar   
    22   10  136 1    
    23   11   12 ar   
    24   11  126 1    
    25   12   13 ar   
    26   12  137 1    
    27   13   14 ar   
    28   13   15 1    
    29   14  138 1    
    30   15   16 1    
    31   15  139 1    
    32   15  140 1    
    33   16   17 1    
    34   17   18 1    
    35   17  141 1    
    36   17  142 1    
    37   18   19 1    
    38   18   67 1    
    39   18  143 1    
    40   19   20 am   BACKBONE|DICT|INTERRES
    41   19  144 1    
    42   20   21 2    
    43   20   22 1    
    44   22   23 1    
    45   22   24 1    
    46   22  145 1    
    47   23  146 1    
    48   23  147 1    
    49   23  148 1    
    50   24   25 am   BACKBONE|DICT|INTERRES
    51   24  149 1    
    52   25   26 2    
    53   25   27 1    
    54   27   28 1    
    55   27   29 1    
    56   27  150 1    
    57   28  151 1    
    58   28  152 1    
    59   28  153 1    
    60   29   30 am   BACKBONE|DICT|INTERRES
    61   29  154 1    
    62   30   31 2    
    63   30   32 1    
    64   32   33 1    
    65   32   34 1    
    66   32  155 1    
    67   33  156 1    
    68   33  157 1    
    69   33  158 1    
    70   34   35 am   BACKBONE|DICT|INTERRES
    71   34  159 1    
    72   35   36 2    
    73   35   37 1    
    74   37   38 1    
    75   37   39 1    
    76   37  160 1    
    77   38  161 1    
    78   38  162 1    
    79   38  163 1    
    80   39   40 am   BACKBONE|DICT|INTERRES
    81   39  164 1    
    82   40   41 2    
    83   40   42 1    
    84   42   43 1    
    85   42   44 1    
    86   42  165 1    
    87   43  166 1    
    88   43  167 1    
    89   43  168 1    
    90   44   45 am   BACKBONE|DICT|INTERRES
    91   44  169 1    
    92   45   46 2    
    93   45   47 1    
    94   47   48 1    
    95   47   49 1    
    96   47  170 1    
    97   48  171 1    
    98   48  172 1    
    99   48  173 1    
   100   49   50 am   BACKBONE|DICT|INTERRES
   101   49  174 1    
   102   50   51 2    
   103   50   52 1    
   104   52   53 1    
   105   52   54 1    
   106   52  175 1    
   107   53  176 1    
   108   53  177 1    
   109   53  178 1    
   110   54   55 am   BACKBONE|DICT|INTERRES
   111   54  179 1    
   112   55   56 2    
   113   55   57 1    
   114   57   58 1    
   115   57   59 1    
   116   57  180 1    
   117   58  181 1    
   118   58  182 1    
   119   58  183 1    
   120   59   60 am   BACKBONE|DICT|INTERRES
   121   59  184 1    
   122   60   61 2    
   123   60   62 1    
   124   62   63 1    
   125   62   64 1    
   126   62  185 1    
   127   63  186 1    
   128   63  187 1    
   129   63  188 1    
   130   64   65 am   BACKBONE|DICT|INTERRES
   131   64  189 1    
   132   65   66 2    
   133   67   68 2    
   134   67   69 am   BACKBONE|DICT|INTERRES
   135   69   70 1    
   136   69  190 1    
   137   70   71 1    
   138   70   72 1    
   139   70  191 1    
   140   71  192 1    
   141   71  193 1    
   142   71  194 1    
   143   72   73 2    
   144   72   74 am   BACKBONE|DICT|INTERRES
   145   74   75 1    
   146   74  195 1    
   147   75   76 1    
   148   75   77 1    
   149   75  196 1    
   150   76  197 1    
   151   76  198 1    
   152   76  199 1    
   153   77   78 2    
   154   77   79 am   BACKBONE|DICT|INTERRES
   155   79   80 1    
   156   79  200 1    
   157   80   81 1    
   158   80   82 1    
   159   80  201 1    
   160   81  202 1    
   161   81  203 1    
   162   81  204 1    
   163   82   83 2    
   164   82   84 am   BACKBONE|DICT|INTERRES
   165   84   85 1    
   166   84  205 1    
   167   85   86 1    
   168   85   87 1    
   169   85  206 1    
   170   86  207 1    
   171   86  208 1    
   172   86  209 1    
   173   87   88 2    
   174   87   89 am   BACKBONE|DICT|INTERRES
   175   89   90 1    
   176   89  210 1    
   177   90   91 1    
   178   90   92 1    
   179   90  211 1    
   180   91  212 1    
   181   91  213 1    
   182   91  214 1    
   183   92   93 2    
   184   92   94 am   BACKBONE|DICT|INTERRES
   185   94   95 1    
   186   94  215 1    
   187   95   96 1    
   188   95   97 1    
   189   95  216 1    
   190   96  217 1    
   191   96  218 1    
   192   96  219 1    
   193   97   98 2    
   194   97   99 am   BACKBONE|DICT|INTERRES
   195   99  100 1    
   196   99  220 1    
   197  100  101 1    
   198  100  102 1    
   199  100  221 1    
   200  101  222 1    
   201  101  223 1    
   202  101  224 1    
   203  102  103 2    
   204  102  104 am   BACKBONE|DICT|INTERRES
   205  104  105 1    
   206  104  225 1    
   207  105  106 1    
   208  105  107 1    
   209  105  226 1    
   210  106  227 1    
   211  106  228 1    
   212  106  229 1    
   213  107  108 2    
   214  107  109 am   BACKBONE|DICT|INTERRES
   215  109  110 1    
   216  109  230 1    
   217  110  111 1    
   218  110  112 1    
   219  110  231 1    
   220  111  232 1    
   221  111  233 1    
   222  111  234 1    
   223  112  113 2    
   224  112  114 am   BACKBONE|DICT|INTERRES
   225  114  115 1    
   226  114  235 1    
   227  115  116 1    
   228  115  117 1    
   229  115  236 1    
   230  116  237 1    
   231  116  238 1    
   232  116  239 1    
   233  117  118 2    
   234  117  119 am   BACKBONE|DICT|INTERRES
   235  119  120 1    
   236  119  240 1    
   237  120  121 1    
   238  120  124 1    
   239  120  241 1    
   240  121  122 am   BACKBONE|DICT|INTERRES
   241  121  123 2    
   242  122  242 1    
   243  122  243 1    
   244  124  125 1    
   245  124  244 1    
   246  124  245 1    
   247  125  126 1    
   248  126  246 1    
   249  126  247 1    
@<TRIPOS>SUBSTRUCTURE
     1 UNK         1 GROUP             0       ****    0 ROOT    
