@<TRIPOS>MOLECULE
3R540
247   249    1
SMALL
USER_CHARGES


@<TRIPOS>ATOM
      1 CA         -0.7000  -11.4125  -54.2076 C.3       0 UNK        -0.1800 
      2 C           0.1597  -11.6202  -52.9694 C.2       0 UNK         0.5000 
      3 O           0.6206  -10.6471  -52.3722 O.2       0 UNK        -0.5000 
      4 N           0.3841  -12.8841  -52.5894 N.am      1 UNK        -0.5000 
      5 CA          1.1158  -13.2880  -51.3842 C.3       1 UNK         0.1400 
      6 C6          1.4146  -14.8046  -51.4129 C.3       23 UNK        -0.0398 
      7 S7          2.8207  -15.2919  -50.3518 S.3       23 UNK        -0.2404 
      8 C8          2.0068  -15.9128  -48.8427 C.3       23 UNK        -0.0205 
      9 C9          0.9823  -16.9982  -49.1321 C.ar      23 UNK        -0.0193 
     10 C10        -0.3822  -16.7321  -48.9770 C.ar      23 UNK        -0.1150 
     11 C11        -1.3289  -17.7226  -49.2444 C.ar      23 UNK        -0.0193 
     12 C12        -0.9048  -18.9749  -49.6952 C.ar      23 UNK        -0.1150 
     13 C13         0.4557  -19.2549  -49.8522 C.ar      23 UNK        -0.0193 
     14 C14         1.3962  -18.2639  -49.5589 C.ar      23 UNK        -0.1150 
     15 C15         0.9040  -20.6200  -50.3573 C.3       23 UNK        -0.0205 
     16 S16         1.2400  -21.7900  -49.0018 S.3       23 UNK        -0.2404 
     17 C17        -0.4250  -21.9565  -48.2867 C.3       23 UNK        -0.0398 
     18 CA         -0.5605  -23.1206  -47.2808 C.3       11 UNK         0.1400 
     19 N           0.2175  -22.9162  -46.0542 N.am      11 UNK        -0.5000 
     20 C           0.3301  -23.8174  -45.0667 C.2       10 UNK         0.5000 
     21 O          -0.1799  -24.9368  -45.1017 O.2       10 UNK        -0.5000 
     22 CA          1.0842  -23.3814  -43.7990 C.3       10 UNK         0.1400 
     23 CB          2.6037  -23.4013  -44.0211 C.3       10 UNK        -0.1800 
     24 N           0.6605  -22.0645  -43.3242 N.am      10 UNK        -0.5000 
     25 C          -0.5779  -21.7758  -42.8971 C.2       9 UNK         0.5000 
     26 O          -1.4832  -22.6063  -42.8118 O.2       9 UNK        -0.5000 
     27 CA         -0.8699  -20.3029  -42.5550 C.3       9 UNK         0.1400 
     28 CB         -0.3384  -19.9440  -41.1597 C.3       9 UNK        -0.1800 
     29 N          -0.3176  -19.3765  -43.5428 N.am      9 UNK        -0.5000 
     30 C          -0.6735  -19.3407  -44.8349 C.2       8 UNK         0.5000 
     31 O          -1.5451  -20.0530  -45.3303 O.2       8 UNK        -0.5000 
     32 CA          0.1156  -18.3809  -45.7368 C.3       8 UNK         0.1400 
     33 CB         -0.4153  -16.9478  -45.5960 C.3       8 UNK        -0.1800 
     34 N           1.5509  -18.4115  -45.4587 N.am      8 UNK        -0.5000 
     35 C           2.3302  -19.4867  -45.6448 C.2       7 UNK         0.5000 
     36 O           1.9195  -20.5669  -46.0624 O.2       7 UNK        -0.5000 
     37 CA          3.8050  -19.3468  -45.2329 C.3       7 UNK         0.1400 
     38 CB          4.5863  -18.5373  -46.2796 C.3       7 UNK        -0.1800 
     39 N           3.9508  -18.7202  -43.9192 N.am      7 UNK        -0.5000 
     40 C           3.4968  -19.2424  -42.7698 C.2       6 UNK         0.5000 
     41 O           2.9707  -20.3510  -42.6801 O.2       6 UNK        -0.5000 
     42 CA          3.5971  -18.3467  -41.5206 C.3       6 UNK         0.1400 
     43 CB          4.9497  -18.5437  -40.8204 C.3       6 UNK        -0.1800 
     44 N           3.4055  -16.9243  -41.8216 N.am      6 UNK        -0.5000 
     45 C           2.2792  -16.4023  -42.3241 C.2       5 UNK         0.5000 
     46 O           1.2664  -17.0640  -42.5706 O.2       5 UNK        -0.5000 
     47 CA          2.3132  -14.9066  -42.6583 C.3       5 UNK         0.1400 
     48 CB          3.0421  -14.6621  -43.9924 C.3       5 UNK        -0.1800 
     49 N           0.9459  -14.4144  -42.7652 N.am      5 UNK        -0.5000 
     50 C           0.5411  -13.1762  -42.4697 C.2       4 UNK         0.5000 
     51 O           1.2930  -12.2900  -42.0596 O.2       4 UNK        -0.5000 
     52 CA         -0.9435  -12.8822  -42.7335 C.3       4 UNK         0.1400 
     53 CB         -1.3408  -11.4255  -42.4167 C.3       4 UNK        -0.1800 
     54 N          -1.2243  -13.1916  -44.1315 N.am      4 UNK        -0.5000 
     55 C          -2.4226  -13.4302  -44.6698 C.2       3 UNK         0.5000 
     56 O          -3.4637  -13.4569  -44.0111 O.2       3 UNK        -0.5000 
     57 CA         -2.4628  -13.6578  -46.2006 C.3       3 UNK         0.1400 
     58 CB         -3.8912  -13.5611  -46.7670 C.3       3 UNK        -0.1800 
     59 N          -1.6029  -12.7351  -46.9502 N.am      3 UNK        -0.5000 
     60 C          -0.2699  -12.8057  -47.0527 C.2       2 UNK         0.5000 
     61 O           0.4133  -13.6514  -46.4743 O.2       2 UNK        -0.5000 
     62 CA          0.4172  -11.7330  -47.9171 C.3       2 UNK         0.1400 
     63 CB          1.5066  -11.0030  -47.1149 C.3       2 UNK        -0.1800 
     64 N           1.0097  -12.2841  -49.1371 N.am      2 UNK        -0.5000 
     65 C           0.3257  -12.8819  -50.1211 C.2       1 UNK         0.5000 
     66 O          -0.8876  -13.0964  -50.0773 O.2       1 UNK        -0.5000 
     67 C          -2.0521  -23.3630  -46.9825 C.2       11 UNK         0.5000 
     68 O          -2.6421  -24.2672  -47.5727 O.2       11 UNK        -0.5000 
     69 N          -2.6432  -22.5633  -46.0840 N.am      12 UNK        -0.5000 
     70 CA         -4.0356  -22.6892  -45.6494 C.3       12 UNK         0.1400 
     71 CB         -4.4012  -21.5218  -44.7213 C.3       12 UNK        -0.1800 
     72 C          -4.3291  -24.0409  -44.9768 C.2       12 UNK         0.5000 
     73 O          -5.3531  -24.6555  -45.2757 O.2       12 UNK        -0.5000 
     74 N          -3.4138  -24.4861  -44.1075 N.am      13 UNK        -0.5000 
     75 CA         -3.5044  -25.7569  -43.3961 C.3       13 UNK         0.1400 
     76 CB         -2.5024  -25.7589  -42.2305 C.3       13 UNK        -0.1800 
     77 C          -3.2820  -26.9766  -44.3083 C.2       13 UNK         0.5000 
     78 O          -4.0871  -27.9085  -44.2780 O.2       13 UNK        -0.5000 
     79 N          -2.1817  -26.9700  -45.0720 N.am      14 UNK        -0.5000 
     80 CA         -1.6970  -28.1462  -45.7951 C.3       14 UNK         0.1400 
     81 CB         -0.1631  -28.0879  -45.8732 C.3       14 UNK        -0.1800 
     82 C          -2.2831  -28.3025  -47.2072 C.2       14 UNK         0.5000 
     83 O          -2.4065  -29.4367  -47.6726 O.2       14 UNK        -0.5000 
     84 N          -2.5889  -27.1864  -47.8809 N.am      15 UNK        -0.5000 
     85 CA         -2.8835  -27.1553  -49.3166 C.3       15 UNK         0.1400 
     86 CB         -1.6644  -26.5594  -50.0444 C.3       15 UNK        -0.1800 
     87 C          -4.1682  -26.3823  -49.6590 C.2       15 UNK         0.5000 
     88 O          -4.4179  -26.1421  -50.8409 O.2       15 UNK        -0.5000 
     89 N          -4.9466  -25.9744  -48.6444 N.am      16 UNK        -0.5000 
     90 CA         -6.1725  -25.1699  -48.7527 C.3       16 UNK         0.1400 
     91 CB         -7.3136  -26.0045  -49.3705 C.3       16 UNK        -0.1800 
     92 C          -5.9428  -23.8258  -49.4824 C.2       16 UNK         0.5000 
     93 O          -6.7476  -23.4277  -50.3251 O.2       16 UNK        -0.5000 
     94 N          -4.8118  -23.1823  -49.1579 N.am      17 UNK        -0.5000 
     95 CA         -4.2646  -21.9400  -49.7199 C.3       17 UNK         0.1400 
     96 CB         -5.2894  -20.7880  -49.7235 C.3       17 UNK        -0.1800 
     97 C          -3.5722  -22.1228  -51.0856 C.2       17 UNK         0.5000 
     98 O          -3.1105  -21.1357  -51.6581 O.2       17 UNK        -0.5000 
     99 N          -3.4818  -23.3694  -51.5771 N.am      18 UNK        -0.5000 
    100 CA        -2.7256  -23.8270  -52.7528 C.3       18 UNK         0.1400 
    101 CB        -1.2137  -23.6397  -52.5050 C.3       18 UNK        -0.1800 
    102 C         -3.1495  -23.2034  -54.1016 C.2       18 UNK         0.5000 
    103 O         -2.4367  -23.3774  -55.0914 O.2       18 UNK        -0.5000 
    104 N         -4.2759  -22.4732  -54.1172 N.am      19 UNK        -0.5000 
    105 CA        -4.7451  -21.5940  -55.1949 C.3       19 UNK         0.1400 
    106 CB        -5.1895  -22.4146  -56.4238 C.3       19 UNK        -0.1800 
    107 C         -3.7196  -20.4873  -55.5379 C.2       19 UNK         0.5000 
    108 O         -3.5561  -20.1325  -56.7065 O.2       19 UNK        -0.5000 
    109 N         -3.0322  -19.9728  -54.5060 N.am      20 UNK        -0.5000 
    110 CA        -1.9193  -19.0257  -54.6189 C.3       20 UNK         0.1400 
    111 CB        -1.1645  -18.9996  -53.2807 C.3       20 UNK        -0.1800 
    112 C         -2.3166  -17.5958  -55.0395 C.2       20 UNK         0.5000 
    113 O         -1.4248  -16.8066  -55.3544 O.2       20 UNK        -0.5000 
    114 N         -3.6234  -17.2845  -55.0276 N.am      21 UNK        -0.5000 
    115 CA        -4.2239  -15.9728  -55.3079 C.3       21 UNK         0.1400 
    116 CB        -4.0085  -15.5632  -56.7804 C.3       21 UNK        -0.1800 
    117 C         -3.7418  -14.9122  -54.2975 C.2       21 UNK         0.5000 
    118 O         -3.1824  -13.8826  -54.6788 O.2       21 UNK        -0.5000 
    119 N         -3.9274  -15.2427  -53.0150 N.am      22 UNK        -0.5000 
    120 CA        -3.4689  -14.4983  -51.8344 C.3       22 UNK         0.1400 
    121 C         -3.9887  -13.0319  -51.7668 C.2       22 UNK         0.5000 
    122 N         -3.2388  -12.1364  -51.1435 N.am      22 UNK        -0.7600 
    123 O         -5.0856  -12.7125  -52.2213 O.2       22 UNK        -0.5000 
    124 C124       -3.8182  -15.2440  -50.5157 C.3       23 UNK        -0.0398 
    125 S125       -3.6493  -17.0655  -50.5899 S.3       23 UNK        -0.2404 
    126 C126       -2.8087  -17.4602  -49.0273 C.3       23 UNK        -0.0205 
    127 H127       -0.2264  -10.7000  -54.8830 H         1 UNK         0.0600 
    128 H128       -1.6767  -11.0206  -53.9231 H         1 UNK         0.0600 
    129 H129       -0.8533  -12.3442  -54.7526 H         1 UNK         0.0600 
    130 H130       -0.0417  -13.6326  -53.1165 H         1 UNK         0.3000 
    131 H131        2.0649  -12.7474  -51.3932 H         1 UNK         0.0600 
    132 H132        1.7019  -15.0958  -52.4243 H         1 UNK         0.0800 
    133 H133        0.5205  -15.3896  -51.1973 H         1 UNK         0.0800 
    134 H134        1.5449  -15.0774  -48.3186 H         1 UNK         0.0800 
    135 H135        2.7660  -16.3091  -48.1673 H         1 UNK         0.0800 
    136 H136       -0.7065  -15.7566  -48.6412 H         1 UNK         0.1150 
    137 H137       -1.6393  -19.7335  -49.9235 H         1 UNK         0.1150 
    138 H138        2.4504  -18.4707  -49.6782 H         1 UNK         0.1150 
    139 H139        0.1472  -21.0423  -51.0190 H         1 UNK         0.0800 
    140 H140        1.8063  -20.5107  -50.9604 H         1 UNK         0.0800 
    141 H141       -1.1124  -22.0952  -49.1225 H         1 UNK         0.0800 
    142 H142       -0.6948  -21.0141  -47.8078 H         1 UNK         0.0800 
    143 H143       -0.1808  -24.0270  -47.7574 H         1 UNK         0.0600 
    144 H144        0.7097  -22.0291  -45.9727 H         1 UNK         0.3000 
    145 H145        0.8521  -24.1042  -43.0140 H         1 UNK         0.0600 
    146 H146        3.1386  -23.1742  -43.0988 H         1 UNK         0.0600 
    147 H147        2.9142  -22.6762  -44.7731 H         1 UNK         0.0600 
    148 H148        2.9357  -24.3846  -44.3564 H         1 UNK         0.0600 
    149 H149        1.3639  -21.3324  -43.3282 H         1 UNK         0.3000 
    150 H150       -1.9538  -20.1716  -42.5494 H         1 UNK         0.0600 
    151 H151       -0.7792  -20.5879  -40.3979 H         1 UNK         0.0600 
    152 H152       -0.5816  -18.9140  -40.8978 H         1 UNK         0.0600 
    153 H153        0.7438  -20.0573  -41.0985 H         1 UNK         0.0600 
    154 H154        0.3859  -18.7210  -43.2165 H         1 UNK         0.3000 
    155 H155       -0.0267  -18.7021  -46.7699 H         1 UNK         0.0600 
    156 H156       -1.4549  -16.8956  -45.9197 H         1 UNK         0.0600 
    157 H157        0.1565  -16.2547  -46.2107 H         1 UNK         0.0600 
    158 H158       -0.3753  -16.5918  -44.5676 H         1 UNK         0.0600 
    159 H159        1.9522  -17.5824  -45.0499 H         1 UNK         0.3000 
    160 H160        4.2355  -20.3491  -45.1811 H         1 UNK         0.0600 
    161 H161        4.2327  -17.5075  -46.3431 H         1 UNK         0.0600 
    162 H162        4.4832  -18.9808  -47.2711 H         1 UNK         0.0600 
    163 H163        5.6503  -18.5127  -46.0443 H         1 UNK         0.0600 
    164 H164        4.3764  -17.8060  -43.8941 H         1 UNK         0.3000 
    165 H165        2.8077  -18.6521  -40.8309 H         1 UNK         0.0600 
    166 H166        4.9992  -17.9760  -39.8911 H         1 UNK         0.0600 
    167 H167        5.1084  -19.5929  -40.5675 H         1 UNK         0.0600 
    168 H168        5.7812  -18.2288  -41.4521 H         1 UNK         0.0600 
    169 H169        4.1944  -16.3178  -41.6486 H         1 UNK         0.3000 
    170 H170        2.8347  -14.3886  -41.8506 H         1 UNK         0.0600 
    171 H171        2.5406  -15.1621  -44.8224 H         1 UNK         0.0600 
    172 H172        3.0846  -13.5984  -44.2275 H         1 UNK         0.0600 
    173 H173        4.0694  -15.0262  -43.9573 H         1 UNK         0.0600 
    174 H174        0.2696  -15.1150  -43.0395 H         1 UNK         0.3000 
    175 H175       -1.5240  -13.5507  -42.0944 H         1 UNK         0.0600 
    176 H176       -0.8060  -10.7178  -43.0512 H         1 UNK         0.0600 
    177 H177       -2.4087  -11.2631  -42.5619 H         1 UNK         0.0600 
    178 H178       -1.1162  -11.1754  -41.3792 H         1 UNK         0.0600 
    179 H179       -0.4154  -13.2468  -44.7452 H         1 UNK         0.3000 
    180 H180       -2.1062  -14.6722  -46.3820 H         1 UNK         0.0600 
    181 H181       -4.3367  -12.5861  -46.5658 H         1 UNK         0.0600 
    182 H182       -4.5410  -14.3181  -46.3260 H         1 UNK         0.0600 
    183 H183       -3.9045  -13.7142  -47.8448 H         1 UNK         0.0600 
    184 H184       -2.0824  -11.9960  -47.4431 H         1 UNK         0.3000 
    185 H185       -0.3293  -10.9943  -48.2162 H         1 UNK         0.0600 
    186 H186        2.3171  -11.6755  -46.8301 H         1 UNK         0.0600 
    187 H187        1.9373  -10.1825  -47.6890 H         1 UNK         0.0600 
    188 H188        1.0973  -10.5773  -46.1977 H         1 UNK         0.0600 
    189 H189        2.0074  -12.1680  -49.2368 H         1 UNK         0.3000 
    190 H190       -2.1129  -21.7954  -45.6775 H         1 UNK         0.3000 
    191 H191       -4.6719  -22.6154  -46.5313 H         1 UNK         0.0600 
    192 H192       -4.2893  -20.5648  -45.2310 H         1 UNK         0.0600 
    193 H193       -3.7731  -21.5016  -43.8307 H         1 UNK         0.0600 
    194 H194       -5.4382  -21.5944  -44.3911 H         1 UNK         0.0600 
    195 H195       -2.6144  -23.8980  -43.8921 H         1 UNK         0.3000 
    196 H196       -4.5080  -25.8377  -42.9728 H         1 UNK         0.0600 
    197 H197       -2.7179  -24.9550  -41.5263 H         1 UNK         0.0600 
    198 H198       -1.4769  -25.6285  -42.5789 H         1 UNK         0.0600 
    199 H199       -2.5462  -26.6975  -41.6768 H         1 UNK         0.0600 
    200 H200       -1.5581  -26.1650  -45.0470 H         1 UNK         0.3000 
    201 H201       -1.9597  -29.0435  -45.2301 H         1 UNK         0.0600 
    202 H202        0.2807  -28.0023  -44.8812 H         1 UNK         0.0600 
    203 H203        0.1779  -27.2393  -46.4677 H         1 UNK         0.0600 
    204 H204        0.2394  -28.9913  -46.3332 H         1 UNK         0.0600 
    205 H205       -2.4770  -26.2817  -47.4345 H         1 UNK         0.3000 
    206 H206       -3.0415  -28.1650  -49.7001 H         1 UNK         0.0600 
    207 H207       -0.7635  -27.1387  -49.8419 H         1 UNK         0.0600 
    208 H208       -1.4772  -25.5319  -49.7318 H         1 UNK         0.0600 
    209 H209       -1.8073  -26.5565  -51.1255 H         1 UNK         0.0600 
    210 H210       -4.6488  -26.1983  -47.7052 H         1 UNK         0.3000 
    211 H211       -6.4680  -24.9150  -47.7345 H         1 UNK         0.0600 
    212 H212       -7.1120  -26.2610  -50.4110 H         1 UNK         0.0600 
    213 H213       -8.2564  -25.4568  -49.3456 H         1 UNK         0.0600 
    214 H214       -7.4647  -26.9328  -48.8198 H         1 UNK         0.0600 
    215 H215       -4.1895  -23.6579  -48.5089 H         1 UNK         0.3000 
    216 H216       -3.4730  -21.6409  -49.0335 H         1 UNK         0.0600 
    217 H217       -4.8061  -19.8415  -49.9657 H         1 UNK         0.0600 
    218 H218       -5.7575  -20.6711  -48.7462 H         1 UNK         0.0600 
    219 H219       -6.0764  -20.9396  -50.4619 H         1 UNK         0.0600 
    220 H220       -3.9481  -24.1134  -51.0701 H         1 UNK         0.3000 
    221 H221       -2.9202  -24.8966  -52.8391 H         1 UNK         0.0600 
    222 H222       -0.9301  -22.5878  -52.5407 H         1 UNK         0.0600 
    223 H223       -0.9129  -24.0328  -51.5347 H         1 UNK         0.0600 
    224 H224       -0.6248  -24.1604  -53.2607 H         1 UNK         0.0600 
    225 H225       -4.7798  -22.4013  -53.2448 H         1 UNK         0.3000 
    226 H226       -5.6258  -21.0798  -54.8078 H         1 UNK         0.0600 
    227 H227       -5.9118  -23.1818  -56.1449 H         1 UNK         0.0600 
    228 H228       -5.6672  -21.7757  -57.1674 H         1 UNK         0.0600 
    229 H229       -4.3476  -22.9074  -56.9106 H         1 UNK         0.0600 
    230 H230       -3.2055  -20.3381  -53.5744 H         1 UNK         0.3000 
    231 H231       -1.2364  -19.4032  -55.3826 H         1 UNK         0.0600 
    232 H232       -0.3007  -18.3350  -53.3215 H         1 UNK         0.0600 
    233 H233       -0.7978  -19.9913  -53.0177 H         1 UNK         0.0600 
    234 H234       -1.8052  -18.6543  -52.4691 H         1 UNK         0.0600 
    235 H235       -4.2639  -18.0124  -54.7465 H         1 UNK         0.3000 
    236 H236       -5.2985  -16.0821  -55.1546 H         1 UNK         0.0600 
    237 H237       -2.9568  -15.3891  -57.0087 H         1 UNK         0.0600 
    238 H238       -4.3757  -16.3322  -57.4601 H         1 UNK         0.0600 
    239 H239       -4.5468  -14.6427  -57.0088 H         1 UNK         0.0600 
    240 H240       -4.3722  -16.1246  -52.8073 H         1 UNK         0.3000 
    241 H241       -2.3813  -14.4584  -51.9178 H         1 UNK         0.0600 
    242 H242       -3.5597  -11.1850  -51.0663 H         1 UNK         0.3800 
    243 H243       -2.3475  -12.4107  -50.7286 H         1 UNK         0.3800 
    244 H244       -4.8470  -15.0366  -50.2147 H         1 UNK         0.0800 
    245 H245       -3.1828  -14.8580  -49.7182 H         1 UNK         0.0800 
    246 H246       -3.2694  -18.3522  -48.6003 H         1 UNK         0.0800 
    247 H247       -2.9611  -16.6682  -48.2929 H         1 UNK         0.0800 
@<TRIPOS>BOND
     1    1    2 1    
     2    1  127 1    
     3    1  128 1    
     4    1  129 1    
     5    2    3 2    
     6    2    4 am   BACKBONE|DICT|INTERRES
     7    4    5 1    
     8    4  130 1    
     9    5    6 1    
    10    5   65 1    
    11    5  131 1    
    12    6    7 1    
    13    6  132 1    
    14    6  133 1    
    15    7    8 1    
    16    8    9 1    
    17    8  134 1    
    18    8  135 1    
    19    9   10 ar   
    20    9   14 ar   
    21   10   11 ar   
    22   10  136 1    
    23   11   12 ar   
    24   11  126 1    
    25   12   13 ar   
    26   12  137 1    
    27   13   14 ar   
    28   13   15 1    
    29   14  138 1    
    30   15   16 1    
    31   15  139 1    
    32   15  140 1    
    33   16   17 1    
    34   17   18 1    
    35   17  141 1    
    36   17  142 1    
    37   18   19 1    
    38   18   67 1    
    39   18  143 1    
    40   19   20 am   BACKBONE|DICT|INTERRES
    41   19  144 1    
    42   20   21 2    
    43   20   22 1    
    44   22   23 1    
    45   22   24 1    
    46   22  145 1    
    47   23  146 1    
    48   23  147 1    
    49   23  148 1    
    50   24   25 am   BACKBONE|DICT|INTERRES
    51   24  149 1    
    52   25   26 2    
    53   25   27 1    
    54   27   28 1    
    55   27   29 1    
    56   27  150 1    
    57   28  151 1    
    58   28  152 1    
    59   28  153 1    
    60   29   30 am   BACKBONE|DICT|INTERRES
    61   29  154 1    
    62   30   31 2    
    63   30   32 1    
    64   32   33 1    
    65   32   34 1    
    66   32  155 1    
    67   33  156 1    
    68   33  157 1    
    69   33  158 1    
    70   34   35 am   BACKBONE|DICT|INTERRES
    71   34  159 1    
    72   35   36 2    
    73   35   37 1    
    74   37   38 1    
    75   37   39 1    
    76   37  160 1    
    77   38  161 1    
    78   38  162 1    
    79   38  163 1    
    80   39   40 am   BACKBONE|DICT|INTERRES
    81   39  164 1    
    82   40   41 2    
    83   40   42 1    
    84   42   43 1    
    85   42   44 1    
    86   42  165 1    
    87   43  166 1    
    88   43  167 1    
    89   43  168 1    
    90   44   45 am   BACKBONE|DICT|INTERRES
    91   44  169 1    
    92   45   46 2    
    93   45   47 1    
    94   47   48 1    
    95   47   49 1    
    96   47  170 1    
    97   48  171 1    
    98   48  172 1    
    99   48  173 1    
   100   49   50 am   BACKBONE|DICT|INTERRES
   101   49  174 1    
   102   50   51 2    
   103   50   52 1    
   104   52   53 1    
   105   52   54 1    
   106   52  175 1    
   107   53  176 1    
   108   53  177 1    
   109   53  178 1    
   110   54   55 am   BACKBONE|DICT|INTERRES
   111   54  179 1    
   112   55   56 2    
   113   55   57 1    
   114   57   58 1    
   115   57   59 1    
   116   57  180 1    
   117   58  181 1    
   118   58  182 1    
   119   58  183 1    
   120   59   60 am   BACKBONE|DICT|INTERRES
   121   59  184 1    
   122   60   61 2    
   123   60   62 1    
   124   62   63 1    
   125   62   64 1    
   126   62  185 1    
   127   63  186 1    
   128   63  187 1    
   129   63  188 1    
   130   64   65 am   BACKBONE|DICT|INTERRES
   131   64  189 1    
   132   65   66 2    
   133   67   68 2    
   134   67   69 am   BACKBONE|DICT|INTERRES
   135   69   70 1    
   136   69  190 1    
   137   70   71 1    
   138   70   72 1    
   139   70  191 1    
   140   71  192 1    
   141   71  193 1    
   142   71  194 1    
   143   72   73 2    
   144   72   74 am   BACKBONE|DICT|INTERRES
   145   74   75 1    
   146   74  195 1    
   147   75   76 1    
   148   75   77 1    
   149   75  196 1    
   150   76  197 1    
   151   76  198 1    
   152   76  199 1    
   153   77   78 2    
   154   77   79 am   BACKBONE|DICT|INTERRES
   155   79   80 1    
   156   79  200 1    
   157   80   81 1    
   158   80   82 1    
   159   80  201 1    
   160   81  202 1    
   161   81  203 1    
   162   81  204 1    
   163   82   83 2    
   164   82   84 am   BACKBONE|DICT|INTERRES
   165   84   85 1    
   166   84  205 1    
   167   85   86 1    
   168   85   87 1    
   169   85  206 1    
   170   86  207 1    
   171   86  208 1    
   172   86  209 1    
   173   87   88 2    
   174   87   89 am   BACKBONE|DICT|INTERRES
   175   89   90 1    
   176   89  210 1    
   177   90   91 1    
   178   90   92 1    
   179   90  211 1    
   180   91  212 1    
   181   91  213 1    
   182   91  214 1    
   183   92   93 2    
   184   92   94 am   BACKBONE|DICT|INTERRES
   185   94   95 1    
   186   94  215 1    
   187   95   96 1    
   188   95   97 1    
   189   95  216 1    
   190   96  217 1    
   191   96  218 1    
   192   96  219 1    
   193   97   98 2    
   194   97   99 am   BACKBONE|DICT|INTERRES
   195   99  100 1    
   196   99  220 1    
   197  100  101 1    
   198  100  102 1    
   199  100  221 1    
   200  101  222 1    
   201  101  223 1    
   202  101  224 1    
   203  102  103 2    
   204  102  104 am   BACKBONE|DICT|INTERRES
   205  104  105 1    
   206  104  225 1    
   207  105  106 1    
   208  105  107 1    
   209  105  226 1    
   210  106  227 1    
   211  106  228 1    
   212  106  229 1    
   213  107  108 2    
   214  107  109 am   BACKBONE|DICT|INTERRES
   215  109  110 1    
   216  109  230 1    
   217  110  111 1    
   218  110  112 1    
   219  110  231 1    
   220  111  232 1    
   221  111  233 1    
   222  111  234 1    
   223  112  113 2    
   224  112  114 am   BACKBONE|DICT|INTERRES
   225  114  115 1    
   226  114  235 1    
   227  115  116 1    
   228  115  117 1    
   229  115  236 1    
   230  116  237 1    
   231  116  238 1    
   232  116  239 1    
   233  117  118 2    
   234  117  119 am   BACKBONE|DICT|INTERRES
   235  119  120 1    
   236  119  240 1    
   237  120  121 1    
   238  120  124 1    
   239  120  241 1    
   240  121  122 am   BACKBONE|DICT|INTERRES
   241  121  123 2    
   242  122  242 1    
   243  122  243 1    
   244  124  125 1    
   245  124  244 1    
   246  124  245 1    
   247  125  126 1    
   248  126  246 1    
   249  126  247 1    
@<TRIPOS>SUBSTRUCTURE
     1 UNK         1 GROUP             0       ****    0 ROOT    
