@<TRIPOS>MOLECULE
3R540
247   249    1
SMALL
USER_CHARGES


@<TRIPOS>ATOM
      1 CA         -4.4941  -16.1506  -45.5689 C.3       0 UNK        -0.1800 
      2 C          -3.8673  -15.2239  -46.6012 C.2       0 UNK         0.5000 
      3 O          -4.4270  -14.1704  -46.9042 O.2       0 UNK        -0.5000 
      4 N          -2.7111  -15.6201  -47.1453 N.am      1 UNK        -0.5000 
      5 CA         -1.9153  -14.8517  -48.1019 C.3       1 UNK         0.1400 
      6 C6         -0.8978  -15.7641  -48.8262 C.3       23 UNK        -0.0398 
      7 S7         -0.2760  -15.0271  -50.3709 S.3       23 UNK        -0.2404 
      8 C8          1.5064  -14.9358  -50.0327 C.3       23 UNK        -0.0205 
      9 C9          2.1916  -16.2864  -50.1795 C.ar      23 UNK        -0.0193 
     10 C10         2.6679  -16.6979  -51.4268 C.ar      23 UNK        -0.1150 
     11 C11         3.3660  -17.9014  -51.5585 C.ar      23 UNK        -0.0193 
     12 C12         3.5747  -18.7026  -50.4321 C.ar      23 UNK        -0.1150 
     13 C13         3.0884  -18.3116  -49.1796 C.ar      23 UNK        -0.0193 
     14 C14         2.3989  -17.1021  -49.0638 C.ar      23 UNK        -0.1150 
     15 C15         3.3642  -19.1459  -47.9334 C.3       23 UNK        -0.0205 
     16 S16         2.9884  -20.9146  -48.1430 S.3       23 UNK        -0.2404 
     17 C17         1.1690  -20.9109  -48.2727 C.3       23 UNK        -0.0398 
     18 CA          0.5815  -22.2619  -47.8022 C.3       11 UNK         0.1400 
     19 N           0.8489  -22.5302  -46.3880 N.am      11 UNK        -0.5000 
     20 C           0.7499  -23.7324  -45.8079 C.2       10 UNK         0.5000 
     21 O           0.4468  -24.7625  -46.4104 O.2       10 UNK        -0.5000 
     22 CA          1.0006  -23.7784  -44.2892 C.3       10 UNK         0.1400 
     23 CB          2.5049  -23.8632  -43.9905 C.3       10 UNK        -0.1800 
     24 N           0.4324  -22.6233  -43.5901 N.am      10 UNK        -0.5000 
     25 C          -0.8821  -22.3938  -43.4655 C.2       9 UNK         0.5000 
     26 O          -1.7513  -23.1431  -43.9109 O.2       9 UNK        -0.5000 
     27 CA         -1.2964  -21.0851  -42.7654 C.3       9 UNK         0.1400 
     28 CB         -1.2788  -21.2598  -41.2396 C.3       9 UNK        -0.1800 
     29 N          -0.4859  -19.9170  -43.1250 N.am      9 UNK        -0.5000 
     30 C          -0.2662  -19.4722  -44.3706 C.2       8 UNK         0.5000 
     31 O          -0.6581  -20.0528  -45.3798 O.2       8 UNK        -0.5000 
     32 CA          0.4899  -18.1455  -44.5447 C.3       8 UNK         0.1400 
     33 CB         -0.4840  -17.0793  -45.0631 C.3       8 UNK        -0.1800 
     34 N           1.1535  -17.6642  -43.3312 N.am      8 UNK        -0.5000 
     35 C           2.2703  -18.2061  -42.8191 C.2       7 UNK         0.5000 
     36 O           2.8070  -19.2073  -43.2944 O.2       7 UNK        -0.5000 
     37 CA          2.9074  -17.5324  -41.5866 C.3       7 UNK         0.1400 
     38 CB          4.3048  -16.9875  -41.9239 C.3       7 UNK        -0.1800 
     39 N           2.0939  -16.4449  -41.0412 N.am      7 UNK        -0.5000 
     40 C           1.0822  -16.6153  -40.1783 C.2       6 UNK         0.5000 
     41 O           0.7482  -17.7128  -39.7308 O.2       6 UNK        -0.5000 
     42 CA          0.2903  -15.3574  -39.7646 C.3       6 UNK         0.1400 
     43 CB          0.8351  -14.7894  -38.4455 C.3       6 UNK        -0.1800 
     44 N           0.2913  -14.2976  -40.7768 N.am      6 UNK        -0.5000 
     45 C          -0.2315  -14.4113  -42.0048 C.2       5 UNK         0.5000 
     46 O          -0.7898  -15.4311  -42.4070 O.2       5 UNK        -0.5000 
     47 CA         -0.0751  -13.2149  -42.9638 C.3       5 UNK         0.1400 
     48 CB          0.2819  -11.8860  -42.2624 C.3       5 UNK        -0.1800 
     49 N           0.8853  -13.4994  -44.0326 N.am      5 UNK        -0.5000 
     50 C           2.1730  -13.8559  -43.9037 C.2       4 UNK         0.5000 
     51 O           2.7260  -14.0456  -42.8194 O.2       4 UNK        -0.5000 
     52 CA          2.9908  -14.0064  -45.1994 C.3       4 UNK         0.1400 
     53 CB          2.9537  -15.4528  -45.7124 C.3       4 UNK        -0.1800 
     54 N           2.5006  -13.1136  -46.2518 N.am      4 UNK        -0.5000 
     55 C           3.0966  -11.9714  -46.6217 C.2       3 UNK         0.5000 
     56 O           4.1686  -11.5777  -46.1602 O.2       3 UNK        -0.5000 
     57 CA          2.3797  -11.1115  -47.6837 C.3       3 UNK         0.1400 
     58 CB          2.9514  -11.3876  -49.0822 C.3       3 UNK        -0.1800 
     59 N           0.9276  -11.3059  -47.7047 N.am      3 UNK        -0.5000 
     60 C           0.1001  -10.8672  -46.7462 C.2       2 UNK         0.5000 
     61 O           0.4734  -10.2091  -45.7750 O.2       2 UNK        -0.5000 
     62 CA         -1.3929  -11.2297  -46.8731 C.3       2 UNK         0.1400 
     63 CB         -2.1736  -10.0584  -47.4885 C.3       2 UNK        -0.1800 
     64 N          -1.7019  -12.4509  -47.6271 N.am      2 UNK        -0.5000 
     65 C          -1.2350  -13.6788  -47.3657 C.2       1 UNK         0.5000 
     66 O          -0.3304  -13.9111  -46.5609 O.2       1 UNK        -0.5000 
     67 C          -0.9247  -22.3670  -48.0970 C.2       11 UNK         0.5000 
     68 O          -1.3018  -23.0066  -49.0750 O.2       11 UNK        -0.5000 
     69 N          -1.7622  -21.8127  -47.2096 N.am      12 UNK        -0.5000 
     70 CA         -3.2208  -21.8892  -47.2695 C.3       12 UNK         0.1400 
     71 CB         -3.8302  -21.0143  -46.1648 C.3       12 UNK        -0.1800 
     72 C          -3.7542  -23.3309  -47.2012 C.2       12 UNK         0.5000 
     73 O          -4.6606  -23.6752  -47.9603 O.2       12 UNK        -0.5000 
     74 N          -3.1523  -24.1591  -46.3360 N.am      13 UNK        -0.5000 
     75 CA         -3.4446  -25.5887  -46.2215 C.3       13 UNK         0.1400 
     76 CB         -2.7167  -26.1641  -44.9973 C.3       13 UNK        -0.1800 
     77 C          -3.0849  -26.3826  -47.4925 C.2       13 UNK         0.5000 
     78 O          -3.8232  -27.2964  -47.8616 O.2       13 UNK        -0.5000 
     79 N          -1.9737  -26.0131  -48.1447 N.am      14 UNK        -0.5000 
     80 CA         -1.5328  -26.5912  -49.4141 C.3       14 UNK         0.1400 
     81 CB         -0.0481  -26.2627  -49.6375 C.3       14 UNK        -0.1800 
     82 C          -2.3906  -26.1177  -50.6032 C.2       14 UNK         0.5000 
     83 O          -2.7298  -26.9278  -51.4664 O.2       14 UNK        -0.5000 
     84 N          -2.7220  -24.8191  -50.6241 N.am      15 UNK        -0.5000 
     85 CA         -3.5523  -24.1637  -51.6343 C.3       15 UNK         0.1400 
     86 CB         -3.5258  -22.6457  -51.3979 C.3       15 UNK        -0.1800 
     87 C          -5.0007  -24.6796  -51.6453 C.2       15 UNK         0.5000 
     88 O          -5.5441  -24.9231  -52.7239 O.2       15 UNK        -0.5000 
     89 N          -5.5820  -24.8486  -50.4481 N.am      16 UNK        -0.5000 
     90 CA         -6.9259  -25.3565  -50.1683 C.3       16 UNK         0.1400 
     91 CB         -7.0084  -26.8660  -50.4826 C.3       16 UNK        -0.1800 
     92 C          -8.0247  -24.5221  -50.8581 C.2       16 UNK         0.5000 
     93 O          -8.4723  -23.5248  -50.2913 O.2       16 UNK        -0.5000 
     94 N          -8.4373  -24.9426  -52.0610 N.am      17 UNK        -0.5000 
     95 CA         -9.4108  -24.2503  -52.9042 C.3       17 UNK         0.1400 
     96 CB         -9.9560  -25.2392  -53.9463 C.3       17 UNK        -0.1800 
     97 C          -8.8356  -22.9993  -53.5981 C.2       17 UNK         0.5000 
     98 O          -9.6044  -22.0954  -53.9305 O.2       17 UNK        -0.5000 
     99 N          -7.5126  -22.9616  -53.8167 N.am      18 UNK        -0.5000 
    100 CA        -6.8065  -21.8068  -54.3750 C.3       18 UNK         0.1400 
    101 CB        -5.4494  -22.2599  -54.9369 C.3       18 UNK        -0.1800 
    102 C         -6.6422  -20.6851  -53.3308 C.2       18 UNK         0.5000 
    103 O         -6.6899  -20.9453  -52.1258 O.2       18 UNK        -0.5000 
    104 N         -6.4445  -19.4520  -53.8138 N.am      19 UNK        -0.5000 
    105 CA        -6.3993  -18.2091  -53.0353 C.3       19 UNK         0.1400 
    106 CB        -6.6562  -17.0291  -53.9907 C.3       19 UNK        -0.1800 
    107 C         -5.1081  -18.0262  -52.2040 C.2       19 UNK         0.5000 
    108 O         -4.4191  -17.0146  -52.3445 O.2       19 UNK        -0.5000 
    109 N         -4.8074  -19.0139  -51.3526 N.am      20 UNK        -0.5000 
    110 CA        -3.7339  -19.1117  -50.3540 C.3       20 UNK         0.1400 
    111 CB        -3.8962  -18.0415  -49.2618 C.3       20 UNK        -0.1800 
    112 C         -2.2912  -19.1522  -50.9010 C.2       20 UNK         0.5000 
    113 O         -1.4561  -19.8528  -50.3317 O.2       20 UNK        -0.5000 
    114 N         -2.0186  -18.4367  -51.9943 N.am      21 UNK        -0.5000 
    115 CA        -0.7936  -18.5390  -52.7785 C.3       21 UNK         0.1400 
    116 CB        -0.6734  -17.2848  -53.6603 C.3       21 UNK        -0.1800 
    117 C         -0.8669  -19.8154  -53.6497 C.2       21 UNK         0.5000 
    118 O         -1.7861  -19.9032  -54.4648 O.2       21 UNK        -0.5000 
    119 N          0.0302  -20.8044  -53.5417 N.am      22 UNK        -0.5000 
    120 CA         1.1347  -20.9877  -52.5801 C.3       22 UNK         0.1400 
    121 C          1.0961  -22.3916  -51.9041 C.2       22 UNK         0.5000 
    122 N          0.0754  -23.2122  -52.1203 N.am      22 UNK        -0.7600 
    123 O          2.0074  -22.7482  -51.1644 O.2       22 UNK        -0.5000 
    124 C124        2.5181  -20.7340  -53.2387 C.3       23 UNK        -0.0398 
    125 S125        2.6910  -19.0757  -53.9825 S.3       23 UNK        -0.2404 
    126 C126        3.9386  -18.3037  -52.9086 C.3       23 UNK        -0.0205 
    127 H127       -5.5090  -16.4130  -45.8674 H         1 UNK         0.0600 
    128 H128       -4.5389  -15.6551  -44.5991 H         1 UNK         0.0600 
    129 H129       -3.9258  -17.0741  -45.4533 H         1 UNK         0.0600 
    130 H130       -2.2914  -16.4766  -46.8189 H         1 UNK         0.3000 
    131 H131       -2.6022  -14.4513  -48.8512 H         1 UNK         0.0600 
    132 H132       -1.3664  -16.7059  -49.1087 H         1 UNK         0.0800 
    133 H133       -0.0788  -16.0369  -48.1621 H         1 UNK         0.0800 
    134 H134        1.6738  -14.5287  -49.0344 H         1 UNK         0.0800 
    135 H135        1.9536  -14.2271  -50.7309 H         1 UNK         0.0800 
    136 H136        2.5153  -16.0696  -52.2933 H         1 UNK         0.1150 
    137 H137        4.1315  -19.6244  -50.5246 H         1 UNK         0.1150 
    138 H138        2.0479  -16.7831  -48.0954 H         1 UNK         0.1150 
    139 H139        4.4206  -19.0449  -47.6819 H         1 UNK         0.0800 
    140 H140        2.8098  -18.7656  -47.0750 H         1 UNK         0.0800 
    141 H141        0.9091  -20.7186  -49.3141 H         1 UNK         0.0800 
    142 H142        0.7561  -20.0828  -47.6950 H         1 UNK         0.0800 
    143 H143        1.0669  -23.0484  -48.3850 H         1 UNK         0.0600 
    144 H144        1.0497  -21.7273  -45.8108 H         1 UNK         0.3000 
    145 H145        0.5237  -24.6810  -43.9009 H         1 UNK         0.0600 
    146 H146        2.6889  -23.9749  -42.9218 H         1 UNK         0.0600 
    147 H147        2.9533  -24.7238  -44.4886 H         1 UNK         0.0600 
    148 H148        3.0351  -22.9730  -44.3316 H         1 UNK         0.0600 
    149 H149        1.0805  -21.9474  -43.2120 H         1 UNK         0.3000 
    150 H150       -2.3225  -20.8679  -43.0679 H         1 UNK         0.0600 
    151 H151       -1.8902  -22.1107  -40.9359 H         1 UNK         0.0600 
    152 H152       -1.6779  -20.3787  -40.7367 H         1 UNK         0.0600 
    153 H153       -0.2685  -21.4300  -40.8654 H         1 UNK         0.0600 
    154 H154       -0.1278  -19.3644  -42.3598 H         1 UNK         0.3000 
    155 H155        1.2557  -18.3010  -45.3064 H         1 UNK         0.0600 
    156 H156       -1.3836  -17.0210  -44.4490 H         1 UNK         0.0600 
    157 H157       -0.7942  -17.3181  -46.0796 H         1 UNK         0.0600 
    158 H158       -0.0350  -16.0888  -45.0780 H         1 UNK         0.0600 
    159 H159        0.7294  -16.8661  -42.8725 H         1 UNK         0.3000 
    160 H160        3.0282  -18.3052  -40.8246 H         1 UNK         0.0600 
    161 H161        4.2678  -16.2294  -42.7056 H         1 UNK         0.0600 
    162 H162        4.9625  -17.7844  -42.2732 H         1 UNK         0.0600 
    163 H163        4.7755  -16.5413  -41.0477 H         1 UNK         0.0600 
    164 H164        2.2879  -15.5144  -41.3978 H         1 UNK         0.3000 
    165 H165       -0.7457  -15.6628  -39.6038 H         1 UNK         0.0600 
    166 H166        0.2309  -13.9518  -38.0965 H         1 UNK         0.0600 
    167 H167        0.8237  -15.5460  -37.6597 H         1 UNK         0.0600 
    168 H168        1.8635  -14.4419  -38.5519 H         1 UNK         0.0600 
    169 H169        0.7658  -13.4398  -40.5349 H         1 UNK         0.3000 
    170 H170       -1.0440  -13.0832  -43.4477 H         1 UNK         0.0600 
    171 H171       -0.4444  -11.6426  -41.4859 H         1 UNK         0.0600 
    172 H172        1.2698  -11.9106  -41.8017 H         1 UNK         0.0600 
    173 H173        0.2759  -11.0613  -42.9755 H         1 UNK         0.0600 
    174 H174        0.4941  -13.4824  -44.9703 H         1 UNK         0.3000 
    175 H175        4.0281  -13.7718  -44.9517 H         1 UNK         0.0600 
    176 H176        1.9578  -15.7304  -46.0513 H         1 UNK         0.0600 
    177 H177        3.6389  -15.5856  -46.5497 H         1 UNK         0.0600 
    178 H178        3.2508  -16.1582  -44.9366 H         1 UNK         0.0600 
    179 H179        1.5917  -13.3359  -46.6417 H         1 UNK         0.3000 
    180 H180        2.5772  -10.0645  -47.4435 H         1 UNK         0.0600 
    181 H181        2.8213  -12.4284  -49.3735 H         1 UNK         0.0600 
    182 H182        4.0204  -11.1730  -49.1134 H         1 UNK         0.0600 
    183 H183        2.4736  -10.7626  -49.8368 H         1 UNK         0.0600 
    184 H184        0.5406  -11.8307  -48.4750 H         1 UNK         0.3000 
    185 H185       -1.7635  -11.3847  -45.8577 H         1 UNK         0.0600 
    186 H186       -1.9959   -9.1343  -46.9367 H         1 UNK         0.0600 
    187 H187       -1.8826   -9.8833  -48.5250 H         1 UNK         0.0600 
    188 H188       -3.2476  -10.2444  -47.4671 H         1 UNK         0.0600 
    189 H189       -2.4500  -12.3649  -48.3001 H         1 UNK         0.3000 
    190 H190       -1.3659  -21.2717  -46.4425 H         1 UNK         0.3000 
    191 H191       -3.5263  -21.4793  -48.2298 H         1 UNK         0.0600 
    192 H192       -3.5468  -21.3656  -45.1728 H         1 UNK         0.0600 
    193 H193       -4.9195  -21.0209  -46.2180 H         1 UNK         0.0600 
    194 H194       -3.5052  -19.9778  -46.2585 H         1 UNK         0.0600 
    195 H195       -2.4534  -23.7843  -45.7025 H         1 UNK         0.3000 
    196 H196       -4.5190  -25.6966  -46.0587 H         1 UNK         0.0600 
    197 H197       -2.9256  -27.2283  -44.8820 H         1 UNK         0.0600 
    198 H198       -3.0368  -25.6689  -44.0804 H         1 UNK         0.0600 
    199 H199       -1.6358  -26.0475  -45.0800 H         1 UNK         0.0600 
    200 H200       -1.4103  -25.2635  -47.7641 H         1 UNK         0.3000 
    201 H201       -1.6278  -27.6772  -49.3483 H         1 UNK         0.0600 
    202 H202        0.5680  -26.6721  -48.8367 H         1 UNK         0.0600 
    203 H203        0.1310  -25.1883  -49.6744 H         1 UNK         0.0600 
    204 H204        0.3105  -26.6897  -50.5749 H         1 UNK         0.0600 
    205 H205       -2.3290  -24.2099  -49.9079 H         1 UNK         0.3000 
    206 H206       -3.1150  -24.3684  -52.6135 H         1 UNK         0.0600 
    207 H207       -2.5112  -22.2523  -51.4434 H         1 UNK         0.0600 
    208 H208       -4.1124  -22.1100  -52.1418 H         1 UNK         0.0600 
    209 H209       -3.9358  -22.3935  -50.4208 H         1 UNK         0.0600 
    210 H210       -5.0668  -24.5445  -49.6256 H         1 UNK         0.3000 
    211 H211       -7.0774  -25.2391  -49.0941 H         1 UNK         0.0600 
    212 H212       -6.7707  -27.0906  -51.5226 H         1 UNK         0.0600 
    213 H213       -8.0068  -27.2547  -50.2785 H         1 UNK         0.0600 
    214 H214       -6.3103  -27.4269  -49.8605 H         1 UNK         0.0600 
    215 H215       -7.9758  -25.7444  -52.4665 H         1 UNK         0.3000 
    216 H216      -10.2431  -23.9254  -52.2762 H         1 UNK         0.0600 
    217 H217      -10.7086  -24.7656  -54.5782 H         1 UNK         0.0600 
    218 H218      -10.4288  -26.0968  -53.4672 H         1 UNK         0.0600 
    219 H219       -9.1658  -25.6116  -54.5995 H         1 UNK         0.0600 
    220 H220       -6.9363  -23.7215  -53.4681 H         1 UNK         0.3000 
    221 H221       -7.3961  -21.4087  -55.2037 H         1 UNK         0.0600 
    222 H222       -4.8334  -22.7440  -54.1821 H         1 UNK         0.0600 
    223 H223       -5.5841  -22.9690  -55.7538 H         1 UNK         0.0600 
    224 H224       -4.8812  -21.4165  -55.3315 H         1 UNK         0.0600 
    225 H225       -6.3709  -19.3377  -54.8145 H         1 UNK         0.3000 
    226 H226       -7.2245  -18.2324  -52.3204 H         1 UNK         0.0600 
    227 H227       -7.6101  -17.1389  -54.5070 H         1 UNK         0.0600 
    228 H228       -6.6930  -16.0839  -53.4474 H         1 UNK         0.0600 
    229 H229       -5.8731  -16.9448  -54.7453 H         1 UNK         0.0600 
    230 H230       -5.4340  -19.8160  -51.3861 H         1 UNK         0.3000 
    231 H231       -3.8977  -20.0759  -49.8791 H         1 UNK         0.0600 
    232 H232       -3.1736  -18.1973  -48.4603 H         1 UNK         0.0600 
    233 H233       -4.8882  -18.0834  -48.8121 H         1 UNK         0.0600 
    234 H234       -3.7493  -17.0353  -49.6551 H         1 UNK         0.0600 
    235 H235       -2.7690  -17.8718  -52.3815 H         1 UNK         0.3000 
    236 H236        0.0606  -18.5321  -52.1055 H         1 UNK         0.0600 
    237 H237       -1.5255  -17.1766  -54.3326 H         1 UNK         0.0600 
    238 H238       -0.6124  -16.3819  -53.0535 H         1 UNK         0.0600 
    239 H239        0.2269  -17.3233  -54.2737 H         1 UNK         0.0600 
    240 H240       -0.0647  -21.5734  -54.1875 H         1 UNK         0.3000 
    241 H241        1.0326  -20.3083  -51.7378 H         1 UNK         0.0600 
    242 H242        0.0685  -24.1053  -51.6582 H         1 UNK         0.3800 
    243 H243       -0.7116  -22.9287  -52.6778 H         1 UNK         0.3800 
    244 H244        3.3195  -20.8824  -52.5136 H         1 UNK         0.0800 
    245 H245        2.6944  -21.4671  -54.0274 H         1 UNK         0.0800 
    246 H246        4.3284  -17.4173  -53.4113 H         1 UNK         0.0800 
    247 H247        4.7894  -18.9756  -52.7857 H         1 UNK         0.0800 
@<TRIPOS>BOND
     1    1    2 1    
     2    1  127 1    
     3    1  128 1    
     4    1  129 1    
     5    2    3 2    
     6    2    4 am   BACKBONE|DICT|INTERRES
     7    4    5 1    
     8    4  130 1    
     9    5    6 1    
    10    5   65 1    
    11    5  131 1    
    12    6    7 1    
    13    6  132 1    
    14    6  133 1    
    15    7    8 1    
    16    8    9 1    
    17    8  134 1    
    18    8  135 1    
    19    9   10 ar   
    20    9   14 ar   
    21   10   11 ar   
    22   10  136 1    
    23   11   12 ar   
    24   11  126 1    
    25   12   13 ar   
    26   12  137 1    
    27   13   14 ar   
    28   13   15 1    
    29   14  138 1    
    30   15   16 1    
    31   15  139 1    
    32   15  140 1    
    33   16   17 1    
    34   17   18 1    
    35   17  141 1    
    36   17  142 1    
    37   18   19 1    
    38   18   67 1    
    39   18  143 1    
    40   19   20 am   BACKBONE|DICT|INTERRES
    41   19  144 1    
    42   20   21 2    
    43   20   22 1    
    44   22   23 1    
    45   22   24 1    
    46   22  145 1    
    47   23  146 1    
    48   23  147 1    
    49   23  148 1    
    50   24   25 am   BACKBONE|DICT|INTERRES
    51   24  149 1    
    52   25   26 2    
    53   25   27 1    
    54   27   28 1    
    55   27   29 1    
    56   27  150 1    
    57   28  151 1    
    58   28  152 1    
    59   28  153 1    
    60   29   30 am   BACKBONE|DICT|INTERRES
    61   29  154 1    
    62   30   31 2    
    63   30   32 1    
    64   32   33 1    
    65   32   34 1    
    66   32  155 1    
    67   33  156 1    
    68   33  157 1    
    69   33  158 1    
    70   34   35 am   BACKBONE|DICT|INTERRES
    71   34  159 1    
    72   35   36 2    
    73   35   37 1    
    74   37   38 1    
    75   37   39 1    
    76   37  160 1    
    77   38  161 1    
    78   38  162 1    
    79   38  163 1    
    80   39   40 am   BACKBONE|DICT|INTERRES
    81   39  164 1    
    82   40   41 2    
    83   40   42 1    
    84   42   43 1    
    85   42   44 1    
    86   42  165 1    
    87   43  166 1    
    88   43  167 1    
    89   43  168 1    
    90   44   45 am   BACKBONE|DICT|INTERRES
    91   44  169 1    
    92   45   46 2    
    93   45   47 1    
    94   47   48 1    
    95   47   49 1    
    96   47  170 1    
    97   48  171 1    
    98   48  172 1    
    99   48  173 1    
   100   49   50 am   BACKBONE|DICT|INTERRES
   101   49  174 1    
   102   50   51 2    
   103   50   52 1    
   104   52   53 1    
   105   52   54 1    
   106   52  175 1    
   107   53  176 1    
   108   53  177 1    
   109   53  178 1    
   110   54   55 am   BACKBONE|DICT|INTERRES
   111   54  179 1    
   112   55   56 2    
   113   55   57 1    
   114   57   58 1    
   115   57   59 1    
   116   57  180 1    
   117   58  181 1    
   118   58  182 1    
   119   58  183 1    
   120   59   60 am   BACKBONE|DICT|INTERRES
   121   59  184 1    
   122   60   61 2    
   123   60   62 1    
   124   62   63 1    
   125   62   64 1    
   126   62  185 1    
   127   63  186 1    
   128   63  187 1    
   129   63  188 1    
   130   64   65 am   BACKBONE|DICT|INTERRES
   131   64  189 1    
   132   65   66 2    
   133   67   68 2    
   134   67   69 am   BACKBONE|DICT|INTERRES
   135   69   70 1    
   136   69  190 1    
   137   70   71 1    
   138   70   72 1    
   139   70  191 1    
   140   71  192 1    
   141   71  193 1    
   142   71  194 1    
   143   72   73 2    
   144   72   74 am   BACKBONE|DICT|INTERRES
   145   74   75 1    
   146   74  195 1    
   147   75   76 1    
   148   75   77 1    
   149   75  196 1    
   150   76  197 1    
   151   76  198 1    
   152   76  199 1    
   153   77   78 2    
   154   77   79 am   BACKBONE|DICT|INTERRES
   155   79   80 1    
   156   79  200 1    
   157   80   81 1    
   158   80   82 1    
   159   80  201 1    
   160   81  202 1    
   161   81  203 1    
   162   81  204 1    
   163   82   83 2    
   164   82   84 am   BACKBONE|DICT|INTERRES
   165   84   85 1    
   166   84  205 1    
   167   85   86 1    
   168   85   87 1    
   169   85  206 1    
   170   86  207 1    
   171   86  208 1    
   172   86  209 1    
   173   87   88 2    
   174   87   89 am   BACKBONE|DICT|INTERRES
   175   89   90 1    
   176   89  210 1    
   177   90   91 1    
   178   90   92 1    
   179   90  211 1    
   180   91  212 1    
   181   91  213 1    
   182   91  214 1    
   183   92   93 2    
   184   92   94 am   BACKBONE|DICT|INTERRES
   185   94   95 1    
   186   94  215 1    
   187   95   96 1    
   188   95   97 1    
   189   95  216 1    
   190   96  217 1    
   191   96  218 1    
   192   96  219 1    
   193   97   98 2    
   194   97   99 am   BACKBONE|DICT|INTERRES
   195   99  100 1    
   196   99  220 1    
   197  100  101 1    
   198  100  102 1    
   199  100  221 1    
   200  101  222 1    
   201  101  223 1    
   202  101  224 1    
   203  102  103 2    
   204  102  104 am   BACKBONE|DICT|INTERRES
   205  104  105 1    
   206  104  225 1    
   207  105  106 1    
   208  105  107 1    
   209  105  226 1    
   210  106  227 1    
   211  106  228 1    
   212  106  229 1    
   213  107  108 2    
   214  107  109 am   BACKBONE|DICT|INTERRES
   215  109  110 1    
   216  109  230 1    
   217  110  111 1    
   218  110  112 1    
   219  110  231 1    
   220  111  232 1    
   221  111  233 1    
   222  111  234 1    
   223  112  113 2    
   224  112  114 am   BACKBONE|DICT|INTERRES
   225  114  115 1    
   226  114  235 1    
   227  115  116 1    
   228  115  117 1    
   229  115  236 1    
   230  116  237 1    
   231  116  238 1    
   232  116  239 1    
   233  117  118 2    
   234  117  119 am   BACKBONE|DICT|INTERRES
   235  119  120 1    
   236  119  240 1    
   237  120  121 1    
   238  120  124 1    
   239  120  241 1    
   240  121  122 am   BACKBONE|DICT|INTERRES
   241  121  123 2    
   242  122  242 1    
   243  122  243 1    
   244  124  125 1    
   245  124  244 1    
   246  124  245 1    
   247  125  126 1    
   248  126  246 1    
   249  126  247 1    
@<TRIPOS>SUBSTRUCTURE
     1 UNK         1 GROUP             0       ****    0 ROOT    
