@<TRIPOS>MOLECULE
3R540
247   249    1
SMALL
USER_CHARGES


@<TRIPOS>ATOM
      1 CA         -0.5966   -9.1935  -46.5599 C.3       0 UNK        -0.1800 
      2 C           0.2795  -10.4181  -46.3420 C.2       0 UNK         0.5000 
      3 O           0.4894  -10.8232  -45.1996 O.2       0 UNK        -0.5000 
      4 N           0.8116  -10.9938  -47.4302 N.am      1 UNK        -0.5000 
      5 CA          1.6132  -12.2313  -47.4757 C.3       1 UNK         0.1400 
      6 C6          0.8189  -13.4925  -47.0320 C.3       23 UNK        -0.0398 
      7 S7         -0.7423  -13.7445  -47.9411 S.3       23 UNK        -0.2404 
      8 C8         -0.8265  -15.5617  -47.9937 C.3       23 UNK        -0.0205 
      9 C9         -0.1042  -16.1326  -49.2043 C.ar      23 UNK        -0.0193 
     10 C10        -0.7699  -16.2221  -50.4306 C.ar      23 UNK        -0.1150 
     11 C11        -0.1337  -16.7691  -51.5478 C.ar      23 UNK        -0.0193 
     12 C12         1.1845  -17.2191  -51.4326 C.ar      23 UNK        -0.1150 
     13 C13         1.8634  -17.1399  -50.2129 C.ar      23 UNK        -0.0193 
     14 C14         1.2130  -16.5920  -49.1012 C.ar      23 UNK        -0.1150 
     15 C15         3.3051  -17.6310  -50.1197 C.3       23 UNK        -0.0205 
     16 S16         3.5961  -18.8110  -48.7604 S.3       23 UNK        -0.2404 
     17 C17         2.2969  -20.0591  -49.0523 C.3       23 UNK        -0.0398 
     18 CA          2.6535  -21.4510  -48.4712 C.3       11 UNK         0.1400 
     19 N           2.8460  -21.4105  -47.0166 N.am      11 UNK        -0.5000 
     20 C           3.4887  -22.3424  -46.3010 C.2       10 UNK         0.5000 
     21 O           3.9958  -23.3518  -46.7914 O.2       10 UNK        -0.5000 
     22 CA          3.5637  -22.1179  -44.7789 C.3       10 UNK         0.1400 
     23 CB          4.6725  -21.1143  -44.4268 C.3       10 UNK        -0.1800 
     24 N           2.2938  -21.6660  -44.2072 N.am      10 UNK        -0.5000 
     25 C           1.1955  -22.4274  -44.1011 C.2       9 UNK         0.5000 
     26 O           1.1380  -23.6008  -44.4689 O.2       9 UNK        -0.5000 
     27 CA         -0.0603  -21.7624  -43.5069 C.3       9 UNK         0.1400 
     28 CB         -0.0013  -21.7560  -41.9724 C.3       9 UNK        -0.1800 
     29 N          -0.2617  -20.3982  -43.9920 N.am      9 UNK        -0.5000 
     30 C          -0.5326  -20.0807  -45.2644 C.2       8 UNK         0.5000 
     31 O          -0.7148  -20.9125  -46.1535 O.2       8 UNK        -0.5000 
     32 CA         -0.5696  -18.5842  -45.6178 C.3       8 UNK         0.1400 
     33 CB         -1.9481  -17.9896  -45.2953 C.3       8 UNK        -0.1800 
     34 N           0.4849  -17.8107  -44.9601 N.am      8 UNK        -0.5000 
     35 C           1.7952  -18.0502  -45.1147 C.2       7 UNK         0.5000 
     36 O           2.2405  -18.9498  -45.8211 O.2       7 UNK        -0.5000 
     37 CA          2.7715  -17.1854  -44.3060 C.3       7 UNK         0.1400 
     38 CB          2.9603  -15.8165  -44.9660 C.3       7 UNK        -0.1800 
     39 N           2.3341  -17.0286  -42.9214 N.am      7 UNK        -0.5000 
     40 C           2.3088  -18.0306  -42.0313 C.2       6 UNK         0.5000 
     41 O           2.7374  -19.1627  -42.2583 O.2       6 UNK        -0.5000 
     42 CA          1.6321  -17.7289  -40.6842 C.3       6 UNK         0.1400 
     43 CB          2.6086  -17.0433  -39.7168 C.3       6 UNK        -0.1800 
     44 N           0.4328  -16.9058  -40.8546 N.am      6 UNK        -0.5000 
     45 C          -0.6978  -17.3521  -41.4219 C.2       5 UNK         0.5000 
     46 O          -0.8456  -18.5050  -41.8268 O.2       5 UNK        -0.5000 
     47 CA         -1.8493  -16.3455  -41.5967 C.3       5 UNK         0.1400 
     48 CB         -2.7667  -16.3622  -40.3652 C.3       5 UNK        -0.1800 
     49 N          -1.4080  -14.9738  -41.8475 N.am      5 UNK        -0.5000 
     50 C          -0.7042  -14.5638  -42.9117 C.2       4 UNK         0.5000 
     51 O          -0.3152  -15.3199  -43.8027 O.2       4 UNK        -0.5000 
     52 CA         -0.3714  -13.0585  -42.9987 C.3       4 UNK         0.1400 
     53 CB         -1.0139  -12.2064  -41.8816 C.3       4 UNK        -0.1800 
     54 N           1.0671  -12.7708  -43.0583 N.am      4 UNK        -0.5000 
     55 C           2.0219  -13.2346  -42.2362 C.2       3 UNK         0.5000 
     56 O           1.8221  -14.1013  -41.3834 O.2       3 UNK        -0.5000 
     57 CA          3.4266  -12.6134  -42.3650 C.3       3 UNK         0.1400 
     58 CB          4.5517  -13.5769  -41.9405 C.3       3 UNK        -0.1800 
     59 N           3.6908  -12.0955  -43.7098 N.am      3 UNK        -0.5000 
     60 C           4.3221  -10.9467  -43.9858 C.2       2 UNK         0.5000 
     61 O           4.7462  -10.1833  -43.1170 O.2       2 UNK        -0.5000 
     62 CA          4.5063  -10.5533  -45.4696 C.3       2 UNK         0.1400 
     63 CB          5.8506  -11.0674  -46.0202 C.3       2 UNK        -0.1800 
     64 N           3.3817  -10.9152  -46.3450 N.am      2 UNK        -0.5000 
     65 C           2.9567  -12.1335  -46.7087 C.2       1 UNK         0.5000 
     66 O           3.5620  -13.1630  -46.4168 O.2       1 UNK        -0.5000 
     67 C           1.5836  -22.4788  -48.8980 C.2       11 UNK         0.5000 
     68 O           1.5770  -22.8761  -50.0606 O.2       11 UNK        -0.5000 
     69 N           0.6936  -22.8637  -47.9702 N.am      12 UNK        -0.5000 
     70 CA         -0.5280  -23.6523  -48.1769 C.3       12 UNK         0.1400 
     71 CB         -0.2402  -25.0368  -48.7936 C.3       12 UNK        -0.1800 
     72 C          -1.6205  -22.8629  -48.9305 C.2       12 UNK         0.5000 
     73 O          -2.4848  -23.4525  -49.5790 O.2       12 UNK        -0.5000 
     74 N          -1.6009  -21.5327  -48.7755 N.am      13 UNK        -0.5000 
     75 CA         -2.6634  -20.6236  -49.2024 C.3       13 UNK         0.1400 
     76 CB         -2.0810  -19.2163  -49.3802 C.3       13 UNK        -0.1800 
     77 C          -3.8419  -20.6083  -48.2079 C.2       13 UNK         0.5000 
     78 O          -4.9306  -20.1649  -48.5672 O.2       13 UNK        -0.5000 
     79 N          -3.6153  -21.1173  -46.9874 N.am      14 UNK        -0.5000 
     80 CA         -4.6324  -21.3420  -45.9575 C.3       14 UNK         0.1400 
     81 CB         -3.9274  -21.5266  -44.6038 C.3       14 UNK        -0.1800 
     82 C          -5.5609  -22.5412  -46.2558 C.2       14 UNK         0.5000 
     83 O          -6.5575  -22.7167  -45.5528 O.2       14 UNK        -0.5000 
     84 N          -5.2229  -23.3499  -47.2718 N.am      15 UNK        -0.5000 
     85 CA         -6.0322  -24.4569  -47.7840 C.3       15 UNK         0.1400 
     86 CB         -5.1884  -25.2435  -48.8012 C.3       15 UNK        -0.1800 
     87 C          -7.3437  -23.9773  -48.4391 C.2       15 UNK         0.5000 
     88 O          -7.4869  -22.7915  -48.7500 O.2       15 UNK        -0.5000 
     89 N          -8.2662  -24.9208  -48.6756 N.am      16 UNK        -0.5000 
     90 CA         -9.5408  -24.7059  -49.3668 C.3       16 UNK         0.1400 
     91 CB        -10.3049  -26.0366  -49.4458 C.3       16 UNK        -0.1800 
     92 C          -9.3285  -24.1073  -50.7702 C.2       16 UNK         0.5000 
     93 O          -8.6670  -24.7322  -51.6030 O.2       16 UNK        -0.5000 
     94 N          -9.8213  -22.8753  -50.9668 N.am      17 UNK        -0.5000 
     95 CA         -9.6358  -22.0262  -52.1525 C.3       17 UNK         0.1400 
     96 CB        -10.4145  -22.6048  -53.3527 C.3       17 UNK        -0.1800 
     97 C          -8.1511  -21.7537  -52.4908 C.2       17 UNK         0.5000 
     98 O          -7.8135  -21.5770  -53.6624 O.2       17 UNK        -0.5000 
     99 N          -7.2784  -21.7854  -51.4692 N.am      18 UNK        -0.5000 
    100 CA        -5.8138  -21.7225  -51.5485 C.3       18 UNK         0.1400 
    101 CB        -5.3571  -20.3217  -52.0109 C.3       18 UNK        -0.1800 
    102 C         -5.2030  -22.8543  -52.4025 C.2       18 UNK         0.5000 
    103 O         -4.1498  -22.6618  -53.0104 O.2       18 UNK        -0.5000 
    104 N         -5.9104  -23.9914  -52.5087 N.am      19 UNK        -0.5000 
    105 CA        -5.6385  -25.1116  -53.4192 C.3       19 UNK         0.1400 
    106 CB        -4.3395  -25.8373  -53.0107 C.3       19 UNK        -0.1800 
    107 C         -5.6465  -24.7057  -54.9143 C.2       19 UNK         0.5000 
    108 O         -5.0806  -25.4192  -55.7433 O.2       19 UNK        -0.5000 
    109 N         -6.2699  -23.5559  -55.2229 N.am      20 UNK        -0.5000 
    110 CA        -6.3442  -22.8742  -56.5170 C.3       20 UNK         0.1400 
    111 CB        -7.1451  -23.7190  -57.5299 C.3       20 UNK        -0.1800 
    112 C         -4.9798  -22.4090  -57.0772 C.2       20 UNK         0.5000 
    113 O         -4.8935  -22.1334  -58.2759 O.2       20 UNK        -0.5000 
    114 N         -3.9398  -22.3208  -56.2321 N.am      21 UNK        -0.5000 
    115 CA        -2.5706  -22.0241  -56.6709 C.3       21 UNK         0.1400 
    116 CB        -1.9279  -23.3122  -57.2245 C.3       21 UNK        -0.1800 
    117 C         -1.6625  -21.3935  -55.5977 C.2       21 UNK         0.5000 
    118 O         -0.5618  -20.9669  -55.9496 O.2       21 UNK        -0.5000 
    119 N         -2.0947  -21.3617  -54.3294 N.am      22 UNK        -0.5000 
    120 CA        -1.2711  -21.0847  -53.1401 C.3       22 UNK         0.1400 
    121 C         -0.2197  -22.2075  -52.9290 C.2       22 UNK         0.5000 
    122 N         -0.6620  -23.4012  -52.5550 N.am      22 UNK        -0.7600 
    123 O          0.9776  -22.0153  -53.1245 O.2       22 UNK        -0.5000 
    124 C124       -0.6565  -19.6599  -53.0809 C.3       23 UNK        -0.0398 
    125 S125       -1.9167  -18.3453  -52.9987 S.3       23 UNK        -0.2404 
    126 C126       -0.8654  -16.8611  -52.8808 C.3       23 UNK        -0.0205 
    127 H127       -0.6852   -8.9407  -47.6167 H         1 UNK         0.0600 
    128 H128       -0.1767   -8.3342  -46.0372 H         1 UNK         0.0600 
    129 H129       -1.5973   -9.3765  -46.1686 H         1 UNK         0.0600 
    130 H130        0.6070  -10.5924  -48.3349 H         1 UNK         0.3000 
    131 H131        1.8870  -12.3702  -48.5225 H         1 UNK         0.0600 
    132 H132        0.5857  -13.4508  -45.9675 H         1 UNK         0.0800 
    133 H133        1.4338  -14.3817  -47.1708 H         1 UNK         0.0800 
    134 H134       -0.4153  -15.9733  -47.0717 H         1 UNK         0.0800 
    135 H135       -1.8743  -15.8647  -48.0197 H         1 UNK         0.0800 
    136 H136       -1.7895  -15.8728  -50.5139 H         1 UNK         0.1150 
    137 H137        1.6813  -17.6353  -52.2977 H         1 UNK         0.1150 
    138 H138        1.7326  -16.5340  -48.1554 H         1 UNK         0.1150 
    139 H139        3.6134  -18.1023  -51.0542 H         1 UNK         0.0800 
    140 H140        3.9593  -16.7696  -49.9808 H         1 UNK         0.0800 
    141 H141        1.3653  -19.6889  -48.6199 H         1 UNK         0.0800 
    142 H142        2.1308  -20.1289  -50.1295 H         1 UNK         0.0800 
    143 H143        3.5945  -21.7699  -48.9247 H         1 UNK         0.0600 
    144 H144        2.5271  -20.5647  -46.5445 H         1 UNK         0.3000 
    145 H145        3.8186  -23.0734  -44.3156 H         1 UNK         0.0600 
    146 H146        4.7709  -20.9985  -43.3473 H         1 UNK         0.0600 
    147 H147        4.4773  -20.1293  -44.8512 H         1 UNK         0.0600 
    148 H148        5.6376  -21.4498  -44.8082 H         1 UNK         0.0600 
    149 H149        2.2601  -20.7096  -43.8761 H         1 UNK         0.3000 
    150 H150       -0.9236  -22.3578  -43.8097 H         1 UNK         0.0600 
    151 H151        0.8191  -21.1393  -41.6035 H         1 UNK         0.0600 
    152 H152       -0.9269  -21.3691  -41.5457 H         1 UNK         0.0600 
    153 H153        0.1413  -22.7641  -41.5813 H         1 UNK         0.0600 
    154 H154       -0.1953  -19.6545  -43.3037 H         1 UNK         0.3000 
    155 H155       -0.3958  -18.4958  -46.6906 H         1 UNK         0.0600 
    156 H156       -2.7249  -18.4618  -45.8976 H         1 UNK         0.0600 
    157 H157       -1.9845  -16.9197  -45.4981 H         1 UNK         0.0600 
    158 H158       -2.2132  -18.1402  -44.2495 H         1 UNK         0.0600 
    159 H159        0.1940  -17.0173  -44.3936 H         1 UNK         0.3000 
    160 H160        3.7387  -17.6924  -44.3054 H         1 UNK         0.0600 
    161 H161        2.0683  -15.1974  -44.8847 H         1 UNK         0.0600 
    162 H162        3.1913  -15.9242  -46.0268 H         1 UNK         0.0600 
    163 H163        3.7887  -15.2724  -44.5173 H         1 UNK         0.0600 
    164 H164        1.9268  -16.1406  -42.6599 H         1 UNK         0.3000 
    165 H165        1.3320  -18.6810  -40.2409 H         1 UNK         0.0600 
    166 H166        2.1376  -16.8466  -38.7537 H         1 UNK         0.0600 
    167 H167        3.4773  -17.6760  -39.5310 H         1 UNK         0.0600 
    168 H168        2.9754  -16.0957  -40.1112 H         1 UNK         0.0600 
    169 H169        0.5091  -15.9271  -40.6090 H         1 UNK         0.3000 
    170 H170       -2.4376  -16.6627  -42.4589 H         1 UNK         0.0600 
    171 H171       -3.1347  -17.3698  -40.1663 H         1 UNK         0.0600 
    172 H172       -2.2455  -16.0203  -39.4701 H         1 UNK         0.0600 
    173 H173       -3.6377  -15.7234  -40.5125 H         1 UNK         0.0600 
    174 H174       -1.6674  -14.2859  -41.1558 H         1 UNK         0.3000 
    175 H175       -0.7962  -12.7259  -43.9459 H         1 UNK         0.0600 
    176 H176       -0.6241  -12.4621  -40.8955 H         1 UNK         0.0600 
    177 H177       -0.8179  -11.1466  -42.0460 H         1 UNK         0.0600 
    178 H178       -2.0979  -12.3261  -41.8606 H         1 UNK         0.0600 
    179 H179        1.3148  -12.0588  -43.7366 H         1 UNK         0.3000 
    180 H180        3.4253  -11.7816  -41.6579 H         1 UNK         0.0600 
    181 H181        4.4255  -13.8963  -40.9054 H         1 UNK         0.0600 
    182 H182        5.5282  -13.0977  -42.0105 H         1 UNK         0.0600 
    183 H183        4.5744  -14.4740  -42.5570 H         1 UNK         0.0600 
    184 H184        3.4234  -12.6844  -44.4921 H         1 UNK         0.3000 
    185 H185        4.5458   -9.4632  -45.4931 H         1 UNK         0.0600 
    186 H186        6.6833  -10.6657  -45.4416 H         1 UNK         0.0600 
    187 H187        5.9243  -12.1541  -45.9771 H         1 UNK         0.0600 
    188 H188        5.9966  -10.7606  -47.0558 H         1 UNK         0.0600 
    189 H189        2.7884  -10.1416  -46.6102 H         1 UNK         0.3000 
    190 H190        0.7916  -22.4651  -47.0451 H         1 UNK         0.3000 
    191 H191       -0.9299  -23.8260  -47.1777 H         1 UNK         0.0600 
    192 H192       -1.1259  -25.6715  -48.7493 H         1 UNK         0.0600 
    193 H193        0.5556  -25.5514  -48.2552 H         1 UNK         0.0600 
    194 H194        0.0510  -24.9655  -49.8414 H         1 UNK         0.0600 
    195 H195       -0.9110  -21.1525  -48.1379 H         1 UNK         0.3000 
    196 H196       -3.0428  -20.9633  -50.1661 H         1 UNK         0.0600 
    197 H197       -2.8078  -18.5540  -49.8519 H         1 UNK         0.0600 
    198 H198       -1.1945  -19.2296  -50.0136 H         1 UNK         0.0600 
    199 H199       -1.8050  -18.7678  -48.4280 H         1 UNK         0.0600 
    200 H200       -2.6702  -21.3984  -46.7558 H         1 UNK         0.3000 
    201 H201       -5.2630  -20.4528  -45.8959 H         1 UNK         0.0600 
    202 H202       -4.6493  -21.6926  -43.8032 H         1 UNK         0.0600 
    203 H203       -3.3502  -20.6427  -44.3341 H         1 UNK         0.0600 
    204 H204       -3.2509  -22.3817  -44.6180 H         1 UNK         0.0600 
    205 H205       -4.4002  -23.1183  -47.8077 H         1 UNK         0.3000 
    206 H206       -6.2835  -25.1117  -46.9472 H         1 UNK         0.0600 
    207 H207       -4.2509  -25.5838  -48.3606 H         1 UNK         0.0600 
    208 H208       -5.7171  -26.1284  -49.1571 H         1 UNK         0.0600 
    209 H209       -4.9452  -24.6373  -49.6747 H         1 UNK         0.0600 
    210 H210       -8.0609  -25.8748  -48.4170 H         1 UNK         0.3000 
    211 H211      -10.1306  -24.0098  -48.7669 H         1 UNK         0.0600 
    212 H212       -9.7447  -26.7913  -49.9995 H         1 UNK         0.0600 
    213 H213      -11.2641  -25.9059  -49.9485 H         1 UNK         0.0600 
    214 H214      -10.5114  -26.4337  -48.4517 H         1 UNK         0.0600 
    215 H215      -10.3129  -22.4360  -50.2006 H         1 UNK         0.3000 
    216 H216      -10.0724  -21.0566  -51.9094 H         1 UNK         0.0600 
    217 H217      -11.4584  -22.7848  -53.0960 H         1 UNK         0.0600 
    218 H218       -9.9863  -23.5470  -53.6967 H         1 UNK         0.0600 
    219 H219      -10.4048  -21.9144  -54.1970 H         1 UNK         0.0600 
    220 H220       -7.6369  -21.9768  -50.5373 H         1 UNK         0.3000 
    221 H221       -5.4445  -21.8853  -50.5364 H         1 UNK         0.0600 
    222 H222       -4.2723  -20.2257  -51.9864 H         1 UNK         0.0600 
    223 H223       -5.6729  -20.1063  -53.0318 H         1 UNK         0.0600 
    224 H224       -5.7617  -19.5444  -51.3628 H         1 UNK         0.0600 
    225 H225       -6.7965  -24.0564  -52.0171 H         1 UNK         0.3000 
    226 H226       -6.4653  -25.8115  -53.2908 H         1 UNK         0.0600 
    227 H227       -4.3479  -26.0950  -51.9515 H         1 UNK         0.0600 
    228 H228       -4.2187  -26.7664  -53.5686 H         1 UNK         0.0600 
    229 H229       -3.4559  -25.2275  -53.2002 H         1 UNK         0.0600 
    230 H230       -6.7088  -23.0404  -54.4662 H         1 UNK         0.3000 
    231 H231       -6.9124  -21.9609  -56.3350 H         1 UNK         0.0600 
    232 H232       -7.3517  -23.1521  -58.4383 H         1 UNK         0.0600 
    233 H233       -8.1064  -24.0237  -57.1159 H         1 UNK         0.0600 
    234 H234       -6.6046  -24.6193  -57.8234 H         1 UNK         0.0600 
    235 H235       -4.0789  -22.5663  -55.2607 H         1 UNK         0.3000 
    236 H236       -2.6133  -21.2889  -57.4774 H         1 UNK         0.0600 
    237 H237       -2.4819  -23.6996  -58.0796 H         1 UNK         0.0600 
    238 H238       -0.9056  -23.1342  -57.5607 H         1 UNK         0.0600 
    239 H239       -1.8937  -24.0954  -56.4661 H         1 UNK         0.0600 
    240 H240       -2.9989  -21.7590  -54.0967 H         1 UNK         0.3000 
    241 H241       -1.9470  -21.1607  -52.2883 H         1 UNK         0.0600 
    242 H242       -1.6430  -23.5643  -52.3848 H         1 UNK         0.3800 
    243 H243        0.0063  -24.1383  -52.3988 H         1 UNK         0.3800 
    244 H244        0.0024  -19.4741  -53.9293 H         1 UNK         0.0800 
    245 H245       -0.0329  -19.5781  -52.1904 H         1 UNK         0.0800 
    246 H246       -1.4920  -15.9777  -53.0117 H         1 UNK         0.0800 
    247 H247       -0.1551  -16.8523  -53.7089 H         1 UNK         0.0800 
@<TRIPOS>BOND
     1    1    2 1    
     2    1  127 1    
     3    1  128 1    
     4    1  129 1    
     5    2    3 2    
     6    2    4 am   BACKBONE|DICT|INTERRES
     7    4    5 1    
     8    4  130 1    
     9    5    6 1    
    10    5   65 1    
    11    5  131 1    
    12    6    7 1    
    13    6  132 1    
    14    6  133 1    
    15    7    8 1    
    16    8    9 1    
    17    8  134 1    
    18    8  135 1    
    19    9   10 ar   
    20    9   14 ar   
    21   10   11 ar   
    22   10  136 1    
    23   11   12 ar   
    24   11  126 1    
    25   12   13 ar   
    26   12  137 1    
    27   13   14 ar   
    28   13   15 1    
    29   14  138 1    
    30   15   16 1    
    31   15  139 1    
    32   15  140 1    
    33   16   17 1    
    34   17   18 1    
    35   17  141 1    
    36   17  142 1    
    37   18   19 1    
    38   18   67 1    
    39   18  143 1    
    40   19   20 am   BACKBONE|DICT|INTERRES
    41   19  144 1    
    42   20   21 2    
    43   20   22 1    
    44   22   23 1    
    45   22   24 1    
    46   22  145 1    
    47   23  146 1    
    48   23  147 1    
    49   23  148 1    
    50   24   25 am   BACKBONE|DICT|INTERRES
    51   24  149 1    
    52   25   26 2    
    53   25   27 1    
    54   27   28 1    
    55   27   29 1    
    56   27  150 1    
    57   28  151 1    
    58   28  152 1    
    59   28  153 1    
    60   29   30 am   BACKBONE|DICT|INTERRES
    61   29  154 1    
    62   30   31 2    
    63   30   32 1    
    64   32   33 1    
    65   32   34 1    
    66   32  155 1    
    67   33  156 1    
    68   33  157 1    
    69   33  158 1    
    70   34   35 am   BACKBONE|DICT|INTERRES
    71   34  159 1    
    72   35   36 2    
    73   35   37 1    
    74   37   38 1    
    75   37   39 1    
    76   37  160 1    
    77   38  161 1    
    78   38  162 1    
    79   38  163 1    
    80   39   40 am   BACKBONE|DICT|INTERRES
    81   39  164 1    
    82   40   41 2    
    83   40   42 1    
    84   42   43 1    
    85   42   44 1    
    86   42  165 1    
    87   43  166 1    
    88   43  167 1    
    89   43  168 1    
    90   44   45 am   BACKBONE|DICT|INTERRES
    91   44  169 1    
    92   45   46 2    
    93   45   47 1    
    94   47   48 1    
    95   47   49 1    
    96   47  170 1    
    97   48  171 1    
    98   48  172 1    
    99   48  173 1    
   100   49   50 am   BACKBONE|DICT|INTERRES
   101   49  174 1    
   102   50   51 2    
   103   50   52 1    
   104   52   53 1    
   105   52   54 1    
   106   52  175 1    
   107   53  176 1    
   108   53  177 1    
   109   53  178 1    
   110   54   55 am   BACKBONE|DICT|INTERRES
   111   54  179 1    
   112   55   56 2    
   113   55   57 1    
   114   57   58 1    
   115   57   59 1    
   116   57  180 1    
   117   58  181 1    
   118   58  182 1    
   119   58  183 1    
   120   59   60 am   BACKBONE|DICT|INTERRES
   121   59  184 1    
   122   60   61 2    
   123   60   62 1    
   124   62   63 1    
   125   62   64 1    
   126   62  185 1    
   127   63  186 1    
   128   63  187 1    
   129   63  188 1    
   130   64   65 am   BACKBONE|DICT|INTERRES
   131   64  189 1    
   132   65   66 2    
   133   67   68 2    
   134   67   69 am   BACKBONE|DICT|INTERRES
   135   69   70 1    
   136   69  190 1    
   137   70   71 1    
   138   70   72 1    
   139   70  191 1    
   140   71  192 1    
   141   71  193 1    
   142   71  194 1    
   143   72   73 2    
   144   72   74 am   BACKBONE|DICT|INTERRES
   145   74   75 1    
   146   74  195 1    
   147   75   76 1    
   148   75   77 1    
   149   75  196 1    
   150   76  197 1    
   151   76  198 1    
   152   76  199 1    
   153   77   78 2    
   154   77   79 am   BACKBONE|DICT|INTERRES
   155   79   80 1    
   156   79  200 1    
   157   80   81 1    
   158   80   82 1    
   159   80  201 1    
   160   81  202 1    
   161   81  203 1    
   162   81  204 1    
   163   82   83 2    
   164   82   84 am   BACKBONE|DICT|INTERRES
   165   84   85 1    
   166   84  205 1    
   167   85   86 1    
   168   85   87 1    
   169   85  206 1    
   170   86  207 1    
   171   86  208 1    
   172   86  209 1    
   173   87   88 2    
   174   87   89 am   BACKBONE|DICT|INTERRES
   175   89   90 1    
   176   89  210 1    
   177   90   91 1    
   178   90   92 1    
   179   90  211 1    
   180   91  212 1    
   181   91  213 1    
   182   91  214 1    
   183   92   93 2    
   184   92   94 am   BACKBONE|DICT|INTERRES
   185   94   95 1    
   186   94  215 1    
   187   95   96 1    
   188   95   97 1    
   189   95  216 1    
   190   96  217 1    
   191   96  218 1    
   192   96  219 1    
   193   97   98 2    
   194   97   99 am   BACKBONE|DICT|INTERRES
   195   99  100 1    
   196   99  220 1    
   197  100  101 1    
   198  100  102 1    
   199  100  221 1    
   200  101  222 1    
   201  101  223 1    
   202  101  224 1    
   203  102  103 2    
   204  102  104 am   BACKBONE|DICT|INTERRES
   205  104  105 1    
   206  104  225 1    
   207  105  106 1    
   208  105  107 1    
   209  105  226 1    
   210  106  227 1    
   211  106  228 1    
   212  106  229 1    
   213  107  108 2    
   214  107  109 am   BACKBONE|DICT|INTERRES
   215  109  110 1    
   216  109  230 1    
   217  110  111 1    
   218  110  112 1    
   219  110  231 1    
   220  111  232 1    
   221  111  233 1    
   222  111  234 1    
   223  112  113 2    
   224  112  114 am   BACKBONE|DICT|INTERRES
   225  114  115 1    
   226  114  235 1    
   227  115  116 1    
   228  115  117 1    
   229  115  236 1    
   230  116  237 1    
   231  116  238 1    
   232  116  239 1    
   233  117  118 2    
   234  117  119 am   BACKBONE|DICT|INTERRES
   235  119  120 1    
   236  119  240 1    
   237  120  121 1    
   238  120  124 1    
   239  120  241 1    
   240  121  122 am   BACKBONE|DICT|INTERRES
   241  121  123 2    
   242  122  242 1    
   243  122  243 1    
   244  124  125 1    
   245  124  244 1    
   246  124  245 1    
   247  125  126 1    
   248  126  246 1    
   249  126  247 1    
@<TRIPOS>SUBSTRUCTURE
     1 UNK         1 GROUP             0       ****    0 ROOT    
