@<TRIPOS>MOLECULE
3R540
247   249    1
SMALL
USER_CHARGES


@<TRIPOS>ATOM
      1 CA         -0.4534  -13.8023  -51.0134 C.3       0 UNK        -0.1800 
      2 C           0.0141  -13.8021  -49.5651 C.2       0 UNK         0.5000 
      3 O           1.1892  -14.0494  -49.3007 O.2       0 UNK        -0.5000 
      4 N          -0.9018  -13.5215  -48.6307 N.am      1 UNK        -0.5000 
      5 CA         -0.6637  -13.5282  -47.1790 C.3       1 UNK         0.1400 
      6 C6         -1.9382  -13.9229  -46.3948 C.3       23 UNK        -0.0398 
      7 S7         -2.5090  -15.5912  -46.8472 S.3       23 UNK        -0.2404 
      8 C8         -4.2938  -15.4481  -46.5531 C.3       23 UNK        -0.0205 
      9 C9         -4.9850  -16.7451  -46.9306 C.ar      23 UNK        -0.0193 
     10 C10        -5.4333  -16.9443  -48.2383 C.ar      23 UNK        -0.1150 
     11 C11        -6.0313  -18.1516  -48.6148 C.ar      23 UNK        -0.0193 
     12 C12        -6.1737  -19.1628  -47.6581 C.ar      23 UNK        -0.1150 
     13 C13        -5.7116  -18.9816  -46.3506 C.ar      23 UNK        -0.0193 
     14 C14        -5.1339  -17.7636  -45.9877 C.ar      23 UNK        -0.1150 
     15 C15        -5.7900  -20.1155  -45.3400 C.3       23 UNK        -0.0205 
     16 S16        -4.1795  -20.9470  -45.1524 S.3       23 UNK        -0.2404 
     17 C17        -3.9160  -21.5895  -46.8433 C.3       23 UNK        -0.0398 
     18 CA         -3.0090  -22.8384  -46.9332 C.3       11 UNK         0.1400 
     19 N          -1.6449  -22.5801  -46.4621 N.am      11 UNK        -0.5000 
     20 C          -0.6317  -23.4541  -46.5431 C.2       10 UNK         0.5000 
     21 O          -0.7222  -24.5377  -47.1197 O.2       10 UNK        -0.5000 
     22 CA          0.6850  -23.1040  -45.8289 C.3       10 UNK         0.1400 
     23 CB          1.7248  -22.5746  -46.8241 C.3       10 UNK        -0.1800 
     24 N           0.5341  -22.1563  -44.7243 N.am      10 UNK        -0.5000 
     25 C          -0.1856  -22.3703  -43.6123 C.2       9 UNK         0.5000 
     26 O          -0.8613  -23.3843  -43.4229 O.2       9 UNK        -0.5000 
     27 CA         -0.1674  -21.2551  -42.5564 C.3       9 UNK         0.1400 
     28 CB          1.1439  -21.2908  -41.7564 C.3       9 UNK        -0.1800 
     29 N          -0.3089  -19.9490  -43.1983 N.am      9 UNK        -0.5000 
     30 C          -1.4245  -19.2073  -43.1842 C.2       8 UNK         0.5000 
     31 O          -2.4149  -19.4810  -42.5058 O.2       8 UNK        -0.5000 
     32 CA         -1.4502  -17.9389  -44.0633 C.3       8 UNK         0.1400 
     33 CB         -1.3088  -16.6792  -43.1952 C.3       8 UNK        -0.1800 
     34 N          -0.4212  -17.9075  -45.1034 N.am      8 UNK        -0.5000 
     35 C          -0.3851  -18.7090  -46.1790 C.2       7 UNK         0.5000 
     36 O          -1.2150  -19.5859  -46.4127 O.2       7 UNK        -0.5000 
     37 CA          0.8281  -18.5537  -47.1182 C.3       7 UNK         0.1400 
     38 CB          0.5245  -17.5291  -48.2213 C.3       7 UNK        -0.1800 
     39 N           2.0637  -18.1681  -46.4300 N.am      7 UNK        -0.5000 
     40 C           2.6039  -18.7895  -45.3706 C.2       6 UNK         0.5000 
     41 O           2.1542  -19.8312  -44.8909 O.2       6 UNK        -0.5000 
     42 CA          3.8122  -18.1153  -44.6923 C.3       6 UNK         0.1400 
     43 CB          5.1073  -18.8532  -45.0626 C.3       6 UNK        -0.1800 
     44 N           3.9781  -16.6854  -44.9818 N.am      6 UNK        -0.5000 
     45 C           3.0876  -15.7149  -44.7298 C.2       5 UNK         0.5000 
     46 O           1.9474  -15.9192  -44.3029 O.2       5 UNK        -0.5000 
     47 CA          3.5521  -14.2855  -45.0691 C.3       5 UNK         0.1400 
     48 CB          3.4470  -14.0283  -46.5787 C.3       5 UNK        -0.1800 
     49 N           2.7889  -13.2609  -44.3585 N.am      5 UNK        -0.5000 
     50 C           2.8631  -13.0300  -43.0421 C.2       4 UNK         0.5000 
     51 O           3.6187  -13.6392  -42.2814 O.2       4 UNK        -0.5000 
     52 CA          1.9527  -11.9045  -42.5090 C.3       4 UNK         0.1400 
     53 CB          2.1758  -11.5936  -41.0138 C.3       4 UNK        -0.1800 
     54 N           2.0444  -10.6821  -43.3165 N.am      4 UNK        -0.5000 
     55 C           3.1337   -9.9296  -43.5452 C.2       3 UNK         0.5000 
     56 O           4.2409  -10.1563  -43.0543 O.2       3 UNK        -0.5000 
     57 CA          2.9394   -8.7027  -44.4667 C.3       3 UNK         0.1400 
     58 CB          4.2483   -8.2385  -45.1410 C.3       3 UNK        -0.1800 
     59 N           1.8657   -8.8803  -45.4542 N.am      3 UNK        -0.5000 
     60 C           1.8284   -9.7729  -46.4538 C.2       2 UNK         0.5000 
     61 O           2.7539  -10.5323  -46.7458 O.2       2 UNK        -0.5000 
     62 CA          0.5118   -9.8285  -47.2531 C.3       2 UNK         0.1400 
     63 CB          0.6551   -9.0639  -48.5778 C.3       2 UNK        -0.1800 
     64 N           0.0540  -11.1911  -47.5390 N.am      2 UNK        -0.5000 
     65 C          -0.0994  -12.1890  -46.6546 C.2       1 UNK         0.5000 
     66 O           0.1669  -12.0850  -45.4555 O.2       1 UNK        -0.5000 
     67 C          -3.6693  -24.0607  -46.2575 C.2       11 UNK         0.5000 
     68 O          -4.4632  -24.7443  -46.9031 O.2       11 UNK        -0.5000 
     69 N          -3.3124  -24.3205  -44.9932 N.am      12 UNK        -0.5000 
     70 CA         -3.7667  -25.4717  -44.2220 C.3       12 UNK         0.1400 
     71 CB         -4.1021  -25.0171  -42.7927 C.3       12 UNK        -0.1800 
     72 C          -2.6957  -26.5723  -44.2023 C.2       12 UNK         0.5000 
     73 O          -3.0293  -27.7434  -44.3834 O.2       12 UNK        -0.5000 
     74 N          -1.4326  -26.1840  -43.9742 N.am      13 UNK        -0.5000 
     75 CA         -0.3203  -27.1100  -43.7557 C.3       13 UNK         0.1400 
     76 CB          0.8376  -26.3574  -43.0821 C.3       13 UNK        -0.1800 
     77 C           0.1681  -27.8320  -45.0257 C.2       13 UNK         0.5000 
     78 O           0.6457  -28.9624  -44.9176 O.2       13 UNK        -0.5000 
     79 N           0.0624  -27.1783  -46.1902 N.am      14 UNK        -0.5000 
     80 CA          0.5789  -27.6744  -47.4702 C.3       14 UNK         0.1400 
     81 CB          1.8235  -26.8489  -47.8434 C.3       14 UNK        -0.1800 
     82 C          -0.4664  -27.6275  -48.6007 C.2       14 UNK         0.5000 
     83 O          -0.1463  -28.0268  -49.7210 O.2       14 UNK        -0.5000 
     84 N          -1.6774  -27.1271  -48.3069 N.am      15 UNK        -0.5000 
     85 CA         -2.7732  -26.8497  -49.2461 C.3       15 UNK         0.1400 
     86 CB         -3.3309  -28.1552  -49.8506 C.3       15 UNK        -0.1800 
     87 C          -2.3975  -25.8013  -50.3189 C.2       15 UNK         0.5000 
     88 O          -2.8953  -25.8606  -51.4453 O.2       15 UNK        -0.5000 
     89 N          -1.5242  -24.8502  -49.9499 N.am      16 UNK        -0.5000 
     90 CA         -0.9077  -23.8698  -50.8512 C.3       16 UNK         0.1400 
     91 CB          0.1893  -23.1066  -50.0978 C.3       16 UNK        -0.1800 
     92 C          -1.8885  -22.8773  -51.5002 C.2       16 UNK         0.5000 
     93 O          -1.5547  -22.2940  -52.5316 O.2       16 UNK        -0.5000 
     94 N          -3.0871  -22.7235  -50.9198 N.am      17 UNK        -0.5000 
     95 CA         -4.1751  -21.8813  -51.4237 C.3       17 UNK         0.1400 
     96 CB         -5.3632  -21.9538  -50.4556 C.3       17 UNK        -0.1800 
     97 C          -4.6289  -22.2317  -52.8526 C.2       17 UNK         0.5000 
     98 O          -5.0410  -21.3343  -53.5865 O.2       17 UNK        -0.5000 
     99 N          -4.5015  -23.5103  -53.2353 N.am      18 UNK        -0.5000 
    100 CA        -4.7899  -24.0067  -54.5814 C.3       18 UNK         0.1400 
    101 CB        -4.7602  -25.5425  -54.5611 C.3       18 UNK        -0.1800 
    102 C         -3.8263  -23.4622  -55.6557 C.2       18 UNK         0.5000 
    103 O         -4.2227  -23.3498  -56.8163 O.2       18 UNK        -0.5000 
    104 N         -2.5910  -23.1327  -55.2546 N.am      19 UNK        -0.5000 
    105 CA        -1.5669  -22.5458  -56.1157 C.3       19 UNK         0.1400 
    106 CB        -0.1998  -23.1502  -55.7564 C.3       19 UNK        -0.1800 
    107 C         -1.5342  -21.0153  -55.9766 C.2       19 UNK         0.5000 
    108 O         -1.4275  -20.3167  -56.9851 O.2       19 UNK        -0.5000 
    109 N         -1.6152  -20.5221  -54.7328 N.am      20 UNK        -0.5000 
    110 CA        -1.5099  -19.1034  -54.3922 C.3       20 UNK         0.1400 
    111 CB        -1.2427  -18.9684  -52.8841 C.3       20 UNK        -0.1800 
    112 C         -2.7438  -18.2735  -54.7861 C.2       20 UNK         0.5000 
    113 O         -2.6028  -17.0731  -55.0240 O.2       20 UNK        -0.5000 
    114 N         -3.9313  -18.9015  -54.7980 N.am      21 UNK        -0.5000 
    115 CA        -5.2455  -18.3026  -55.0803 C.3       21 UNK         0.1400 
    116 CB        -5.3506  -17.9196  -56.5708 C.3       21 UNK        -0.1800 
    117 C         -5.6037  -17.1319  -54.1344 C.2       21 UNK         0.5000 
    118 O         -6.3193  -16.2105  -54.5304 O.2       21 UNK        -0.5000 
    119 N         -5.0640  -17.1878  -52.9090 N.am      22 UNK        -0.5000 
    120 CA        -5.0891  -16.1385  -51.8754 C.3       22 UNK         0.1400 
    121 C         -4.2538  -14.8657  -52.2231 C.2       22 UNK         0.5000 
    122 N         -3.3945  -14.8783  -53.2361 N.am      22 UNK        -0.7600 
    123 O         -4.3550  -13.8522  -51.5373 O.2       22 UNK        -0.5000 
    124 C124       -6.5233  -15.7835  -51.3761 C.3       23 UNK        -0.0398 
    125 S125       -7.5793  -17.1516  -50.7581 S.3       23 UNK        -0.2404 
    126 C126       -6.4599  -18.4145  -50.0569 C.3       23 UNK        -0.0205 
    127 H127        0.1646  -13.1292  -51.6089 H         1 UNK         0.0600 
    128 H128       -0.3718  -14.8057  -51.4335 H         1 UNK         0.0600 
    129 H129       -1.4916  -13.4794  -51.1034 H         1 UNK         0.0600 
    130 H130       -1.8541  -13.3380  -48.9141 H         1 UNK         0.3000 
    131 H131        0.0940  -14.2807  -46.9543 H         1 UNK         0.0600 
    132 H132       -2.7359  -13.2002  -46.5747 H         1 UNK         0.0800 
    133 H133       -1.7544  -13.9186  -45.3191 H         1 UNK         0.0800 
    134 H134       -4.7008  -14.6214  -47.1374 H         1 UNK         0.0800 
    135 H135       -4.4749  -15.2123  -45.5033 H         1 UNK         0.0800 
    136 H136       -5.2914  -16.1558  -48.9585 H         1 UNK         0.1150 
    137 H137       -6.6154  -20.1085  -47.9385 H         1 UNK         0.1150 
    138 H138       -4.7675  -17.6235  -44.9807 H         1 UNK         0.1150 
    139 H139       -6.1004  -19.7215  -44.3713 H         1 UNK         0.0800 
    140 H140       -6.5472  -20.8448  -45.6317 H         1 UNK         0.0800 
    141 H141       -4.8892  -21.8184  -47.2782 H         1 UNK         0.0800 
    142 H142       -3.4970  -20.7851  -47.4499 H         1 UNK         0.0800 
    143 H143       -2.9201  -23.0887  -47.9912 H         1 UNK         0.0600 
    144 H144       -1.4872  -21.6763  -46.0293 H         1 UNK         0.3000 
    145 H145        1.0759  -24.0309  -45.4087 H         1 UNK         0.0600 
    146 H146        1.3579  -21.7030  -47.3621 H         1 UNK         0.0600 
    147 H147        2.6515  -22.2964  -46.3217 H         1 UNK         0.0600 
    148 H148        1.9765  -23.3346  -47.5636 H         1 UNK         0.0600 
    149 H149        1.0851  -21.3040  -44.7935 H         1 UNK         0.3000 
    150 H150       -0.9912  -21.4396  -41.8639 H         1 UNK         0.0600 
    151 H151        1.1451  -20.5328  -40.9731 H         1 UNK         0.0600 
    152 H152        2.0135  -21.1157  -42.3911 H         1 UNK         0.0600 
    153 H153        1.2792  -22.2591  -41.2726 H         1 UNK         0.0600 
    154 H154        0.4586  -19.6549  -43.7910 H         1 UNK         0.3000 
    155 H155       -2.4225  -17.9088  -44.5580 H         1 UNK         0.0600 
    156 H156       -2.0901  -16.6365  -42.4353 H         1 UNK         0.0600 
    157 H157       -1.3915  -15.7744  -43.7961 H         1 UNK         0.0600 
    158 H158       -0.3467  -16.6525  -42.6819 H         1 UNK         0.0600 
    159 H159        0.3270  -17.2361  -44.9728 H         1 UNK         0.3000 
    160 H160        1.0026  -19.5171  -47.5957 H         1 UNK         0.0600 
    161 H161        0.3925  -16.5277  -47.8115 H         1 UNK         0.0600 
    162 H162       -0.3915  -17.7867  -48.7549 H         1 UNK         0.0600 
    163 H163        1.3280  -17.4864  -48.9567 H         1 UNK         0.0600 
    164 H164        2.5028  -17.3158  -46.7437 H         1 UNK         0.3000 
    165 H165        3.6615  -18.2115  -43.6152 H         1 UNK         0.0600 
    166 H166        5.3312  -18.7625  -46.1263 H         1 UNK         0.0600 
    167 H167        5.9586  -18.4630  -44.5044 H         1 UNK         0.0600 
    168 H168        5.0320  -19.9171  -44.8328 H         1 UNK         0.0600 
    169 H169        4.8776  -16.4207  -45.3573 H         1 UNK         0.3000 
    170 H170        4.5993  -14.1883  -44.7749 H         1 UNK         0.0600 
    171 H171        4.0300  -14.7528  -47.1485 H         1 UNK         0.0600 
    172 H172        2.4170  -14.0939  -46.9243 H         1 UNK         0.0600 
    173 H173        3.8235  -13.0388  -46.8376 H         1 UNK         0.0600 
    174 H174        2.1133  -12.7328  -44.8981 H         1 UNK         0.3000 
    175 H175        0.9295  -12.2672  -42.6179 H         1 UNK         0.0600 
    176 H176        1.4957  -10.8155  -40.6676 H         1 UNK         0.0600 
    177 H177        1.9948  -12.4778  -40.4015 H         1 UNK         0.0600 
    178 H178        3.1949  -11.2618  -40.8139 H         1 UNK         0.0600 
    179 H179        1.1986  -10.4366  -43.8124 H         1 UNK         0.3000 
    180 H180        2.6111   -7.8941  -43.8122 H         1 UNK         0.0600 
    181 H181        4.0760   -7.3775  -45.7868 H         1 UNK         0.0600 
    182 H182        4.9867   -7.9402  -44.3960 H         1 UNK         0.0600 
    183 H183        4.6975   -9.0273  -45.7448 H         1 UNK         0.0600 
    184 H184        1.0530   -8.2970  -45.3079 H         1 UNK         0.3000 
    185 H185       -0.2724   -9.3492  -46.6639 H         1 UNK         0.0600 
    186 H186       -0.2916   -9.0233  -49.1167 H         1 UNK         0.0600 
    187 H187        0.9730   -8.0349  -48.4039 H         1 UNK         0.0600 
    188 H188        1.3945   -9.5298  -49.2307 H         1 UNK         0.0600 
    189 H189       -0.1650  -11.3934  -48.5028 H         1 UNK         0.3000 
    190 H190       -2.6339  -23.7156  -44.5454 H         1 UNK         0.3000 
    191 H191       -4.6741  -25.8914  -44.6615 H         1 UNK         0.0600 
    192 H192       -4.4451  -25.8562  -42.1861 H         1 UNK         0.0600 
    193 H193       -4.8971  -24.2711  -42.7959 H         1 UNK         0.0600 
    194 H194       -3.2375  -24.5798  -42.2917 H         1 UNK         0.0600 
    195 H195       -1.2420  -25.1997  -43.8064 H         1 UNK         0.3000 
    196 H196       -0.6601  -27.8799  -43.0594 H         1 UNK         0.0600 
    197 H197        1.6601  -27.0347  -42.8487 H         1 UNK         0.0600 
    198 H198        0.5187  -25.8997  -42.1454 H         1 UNK         0.0600 
    199 H199        1.2351  -25.5692  -43.7197 H         1 UNK         0.0600 
    200 H200       -0.3242  -26.2408  -46.2057 H         1 UNK         0.3000 
    201 H201        0.8787  -28.7205  -47.3835 H         1 UNK         0.0600 
    202 H202        2.5838  -26.9079  -47.0645 H         1 UNK         0.0600 
    203 H203        1.5773  -25.7974  -47.9923 H         1 UNK         0.0600 
    204 H204        2.2771  -27.2133  -48.7659 H         1 UNK         0.0600 
    205 H205       -1.8335  -26.8236  -47.3571 H         1 UNK         0.3000 
    206 H206       -3.5737  -26.4033  -48.6584 H         1 UNK         0.0600 
    207 H207       -3.5852  -28.8732  -49.0710 H         1 UNK         0.0600 
    208 H208       -4.2397  -27.9633  -50.4220 H         1 UNK         0.0600 
    209 H209       -2.6177  -28.6295  -50.5250 H         1 UNK         0.0600 
    210 H210       -1.1774  -24.8647  -48.9952 H         1 UNK         0.3000 
    211 H211       -0.4355  -24.4273  -51.6626 H         1 UNK         0.0600 
    212 H212        0.7297  -22.4363  -50.7676 H         1 UNK         0.0600 
    213 H213        0.9195  -23.7918  -49.6679 H         1 UNK         0.0600 
    214 H214       -0.2255  -22.4980  -49.2943 H         1 UNK         0.0600 
    215 H215       -3.2843  -23.2783  -50.1022 H         1 UNK         0.3000 
    216 H216       -3.8162  -20.8508  -51.4455 H         1 UNK         0.0600 
    217 H217       -6.2425  -21.4611  -50.8718 H         1 UNK         0.0600 
    218 H218       -5.1286  -21.4523  -49.5193 H         1 UNK         0.0600 
    219 H219       -5.6434  -22.9840  -50.2325 H         1 UNK         0.0600 
    220 H220       -4.1310  -24.1826  -52.5753 H         1 UNK         0.3000 
    221 H221       -5.7986  -23.6865  -54.8506 H         1 UNK         0.0600 
    222 H222       -3.7783  -25.9211  -54.2734 H         1 UNK         0.0600 
    223 H223       -5.4915  -25.9422  -53.8584 H         1 UNK         0.0600 
    224 H224       -4.9963  -25.9520  -55.5441 H         1 UNK         0.0600 
    225 H225       -2.3612  -23.2116  -54.2721 H         1 UNK         0.3000 
    226 H226       -1.7720  -22.7845  -57.1615 H         1 UNK         0.0600 
    227 H227        0.5877  -22.7355  -56.3870 H         1 UNK         0.0600 
    228 H228        0.0724  -22.9533  -54.7188 H         1 UNK         0.0600 
    229 H229       -0.1980  -24.2304  -55.9026 H         1 UNK         0.0600 
    230 H230       -1.6552  -21.1712  -53.9500 H         1 UNK         0.3000 
    231 H231       -0.6523  -18.6886  -54.9261 H         1 UNK         0.0600 
    232 H232       -1.1246  -17.9223  -52.5979 H         1 UNK         0.0600 
    233 H233       -0.3280  -19.4882  -52.5983 H         1 UNK         0.0600 
    234 H234       -2.0587  -19.3816  -52.2911 H         1 UNK         0.0600 
    235 H235       -3.9620  -19.8836  -54.5449 H         1 UNK         0.3000 
    236 H236       -5.9848  -19.0811  -54.8876 H         1 UNK         0.0600 
    237 H237       -4.6804  -17.0981  -56.8254 H         1 UNK         0.0600 
    238 H238       -5.1028  -18.7654  -57.2122 H         1 UNK         0.0600 
    239 H239       -6.3638  -17.6069  -56.8254 H         1 UNK         0.0600 
    240 H240       -4.4831  -17.9861  -52.7041 H         1 UNK         0.3000 
    241 H241       -4.5407  -16.5630  -51.0365 H         1 UNK         0.0600 
    242 H242       -2.8651  -14.0456  -53.4361 H         1 UNK         0.3800 
    243 H243       -3.2692  -15.6968  -53.8237 H         1 UNK         0.3800 
    244 H244       -7.0759  -15.2843  -52.1728 H         1 UNK         0.0800 
    245 H245       -6.4692  -15.0486  -50.5719 H         1 UNK         0.0800 
    246 H246       -7.0097  -19.3549  -50.0991 H         1 UNK         0.0800 
    247 H247       -5.5815  -18.5717  -50.6787 H         1 UNK         0.0800 
@<TRIPOS>BOND
     1    1    2 1    
     2    1  127 1    
     3    1  128 1    
     4    1  129 1    
     5    2    3 2    
     6    2    4 am   BACKBONE|DICT|INTERRES
     7    4    5 1    
     8    4  130 1    
     9    5    6 1    
    10    5   65 1    
    11    5  131 1    
    12    6    7 1    
    13    6  132 1    
    14    6  133 1    
    15    7    8 1    
    16    8    9 1    
    17    8  134 1    
    18    8  135 1    
    19    9   10 ar   
    20    9   14 ar   
    21   10   11 ar   
    22   10  136 1    
    23   11   12 ar   
    24   11  126 1    
    25   12   13 ar   
    26   12  137 1    
    27   13   14 ar   
    28   13   15 1    
    29   14  138 1    
    30   15   16 1    
    31   15  139 1    
    32   15  140 1    
    33   16   17 1    
    34   17   18 1    
    35   17  141 1    
    36   17  142 1    
    37   18   19 1    
    38   18   67 1    
    39   18  143 1    
    40   19   20 am   BACKBONE|DICT|INTERRES
    41   19  144 1    
    42   20   21 2    
    43   20   22 1    
    44   22   23 1    
    45   22   24 1    
    46   22  145 1    
    47   23  146 1    
    48   23  147 1    
    49   23  148 1    
    50   24   25 am   BACKBONE|DICT|INTERRES
    51   24  149 1    
    52   25   26 2    
    53   25   27 1    
    54   27   28 1    
    55   27   29 1    
    56   27  150 1    
    57   28  151 1    
    58   28  152 1    
    59   28  153 1    
    60   29   30 am   BACKBONE|DICT|INTERRES
    61   29  154 1    
    62   30   31 2    
    63   30   32 1    
    64   32   33 1    
    65   32   34 1    
    66   32  155 1    
    67   33  156 1    
    68   33  157 1    
    69   33  158 1    
    70   34   35 am   BACKBONE|DICT|INTERRES
    71   34  159 1    
    72   35   36 2    
    73   35   37 1    
    74   37   38 1    
    75   37   39 1    
    76   37  160 1    
    77   38  161 1    
    78   38  162 1    
    79   38  163 1    
    80   39   40 am   BACKBONE|DICT|INTERRES
    81   39  164 1    
    82   40   41 2    
    83   40   42 1    
    84   42   43 1    
    85   42   44 1    
    86   42  165 1    
    87   43  166 1    
    88   43  167 1    
    89   43  168 1    
    90   44   45 am   BACKBONE|DICT|INTERRES
    91   44  169 1    
    92   45   46 2    
    93   45   47 1    
    94   47   48 1    
    95   47   49 1    
    96   47  170 1    
    97   48  171 1    
    98   48  172 1    
    99   48  173 1    
   100   49   50 am   BACKBONE|DICT|INTERRES
   101   49  174 1    
   102   50   51 2    
   103   50   52 1    
   104   52   53 1    
   105   52   54 1    
   106   52  175 1    
   107   53  176 1    
   108   53  177 1    
   109   53  178 1    
   110   54   55 am   BACKBONE|DICT|INTERRES
   111   54  179 1    
   112   55   56 2    
   113   55   57 1    
   114   57   58 1    
   115   57   59 1    
   116   57  180 1    
   117   58  181 1    
   118   58  182 1    
   119   58  183 1    
   120   59   60 am   BACKBONE|DICT|INTERRES
   121   59  184 1    
   122   60   61 2    
   123   60   62 1    
   124   62   63 1    
   125   62   64 1    
   126   62  185 1    
   127   63  186 1    
   128   63  187 1    
   129   63  188 1    
   130   64   65 am   BACKBONE|DICT|INTERRES
   131   64  189 1    
   132   65   66 2    
   133   67   68 2    
   134   67   69 am   BACKBONE|DICT|INTERRES
   135   69   70 1    
   136   69  190 1    
   137   70   71 1    
   138   70   72 1    
   139   70  191 1    
   140   71  192 1    
   141   71  193 1    
   142   71  194 1    
   143   72   73 2    
   144   72   74 am   BACKBONE|DICT|INTERRES
   145   74   75 1    
   146   74  195 1    
   147   75   76 1    
   148   75   77 1    
   149   75  196 1    
   150   76  197 1    
   151   76  198 1    
   152   76  199 1    
   153   77   78 2    
   154   77   79 am   BACKBONE|DICT|INTERRES
   155   79   80 1    
   156   79  200 1    
   157   80   81 1    
   158   80   82 1    
   159   80  201 1    
   160   81  202 1    
   161   81  203 1    
   162   81  204 1    
   163   82   83 2    
   164   82   84 am   BACKBONE|DICT|INTERRES
   165   84   85 1    
   166   84  205 1    
   167   85   86 1    
   168   85   87 1    
   169   85  206 1    
   170   86  207 1    
   171   86  208 1    
   172   86  209 1    
   173   87   88 2    
   174   87   89 am   BACKBONE|DICT|INTERRES
   175   89   90 1    
   176   89  210 1    
   177   90   91 1    
   178   90   92 1    
   179   90  211 1    
   180   91  212 1    
   181   91  213 1    
   182   91  214 1    
   183   92   93 2    
   184   92   94 am   BACKBONE|DICT|INTERRES
   185   94   95 1    
   186   94  215 1    
   187   95   96 1    
   188   95   97 1    
   189   95  216 1    
   190   96  217 1    
   191   96  218 1    
   192   96  219 1    
   193   97   98 2    
   194   97   99 am   BACKBONE|DICT|INTERRES
   195   99  100 1    
   196   99  220 1    
   197  100  101 1    
   198  100  102 1    
   199  100  221 1    
   200  101  222 1    
   201  101  223 1    
   202  101  224 1    
   203  102  103 2    
   204  102  104 am   BACKBONE|DICT|INTERRES
   205  104  105 1    
   206  104  225 1    
   207  105  106 1    
   208  105  107 1    
   209  105  226 1    
   210  106  227 1    
   211  106  228 1    
   212  106  229 1    
   213  107  108 2    
   214  107  109 am   BACKBONE|DICT|INTERRES
   215  109  110 1    
   216  109  230 1    
   217  110  111 1    
   218  110  112 1    
   219  110  231 1    
   220  111  232 1    
   221  111  233 1    
   222  111  234 1    
   223  112  113 2    
   224  112  114 am   BACKBONE|DICT|INTERRES
   225  114  115 1    
   226  114  235 1    
   227  115  116 1    
   228  115  117 1    
   229  115  236 1    
   230  116  237 1    
   231  116  238 1    
   232  116  239 1    
   233  117  118 2    
   234  117  119 am   BACKBONE|DICT|INTERRES
   235  119  120 1    
   236  119  240 1    
   237  120  121 1    
   238  120  124 1    
   239  120  241 1    
   240  121  122 am   BACKBONE|DICT|INTERRES
   241  121  123 2    
   242  122  242 1    
   243  122  243 1    
   244  124  125 1    
   245  124  244 1    
   246  124  245 1    
   247  125  126 1    
   248  126  246 1    
   249  126  247 1    
@<TRIPOS>SUBSTRUCTURE
     1 UNK         1 GROUP             0       ****    0 ROOT    
