@<TRIPOS>MOLECULE
3R540
247   249    1
SMALL
USER_CHARGES


@<TRIPOS>ATOM
      1 CA         -0.3148  -10.3744  -53.0324 C.3       0 UNK        -0.1800 
      2 C          -1.3970  -10.5531  -51.9693 C.2       0 UNK         0.5000 
      3 O          -2.0720   -9.5837  -51.6271 O.2       0 UNK        -0.5000 
      4 N          -1.6145  -11.7602  -51.4303 N.am      1 UNK        -0.5000 
      5 CA         -0.8601  -12.9944  -51.6757 C.3       1 UNK         0.1400 
      6 C6         -1.7767  -14.2388  -51.5347 C.3       23 UNK        -0.0398 
      7 S7         -2.3600  -14.5660  -49.8333 S.3       23 UNK        -0.2404 
      8 C8         -2.7255  -16.3502  -49.8903 C.3       23 UNK        -0.0205 
      9 C9         -1.4758  -17.1983  -50.0872 C.ar      23 UNK        -0.0193 
     10 C10        -1.2051  -17.7772  -51.3310 C.ar      23 UNK        -0.1150 
     11 C11        -0.0468  -18.5353  -51.5241 C.ar      23 UNK        -0.0193 
     12 C12         0.8277  -18.7360  -50.4563 C.ar      23 UNK        -0.1150 
     13 C13         0.5506  -18.1966  -49.1984 C.ar      23 UNK        -0.0193 
     14 C14        -0.6005  -17.4236  -49.0209 C.ar      23 UNK        -0.1150 
     15 C15         1.4842  -18.4801  -48.0306 C.3       23 UNK        -0.0205 
     16 S16         1.5941  -20.2636  -47.6773 S.3       23 UNK        -0.2404 
     17 C17        -0.1638  -20.6464  -47.3862 C.3       23 UNK        -0.0398 
     18 CA         -0.3705  -22.0426  -46.7662 C.3       11 UNK         0.1400 
     19 N           0.1865  -22.1451  -45.4159 N.am      11 UNK        -0.5000 
     20 C           0.3578  -23.2930  -44.7487 C.2       10 UNK         0.5000 
     21 O           0.0763  -24.3972  -45.2130 O.2       10 UNK        -0.5000 
     22 CA          0.8714  -23.1839  -43.3010 C.3       10 UNK         0.1400 
     23 CB          2.3877  -22.9413  -43.2655 C.3       10 UNK        -0.1800 
     24 N           0.1837  -22.1351  -42.5460 N.am      10 UNK        -0.5000 
     25 C          -1.1259  -22.1489  -42.2593 C.2       9 UNK         0.5000 
     26 O          -1.8808  -23.0740  -42.5592 O.2       9 UNK        -0.5000 
     27 CA         -1.6993  -20.8991  -41.5699 C.3       9 UNK         0.1400 
     28 CB         -1.4547  -20.9416  -40.0541 C.3       9 UNK        -0.1800 
     29 N          -1.1494  -19.6633  -42.1271 N.am      9 UNK        -0.5000 
     30 C          -1.4227  -19.2037  -43.3567 C.2       8 UNK         0.5000 
     31 O          -2.1892  -19.7599  -44.1411 O.2       8 UNK        -0.5000 
     32 CA         -0.6772  -17.9329  -43.8025 C.3       8 UNK         0.1400 
     33 CB         -1.3918  -16.6807  -43.2750 C.3       8 UNK        -0.1800 
     34 N           0.7230  -17.9123  -43.3747 N.am      8 UNK        -0.5000 
     35 C           1.6383  -18.8222  -43.7372 C.2       7 UNK         0.5000 
     36 O           1.3947  -19.7699  -44.4783 O.2       7 UNK        -0.5000 
     37 CA          3.0431  -18.6881  -43.1285 C.3       7 UNK         0.1400 
     38 CB          3.8684  -17.6556  -43.9090 C.3       7 UNK        -0.1800 
     39 N           3.0183  -18.3282  -41.7112 N.am      7 UNK        -0.5000 
     40 C           2.4498  -19.0436  -40.7323 C.2       6 UNK         0.5000 
     41 O           1.8781  -20.1176  -40.9259 O.2       6 UNK        -0.5000 
     42 CA          2.4825  -18.4538  -39.3056 C.3       6 UNK         0.1400 
     43 CB          3.7525  -18.8903  -38.5514 C.3       6 UNK        -0.1800 
     44 N           2.2818  -16.9964  -39.2439 N.am      6 UNK        -0.5000 
     45 C           3.0851  -16.0165  -39.6811 C.2       5 UNK         0.5000 
     46 O           4.2047  -16.1999  -40.1642 O.2       5 UNK        -0.5000 
     47 CA          2.5053  -14.5887  -39.6375 C.3       5 UNK         0.1400 
     48 CB          3.2304  -13.7380  -38.5836 C.3       5 UNK        -0.1800 
     49 N           2.5905  -13.9211  -40.9409 N.am      5 UNK        -0.5000 
     50 C           2.0800  -14.3996  -42.0836 C.2       4 UNK         0.5000 
     51 O           1.4336  -15.4505  -42.1549 O.2       4 UNK        -0.5000 
     52 CA          2.3401  -13.5840  -43.3614 C.3       4 UNK         0.1400 
     53 CB          3.8457  -13.4903  -43.6811 C.3       4 UNK        -0.1800 
     54 N           1.6276  -14.2377  -44.4542 N.am      4 UNK        -0.5000 
     55 C           1.3366  -13.7236  -45.6509 C.2       3 UNK         0.5000 
     56 O           1.6490  -12.5858  -46.0101 O.2       3 UNK        -0.5000 
     57 CA          0.5123  -14.6341  -46.5828 C.3       3 UNK         0.1400 
     58 CB         -0.9868  -14.3267  -46.4360 C.3       3 UNK        -0.1800 
     59 N           0.8857  -14.5007  -47.9910 N.am      3 UNK        -0.5000 
     60 C           2.0920  -14.7696  -48.5101 C.2       2 UNK         0.5000 
     61 O           3.0185  -15.2397  -47.8479 O.2       2 UNK        -0.5000 
     62 CA          2.3071  -14.4866  -50.0166 C.3       2 UNK         0.1400 
     63 CB          3.0648  -15.6310  -50.7120 C.3       2 UNK        -0.1800 
     64 N           1.0709  -14.2296  -50.7638 N.am      2 UNK        -0.5000 
     65 C           0.4244  -13.0570  -50.8082 C.2       1 UNK         0.5000 
     66 O           0.8092  -12.0601  -50.1928 O.2       1 UNK        -0.5000 
     67 C          -1.8593  -22.4385  -46.8242 C.2       11 UNK         0.5000 
     68 O          -2.2934  -22.9658  -47.8485 O.2       11 UNK        -0.5000 
     69 N          -2.6197  -22.1929  -45.7481 N.am      12 UNK        -0.5000 
     70 CA         -4.0054  -22.6417  -45.6064 C.3       12 UNK         0.1400 
     71 CB         -4.6915  -21.8939  -44.4547 C.3       12 UNK        -0.1800 
     72 C          -4.0970  -24.1643  -45.4153 C.2       12 UNK         0.5000 
     73 O          -4.9365  -24.7984  -46.0530 O.2       12 UNK        -0.5000 
     74 N          -3.2029  -24.7320  -44.5925 N.am      13 UNK        -0.5000 
     75 CA         -3.0690  -26.1760  -44.3770 C.3       13 UNK         0.1400 
     76 CB         -2.0954  -26.4355  -43.2176 C.3       13 UNK        -0.1800 
     77 C          -2.6288  -26.9313  -45.6469 C.2       13 UNK         0.5000 
     78 O          -3.1297  -28.0247  -45.9105 O.2       13 UNK        -0.5000 
     79 N          -1.7371  -26.3125  -46.4330 N.am      14 UNK        -0.5000 
     80 CA         -1.2993  -26.7843  -47.7498 C.3       14 UNK         0.1400 
     81 CB          0.0079  -26.0648  -48.1181 C.3       14 UNK        -0.1800 
     82 C          -2.3501  -26.5781  -48.8629 C.2       14 UNK         0.5000 
     83 O          -2.1683  -27.1026  -49.9616 O.2       14 UNK        -0.5000 
     84 N          -3.4036  -25.8005  -48.5712 N.am      15 UNK        -0.5000 
     85 CA         -4.5131  -25.3908  -49.4396 C.3       15 UNK         0.1400 
     86 CB         -5.2931  -26.6074  -49.9762 C.3       15 UNK        -0.1800 
     87 C          -4.1221  -24.4054  -50.5608 C.2       15 UNK         0.5000 
     88 O          -4.9668  -24.0767  -51.3934 O.2       15 UNK        -0.5000 
     89 N          -2.8843  -23.8959  -50.5410 N.am      16 UNK        -0.5000 
     90 CA         -2.3683  -22.8957  -51.4755 C.3       16 UNK         0.1400 
     91 CB         -0.8498  -22.7664  -51.2888 C.3       16 UNK        -0.1800 
     92 C          -3.0538  -21.5308  -51.2994 C.2       16 UNK         0.5000 
     93 O          -3.3788  -20.8785  -52.2934 O.2       16 UNK        -0.5000 
     94 N          -3.3009  -21.1508  -50.0371 N.am      17 UNK        -0.5000 
     95 CA         -4.0443  -19.9417  -49.6802 C.3       17 UNK         0.1400 
     96 CB         -3.7344  -19.5434  -48.2298 C.3       17 UNK        -0.1800 
     97 C          -5.5603  -20.1078  -49.8791 C.2       17 UNK         0.5000 
     98 O          -6.2344  -19.1299  -50.1994 O.2       17 UNK        -0.5000 
     99 N          -6.0642  -21.3392  -49.7077 N.am      18 UNK        -0.5000 
    100 CA        -7.4710  -21.6952  -49.9065 C.3       18 UNK         0.1400 
    101 CB        -7.7496  -23.0737  -49.2871 C.3       18 UNK        -0.1800 
    102 C         -7.8647  -21.6669  -51.3940 C.2       18 UNK         0.5000 
    103 O         -8.9203  -21.1335  -51.7363 O.2       18 UNK        -0.5000 
    104 N         -6.9869  -22.2053  -52.2521 N.am      19 UNK        -0.5000 
    105 CA        -7.1013  -22.1422  -53.7099 C.3       19 UNK         0.1400 
    106 CB        -6.1566  -23.1872  -54.3244 C.3       19 UNK        -0.1800 
    107 C         -6.7813  -20.7456  -54.2783 C.2       19 UNK         0.5000 
    108 O         -7.1933  -20.4463  -55.3995 O.2       19 UNK        -0.5000 
    109 N         -6.0370  -19.9384  -53.5056 N.am      20 UNK        -0.5000 
    110 CA        -5.4768  -18.6284  -53.8514 C.3       20 UNK         0.1400 
    111 CB        -6.5908  -17.5805  -54.0484 C.3       20 UNK        -0.1800 
    112 C         -4.5076  -18.7278  -55.0466 C.2       20 UNK         0.5000 
    113 O         -4.5550  -17.9090  -55.9670 O.2       20 UNK        -0.5000 
    114 N         -3.6420  -19.7513  -55.0038 N.am      21 UNK        -0.5000 
    115 CA        -2.7375  -20.1606  -56.0842 C.3       21 UNK         0.1400 
    116 CB        -2.0487  -21.4709  -55.6702 C.3       21 UNK        -0.1800 
    117 C         -1.6915  -19.0996  -56.4830 C.2       21 UNK         0.5000 
    118 O         -1.1780  -19.1378  -57.6017 O.2       21 UNK        -0.5000 
    119 N         -1.4102  -18.1758  -55.5603 N.am      22 UNK        -0.5000 
    120 CA        -0.5014  -17.0349  -55.7263 C.3       22 UNK         0.1400 
    121 C         -1.2169  -15.7503  -56.2419 C.2       22 UNK         0.5000 
    122 N         -2.5257  -15.7511  -56.4731 N.am      22 UNK        -0.7600 
    123 O         -0.5684  -14.7278  -56.4452 O.2       22 UNK        -0.5000 
    124 C124        0.2813  -16.7558  -54.4165 C.3       23 UNK        -0.0398 
    125 S125        1.3503  -18.1475  -53.9060 S.3       23 UNK        -0.2404 
    126 C126        0.2529  -19.1722  -52.8698 C.3       23 UNK        -0.0205 
    127 H127        0.6587  -10.6948  -52.6622 H         1 UNK         0.0600 
    128 H128       -0.5574  -10.9449  -53.9289 H         1 UNK         0.0600 
    129 H129       -0.2299   -9.3258  -53.3187 H         1 UNK         0.0600 
    130 H130       -2.3192  -11.8412  -50.7115 H         1 UNK         0.3000 
    131 H131       -0.5183  -12.9885  -52.7119 H         1 UNK         0.0600 
    132 H132       -2.6532  -14.1224  -52.1739 H         1 UNK         0.0800 
    133 H133       -1.2624  -15.1163  -51.9191 H         1 UNK         0.0800 
    134 H134       -3.4549  -16.5433  -50.6785 H         1 UNK         0.0800 
    135 H135       -3.2077  -16.6335  -48.9543 H         1 UNK         0.0800 
    136 H136       -1.8950  -17.6337  -52.1498 H         1 UNK         0.1150 
    137 H137        1.7178  -19.3331  -50.5970 H         1 UNK         0.1150 
    138 H138       -0.8208  -17.0019  -48.0517 H         1 UNK         0.1150 
    139 H139        1.1566  -17.9601  -47.1295 H         1 UNK         0.0800 
    140 H140        2.4788  -18.0984  -48.2644 H         1 UNK         0.0800 
    141 H141       -0.6688  -20.5805  -48.3518 H         1 UNK         0.0800 
    142 H142       -0.5992  -19.8753  -46.7478 H         1 UNK         0.0800 
    143 H143        0.1637  -22.7611  -47.3909 H         1 UNK         0.0600 
    144 H144        0.5067  -21.2756  -44.9924 H         1 UNK         0.3000 
    145 H145        0.6705  -24.1360  -42.8054 H         1 UNK         0.0600 
    146 H146        2.7566  -22.9007  -42.2405 H         1 UNK         0.0600 
    147 H147        2.9214  -23.7456  -43.7733 H         1 UNK         0.0600 
    148 H148        2.6614  -22.0074  -43.7558 H         1 UNK         0.0600 
    149 H149        0.7410  -21.3434  -42.2452 H         1 UNK         0.3000 
    150 H150       -2.7787  -20.8937  -41.7355 H         1 UNK         0.0600 
    151 H151       -0.3918  -20.9530  -39.8126 H         1 UNK         0.0600 
    152 H152       -1.8983  -21.8362  -39.6151 H         1 UNK         0.0600 
    153 H153       -1.9026  -20.0805  -39.5580 H         1 UNK         0.0600 
    154 H154       -0.4643  -19.1753  -41.5695 H         1 UNK         0.3000 
    155 H155       -0.6920  -17.9032  -44.8940 H         1 UNK         0.0600 
    156 H156       -1.4076  -16.6559  -42.1847 H         1 UNK         0.0600 
    157 H157       -2.4253  -16.6445  -43.6219 H         1 UNK         0.0600 
    158 H158       -0.9015  -15.7710  -43.6169 H         1 UNK         0.0600 
    159 H159        1.0032  -17.1532  -42.7574 H         1 UNK         0.3000 
    160 H160        3.5375  -19.6577  -43.2140 H         1 UNK         0.0600 
    161 H161        3.4170  -16.6654  -43.8615 H         1 UNK         0.0600 
    162 H162        3.9422  -17.9307  -44.9621 H         1 UNK         0.0600 
    163 H163        4.8835  -17.5820  -43.5186 H         1 UNK         0.0600 
    164 H164        3.4771  -17.4627  -41.4451 H         1 UNK         0.3000 
    165 H165        1.6306  -18.8859  -38.7782 H         1 UNK         0.0600 
    166 H166        3.7532  -18.5136  -37.5286 H         1 UNK         0.0600 
    167 H167        4.6618  -18.5394  -39.0399 H         1 UNK         0.0600 
    168 H168        3.8148  -19.9779  -38.4973 H         1 UNK         0.0600 
    169 H169        1.3720  -16.7216  -38.8998 H         1 UNK         0.3000 
    170 H170        1.4490  -14.6432  -39.3662 H         1 UNK         0.0600 
    171 H171        3.1684  -14.2015  -37.5981 H         1 UNK         0.0600 
    172 H172        4.2876  -13.6164  -38.8231 H         1 UNK         0.0600 
    173 H173        2.7872  -12.7452  -38.5033 H         1 UNK         0.0600 
    174 H174        3.1276  -13.0670  -40.9679 H         1 UNK         0.3000 
    175 H175        1.9286  -12.5833  -43.2167 H         1 UNK         0.0600 
    176 H176        4.2942  -14.4753  -43.8095 H         1 UNK         0.0600 
    177 H177        4.0247  -12.9236  -44.5948 H         1 UNK         0.0600 
    178 H178        4.3901  -12.9847  -42.8831 H         1 UNK         0.0600 
    179 H179        1.2819  -15.1539  -44.1988 H         1 UNK         0.3000 
    180 H180        0.6838  -15.6719  -46.2905 H         1 UNK         0.0600 
    181 H181       -1.2933  -14.3192  -45.3902 H         1 UNK         0.0600 
    182 H182       -1.5978  -15.0725  -46.9429 H         1 UNK         0.0600 
    183 H183       -1.2368  -13.3497  -46.8515 H         1 UNK         0.0600 
    184 H184        0.1911  -14.0973  -48.6013 H         1 UNK         0.3000 
    185 H185        2.9380  -13.5972  -50.0739 H         1 UNK         0.0600 
    186 H186        3.2670  -15.3927  -51.7563 H         1 UNK         0.0600 
    187 H187        4.0268  -15.8192  -50.2339 H         1 UNK         0.0600 
    188 H188        2.4991  -16.5607  -50.6872 H         1 UNK         0.0600 
    189 H189        0.6884  -15.0255  -51.2522 H         1 UNK         0.3000 
    190 H190       -2.2280  -21.6700  -44.9731 H         1 UNK         0.3000 
    191 H191       -4.5417  -22.3976  -46.5255 H         1 UNK         0.0600 
    192 H192       -5.7293  -22.2116  -44.3469 H         1 UNK         0.0600 
    193 H193       -4.6986  -20.8188  -44.6343 H         1 UNK         0.0600 
    194 H194       -4.1937  -22.0709  -43.5018 H         1 UNK         0.0600 
    195 H195       -2.5743  -24.1334  -44.0643 H         1 UNK         0.3000 
    196 H196       -4.0492  -26.5605  -44.0876 H         1 UNK         0.0600 
    197 H197       -1.0968  -26.0568  -43.4354 H         1 UNK         0.0600 
    198 H198       -2.4398  -25.9579  -42.3001 H         1 UNK         0.0600 
    199 H199       -2.0049  -27.5033  -43.0152 H         1 UNK         0.0600 
    200 H200       -1.3034  -25.4598  -46.0900 H         1 UNK         0.3000 
    201 H201       -1.0954  -27.8549  -47.6841 H         1 UNK         0.0600 
    202 H202       -0.1429  -24.9903  -48.2226 H         1 UNK         0.0600 
    203 H203        0.4067  -26.4334  -49.0640 H         1 UNK         0.0600 
    204 H204        0.7743  -26.2237  -47.3592 H         1 UNK         0.0600 
    205 H205       -3.4450  -25.4186  -47.6352 H         1 UNK         0.3000 
    206 H206       -5.1911  -24.8361  -48.7907 H         1 UNK         0.0600 
    207 H207       -5.5780  -27.2805  -49.1675 H         1 UNK         0.0600 
    208 H208       -6.2114  -26.2941  -50.4743 H         1 UNK         0.0600 
    209 H209       -4.7113  -27.1774  -50.7008 H         1 UNK         0.0600 
    210 H210       -2.2914  -24.1385  -49.7589 H         1 UNK         0.3000 
    211 H211       -2.5651  -23.2427  -52.4920 H         1 UNK         0.0600 
    212 H212       -0.4301  -22.0639  -52.0083 H         1 UNK         0.0600 
    213 H213       -0.3510  -23.7235  -51.4422 H         1 UNK         0.0600 
    214 H214       -0.5916  -22.4104  -50.2904 H         1 UNK         0.0600 
    215 H215       -3.0026  -21.7603  -49.2826 H         1 UNK         0.3000 
    216 H216       -3.7167  -19.1298  -50.3318 H         1 UNK         0.0600 
    217 H217       -4.0081  -20.3278  -47.5263 H         1 UNK         0.0600 
    218 H218       -4.2872  -18.6476  -47.9446 H         1 UNK         0.0600 
    219 H219       -2.6773  -19.3215  -48.0972 H         1 UNK         0.0600 
    220 H220       -5.4324  -22.0872  -49.4700 H         1 UNK         0.3000 
    221 H221       -8.0842  -20.9592  -49.3818 H         1 UNK         0.0600 
    222 H222       -7.4599  -23.1038  -48.2365 H         1 UNK         0.0600 
    223 H223       -7.2166  -23.8689  -49.8076 H         1 UNK         0.0600 
    224 H224       -8.8129  -23.3110  -49.3376 H         1 UNK         0.0600 
    225 H225       -6.1778  -22.7018  -51.8874 H         1 UNK         0.3000 
    226 H226       -8.1258  -22.3931  -53.9923 H         1 UNK         0.0600 
    227 H227       -5.1151  -22.9847  -54.0699 H         1 UNK         0.0600 
    228 H228       -6.3969  -24.1910  -53.9734 H         1 UNK         0.0600 
    229 H229       -6.2339  -23.1952  -55.4124 H         1 UNK         0.0600 
    230 H230       -5.7321  -20.3132  -52.6186 H         1 UNK         0.3000 
    231 H231       -4.8778  -18.3158  -52.9946 H         1 UNK         0.0600 
    232 H232       -7.2039  -17.7962  -54.9237 H         1 UNK         0.0600 
    233 H233       -6.1682  -16.5843  -54.1836 H         1 UNK         0.0600 
    234 H234       -7.2479  -17.5393  -53.1796 H         1 UNK         0.0600 
    235 H235       -3.6388  -20.3300  -54.1684 H         1 UNK         0.3000 
    236 H236       -3.3488  -20.3580  -56.9670 H         1 UNK         0.0600 
    237 H237       -2.7797  -22.2577  -55.4820 H         1 UNK         0.0600 
    238 H238       -1.3817  -21.8291  -56.4554 H         1 UNK         0.0600 
    239 H239       -1.4538  -21.3447  -54.7650 H         1 UNK         0.0600 
    240 H240       -1.9147  -18.2205  -54.6895 H         1 UNK         0.3000 
    241 H241        0.2323  -17.2855  -56.4947 H         1 UNK         0.0600 
    242 H242       -2.9631  -14.9096  -56.8133 H         1 UNK         0.3800 
    243 H243       -3.0915  -16.5813  -56.3319 H         1 UNK         0.3800 
    244 H244       -0.3989  -16.4912  -53.6105 H         1 UNK         0.0800 
    245 H245        0.9370  -15.8929  -54.5459 H         1 UNK         0.0800 
    246 H246       -0.6736  -19.4100  -53.3887 H         1 UNK         0.0800 
    247 H247        0.7494  -20.1297  -52.7094 H         1 UNK         0.0800 
@<TRIPOS>BOND
     1    1    2 1    
     2    1  127 1    
     3    1  128 1    
     4    1  129 1    
     5    2    3 2    
     6    2    4 am   BACKBONE|DICT|INTERRES
     7    4    5 1    
     8    4  130 1    
     9    5    6 1    
    10    5   65 1    
    11    5  131 1    
    12    6    7 1    
    13    6  132 1    
    14    6  133 1    
    15    7    8 1    
    16    8    9 1    
    17    8  134 1    
    18    8  135 1    
    19    9   10 ar   
    20    9   14 ar   
    21   10   11 ar   
    22   10  136 1    
    23   11   12 ar   
    24   11  126 1    
    25   12   13 ar   
    26   12  137 1    
    27   13   14 ar   
    28   13   15 1    
    29   14  138 1    
    30   15   16 1    
    31   15  139 1    
    32   15  140 1    
    33   16   17 1    
    34   17   18 1    
    35   17  141 1    
    36   17  142 1    
    37   18   19 1    
    38   18   67 1    
    39   18  143 1    
    40   19   20 am   BACKBONE|DICT|INTERRES
    41   19  144 1    
    42   20   21 2    
    43   20   22 1    
    44   22   23 1    
    45   22   24 1    
    46   22  145 1    
    47   23  146 1    
    48   23  147 1    
    49   23  148 1    
    50   24   25 am   BACKBONE|DICT|INTERRES
    51   24  149 1    
    52   25   26 2    
    53   25   27 1    
    54   27   28 1    
    55   27   29 1    
    56   27  150 1    
    57   28  151 1    
    58   28  152 1    
    59   28  153 1    
    60   29   30 am   BACKBONE|DICT|INTERRES
    61   29  154 1    
    62   30   31 2    
    63   30   32 1    
    64   32   33 1    
    65   32   34 1    
    66   32  155 1    
    67   33  156 1    
    68   33  157 1    
    69   33  158 1    
    70   34   35 am   BACKBONE|DICT|INTERRES
    71   34  159 1    
    72   35   36 2    
    73   35   37 1    
    74   37   38 1    
    75   37   39 1    
    76   37  160 1    
    77   38  161 1    
    78   38  162 1    
    79   38  163 1    
    80   39   40 am   BACKBONE|DICT|INTERRES
    81   39  164 1    
    82   40   41 2    
    83   40   42 1    
    84   42   43 1    
    85   42   44 1    
    86   42  165 1    
    87   43  166 1    
    88   43  167 1    
    89   43  168 1    
    90   44   45 am   BACKBONE|DICT|INTERRES
    91   44  169 1    
    92   45   46 2    
    93   45   47 1    
    94   47   48 1    
    95   47   49 1    
    96   47  170 1    
    97   48  171 1    
    98   48  172 1    
    99   48  173 1    
   100   49   50 am   BACKBONE|DICT|INTERRES
   101   49  174 1    
   102   50   51 2    
   103   50   52 1    
   104   52   53 1    
   105   52   54 1    
   106   52  175 1    
   107   53  176 1    
   108   53  177 1    
   109   53  178 1    
   110   54   55 am   BACKBONE|DICT|INTERRES
   111   54  179 1    
   112   55   56 2    
   113   55   57 1    
   114   57   58 1    
   115   57   59 1    
   116   57  180 1    
   117   58  181 1    
   118   58  182 1    
   119   58  183 1    
   120   59   60 am   BACKBONE|DICT|INTERRES
   121   59  184 1    
   122   60   61 2    
   123   60   62 1    
   124   62   63 1    
   125   62   64 1    
   126   62  185 1    
   127   63  186 1    
   128   63  187 1    
   129   63  188 1    
   130   64   65 am   BACKBONE|DICT|INTERRES
   131   64  189 1    
   132   65   66 2    
   133   67   68 2    
   134   67   69 am   BACKBONE|DICT|INTERRES
   135   69   70 1    
   136   69  190 1    
   137   70   71 1    
   138   70   72 1    
   139   70  191 1    
   140   71  192 1    
   141   71  193 1    
   142   71  194 1    
   143   72   73 2    
   144   72   74 am   BACKBONE|DICT|INTERRES
   145   74   75 1    
   146   74  195 1    
   147   75   76 1    
   148   75   77 1    
   149   75  196 1    
   150   76  197 1    
   151   76  198 1    
   152   76  199 1    
   153   77   78 2    
   154   77   79 am   BACKBONE|DICT|INTERRES
   155   79   80 1    
   156   79  200 1    
   157   80   81 1    
   158   80   82 1    
   159   80  201 1    
   160   81  202 1    
   161   81  203 1    
   162   81  204 1    
   163   82   83 2    
   164   82   84 am   BACKBONE|DICT|INTERRES
   165   84   85 1    
   166   84  205 1    
   167   85   86 1    
   168   85   87 1    
   169   85  206 1    
   170   86  207 1    
   171   86  208 1    
   172   86  209 1    
   173   87   88 2    
   174   87   89 am   BACKBONE|DICT|INTERRES
   175   89   90 1    
   176   89  210 1    
   177   90   91 1    
   178   90   92 1    
   179   90  211 1    
   180   91  212 1    
   181   91  213 1    
   182   91  214 1    
   183   92   93 2    
   184   92   94 am   BACKBONE|DICT|INTERRES
   185   94   95 1    
   186   94  215 1    
   187   95   96 1    
   188   95   97 1    
   189   95  216 1    
   190   96  217 1    
   191   96  218 1    
   192   96  219 1    
   193   97   98 2    
   194   97   99 am   BACKBONE|DICT|INTERRES
   195   99  100 1    
   196   99  220 1    
   197  100  101 1    
   198  100  102 1    
   199  100  221 1    
   200  101  222 1    
   201  101  223 1    
   202  101  224 1    
   203  102  103 2    
   204  102  104 am   BACKBONE|DICT|INTERRES
   205  104  105 1    
   206  104  225 1    
   207  105  106 1    
   208  105  107 1    
   209  105  226 1    
   210  106  227 1    
   211  106  228 1    
   212  106  229 1    
   213  107  108 2    
   214  107  109 am   BACKBONE|DICT|INTERRES
   215  109  110 1    
   216  109  230 1    
   217  110  111 1    
   218  110  112 1    
   219  110  231 1    
   220  111  232 1    
   221  111  233 1    
   222  111  234 1    
   223  112  113 2    
   224  112  114 am   BACKBONE|DICT|INTERRES
   225  114  115 1    
   226  114  235 1    
   227  115  116 1    
   228  115  117 1    
   229  115  236 1    
   230  116  237 1    
   231  116  238 1    
   232  116  239 1    
   233  117  118 2    
   234  117  119 am   BACKBONE|DICT|INTERRES
   235  119  120 1    
   236  119  240 1    
   237  120  121 1    
   238  120  124 1    
   239  120  241 1    
   240  121  122 am   BACKBONE|DICT|INTERRES
   241  121  123 2    
   242  122  242 1    
   243  122  243 1    
   244  124  125 1    
   245  124  244 1    
   246  124  245 1    
   247  125  126 1    
   248  126  246 1    
   249  126  247 1    
@<TRIPOS>SUBSTRUCTURE
     1 UNK         1 GROUP             0       ****    0 ROOT    
