@<TRIPOS>MOLECULE
3R540
247   249    1
SMALL
USER_CHARGES


@<TRIPOS>ATOM
      1 CA          6.7721  -15.2941  -45.2621 C.3       0 UNK        -0.1800 
      2 C           5.4365  -14.7605  -45.7572 C.2       0 UNK         0.5000 
      3 O           4.6711  -14.2071  -44.9722 O.2       0 UNK        -0.5000 
      4 N           5.1627  -14.8974  -47.0619 N.am      1 UNK        -0.5000 
      5 CA          3.8982  -14.5319  -47.7225 C.3       1 UNK         0.1400 
      6 C6          3.8599  -15.0698  -49.1790 C.3       23 UNK        -0.0398 
      7 S7          2.1995  -15.5987  -49.7312 S.3       23 UNK        -0.2404 
      8 C8          2.1636  -17.3329  -49.1731 C.3       23 UNK        -0.0205 
      9 C9          1.1043  -18.1483  -49.9010 C.ar      23 UNK        -0.0193 
     10 C10         1.4828  -19.0826  -50.8694 C.ar      23 UNK        -0.1150 
     11 C11         0.5257  -19.8644  -51.5233 C.ar      23 UNK        -0.0193 
     12 C12        -0.8257  -19.6999  -51.2003 C.ar      23 UNK        -0.1150 
     13 C13        -1.2204  -18.7606  -50.2442 C.ar      23 UNK        -0.0193 
     14 C14        -0.2500  -17.9920  -49.5922 C.ar      23 UNK        -0.1150 
     15 C15        -2.6963  -18.5833  -49.9159 C.3       23 UNK        -0.0205 
     16 S16        -3.3800  -20.0164  -49.0250 S.3       23 UNK        -0.2404 
     17 C17        -2.3540  -20.0249  -47.5210 C.3       23 UNK        -0.0398 
     18 CA         -1.2935  -21.1537  -47.5506 C.3       11 UNK         0.1400 
     19 N          -0.1016  -20.8210  -46.7705 N.am      11 UNK        -0.5000 
     20 C           1.0140  -21.5611  -46.7101 C.2       10 UNK         0.5000 
     21 O           1.1807  -22.6020  -47.3435 O.2       10 UNK        -0.5000 
     22 CA          2.1062  -21.0930  -45.7328 C.3       10 UNK         0.1400 
     23 CB          2.9542  -19.9721  -46.3519 C.3       10 UNK        -0.1800 
     24 N           1.5572  -20.6496  -44.4508 N.am      10 UNK        -0.5000 
     25 C           0.8819  -21.4342  -43.5986 C.2       9 UNK         0.5000 
     26 O           0.6963  -22.6384  -43.7782 O.2       9 UNK        -0.5000 
     27 CA          0.2649  -20.7481  -42.3655 C.3       9 UNK         0.1400 
     28 CB          1.3248  -20.4941  -41.2833 C.3       9 UNK        -0.1800 
     29 N          -0.4089  -19.4926  -42.7008 N.am      9 UNK        -0.5000 
     30 C          -1.4869  -19.4016  -43.4935 C.2       8 UNK         0.5000 
     31 O          -2.0530  -20.3720  -43.9977 O.2       8 UNK        -0.5000 
     32 CA         -1.9869  -17.9837  -43.8217 C.3       8 UNK         0.1400 
     33 CB         -2.8268  -17.4187  -42.6670 C.3       8 UNK        -0.1800 
     34 N          -0.8972  -17.0598  -44.1375 N.am      8 UNK        -0.5000 
     35 C          -0.0520  -17.2094  -45.1676 C.2       7 UNK         0.5000 
     36 O          -0.1186  -18.1254  -45.9819 O.2       7 UNK        -0.5000 
     37 CA          1.0938  -16.1980  -45.2843 C.3       7 UNK         0.1400 
     38 CB          0.5784  -14.8736  -45.8656 C.3       7 UNK        -0.1800 
     39 N           1.7588  -15.9670  -44.0065 N.am      7 UNK        -0.5000 
     40 C           2.3928  -16.9012  -43.2850 C.2       6 UNK         0.5000 
     41 O           2.5304  -18.0691  -43.6468 O.2       6 UNK        -0.5000 
     42 CA          2.9068  -16.4768  -41.8995 C.3       6 UNK         0.1400 
     43 CB          4.3020  -15.8445  -41.9861 C.3       6 UNK        -0.1800 
     44 N           1.9890  -15.5500  -41.2396 N.am      6 UNK        -0.5000 
     45 C           0.8001  -15.9023  -40.7337 C.2       5 UNK         0.5000 
     46 O           0.3674  -17.0560  -40.7386 O.2       5 UNK        -0.5000 
     47 CA         -0.0585  -14.7621  -40.1563 C.3       5 UNK         0.1400 
     48 CB          0.4187  -14.3797  -38.7470 C.3       5 UNK        -0.1800 
     49 N          -0.0635  -13.5708  -41.0097 N.am      5 UNK        -0.5000 
     50 C          -0.6432  -13.5201  -42.2166 C.2       4 UNK         0.5000 
     51 O          -1.2238  -14.4748  -42.7336 O.2       4 UNK        -0.5000 
     52 CA         -0.5414  -12.1901  -42.9900 C.3       4 UNK         0.1400 
     53 CB         -1.6303  -11.2135  -42.5203 C.3       4 UNK        -0.1800 
     54 N           0.7646  -11.5197  -42.9382 N.am      4 UNK        -0.5000 
     55 C           1.9384  -12.0801  -43.2585 C.2       3 UNK         0.5000 
     56 O           2.0880  -13.2829  -43.4571 O.2       3 UNK        -0.5000 
     57 CA          3.1523  -11.1531  -43.3835 C.3       3 UNK         0.1400 
     58 CB          4.2134  -11.5001  -42.3273 C.3       3 UNK        -0.1800 
     59 N           3.7322  -11.3243  -44.7158 N.am      3 UNK        -0.5000 
     60 C           3.6749  -10.4118  -45.6965 C.2       2 UNK         0.5000 
     61 O           3.1272   -9.3155  -45.5693 O.2       2 UNK        -0.5000 
     62 CA          4.3498  -10.7469  -47.0444 C.3       2 UNK         0.1400 
     63 CB          5.7260  -10.0687  -47.1332 C.3       2 UNK        -0.1800 
     64 N           4.5203  -12.1797  -47.2809 N.am      2 UNK        -0.5000 
     65 C           3.5437  -13.0228  -47.6429 C.2       1 UNK         0.5000 
     66 O           2.3977  -12.6509  -47.8957 O.2       1 UNK        -0.5000 
     67 C          -1.9045  -22.4962  -47.1110 C.2       11 UNK         0.5000 
     68 O          -2.1482  -23.3569  -47.9584 O.2       11 UNK        -0.5000 
     69 N          -2.1072  -22.6605  -45.7951 N.am      12 UNK        -0.5000 
     70 CA         -2.6316  -23.8734  -45.1650 C.3       12 UNK         0.1400 
     71 CB         -2.8364  -23.6241  -43.6637 C.3       12 UNK        -0.1800 
     72 C          -1.7478  -25.1102  -45.3999 C.2       12 UNK         0.5000 
     73 O          -2.2789  -26.1942  -45.6425 O.2       12 UNK        -0.5000 
     74 N          -0.4224  -24.9199  -45.3552 N.am      13 UNK        -0.5000 
     75 CA          0.5670  -25.9469  -45.6763 C.3       13 UNK         0.1400 
     76 CB          1.9586  -25.4725  -45.2305 C.3       13 UNK        -0.1800 
     77 C           0.5691  -26.3245  -47.1704 C.2       13 UNK         0.5000 
     78 O           0.7228  -27.5032  -47.4932 O.2       13 UNK        -0.5000 
     79 N           0.4043  -25.3255  -48.0486 N.am      14 UNK        -0.5000 
     80 CA          0.3900  -25.4871  -49.5002 C.3       14 UNK         0.1400 
     81 CB          0.5565  -24.1186  -50.1822 C.3       14 UNK        -0.1800 
     82 C          -0.8665  -26.2095  -50.0157 C.2       14 UNK         0.5000 
     83 O          -0.7344  -27.2220  -50.7058 O.2       14 UNK        -0.5000 
     84 N          -2.0537  -25.6735  -49.6989 N.am      15 UNK        -0.5000 
     85 CA         -3.3287  -26.1522  -50.2498 C.3       15 UNK         0.1400 
     86 CB         -3.4543  -25.7087  -51.7239 C.3       15 UNK        -0.1800 
     87 C          -4.5783  -25.7000  -49.4722 C.2       15 UNK         0.5000 
     88 O          -5.6620  -26.2075  -49.7635 O.2       15 UNK        -0.5000 
     89 N          -4.4391  -24.7353  -48.5495 N.am      16 UNK        -0.5000 
     90 CA         -5.5199  -23.9857  -47.8943 C.3       16 UNK         0.1400 
     91 CB         -6.3746  -24.8930  -46.9855 C.3       16 UNK        -0.1800 
     92 C          -6.3418  -23.1752  -48.9179 C.2       16 UNK         0.5000 
     93 O          -7.5732  -23.1698  -48.8765 O.2       16 UNK        -0.5000 
     94 N          -5.6180  -22.5421  -49.8530 N.am      17 UNK        -0.5000 
     95 CA         -6.0524  -21.7255  -50.9933 C.3       17 UNK         0.1400 
     96 CB         -6.8614  -20.4965  -50.5381 C.3       17 UNK        -0.1800 
     97 C          -6.8077  -22.4880  -52.0970 C.2       17 UNK         0.5000 
     98 O          -6.6515  -22.1414  -53.2683 O.2       17 UNK        -0.5000 
     99 N          -7.6369  -23.4715  -51.7223 N.am      18 UNK        -0.5000 
    100 CA        -8.4922  -24.2948  -52.5890 C.3       18 UNK         0.1400 
    101 CB        -7.6274  -25.2402  -53.4481 C.3       18 UNK        -0.1800 
    102 C         -9.4875  -23.4636  -53.4331 C.2       18 UNK         0.5000 
    103 O         -9.8648  -23.8779  -54.5302 O.2       18 UNK        -0.5000 
    104 N         -9.8654  -22.2876  -52.9056 N.am      19 UNK        -0.5000 
    105 CA       -10.6828  -21.2388  -53.5268 C.3       19 UNK         0.1400 
    106 CB       -12.1237  -21.7369  -53.7670 C.3       19 UNK        -0.1800 
    107 C        -10.0498  -20.6086  -54.7906 C.2       19 UNK         0.5000 
    108 O        -10.7750  -20.0283  -55.6009 O.2       19 UNK        -0.5000 
    109 N         -8.7213  -20.7168  -54.9381 N.am      20 UNK        -0.5000 
    110 CA        -7.9646  -20.2119  -56.0847 C.3       20 UNK         0.1400 
    111 CB        -7.4740  -21.4004  -56.9285 C.3       20 UNK        -0.1800 
    112 C         -6.7854  -19.3294  -55.6457 C.2       20 UNK         0.5000 
    113 O         -6.6173  -18.2397  -56.1952 O.2       20 UNK        -0.5000 
    114 N         -6.0044  -19.8149  -54.6675 N.am      21 UNK        -0.5000 
    115 CA        -4.7416  -19.2661  -54.1552 C.3       21 UNK         0.1400 
    116 CB        -4.9523  -17.8655  -53.5420 C.3       21 UNK        -0.1800 
    117 C         -3.5944  -19.2869  -55.1920 C.2       21 UNK         0.5000 
    118 O         -3.7983  -19.6409  -56.3560 O.2       21 UNK        -0.5000 
    119 N         -2.3864  -18.9359  -54.7353 N.am      22 UNK        -0.5000 
    120 CA        -1.1595  -18.9093  -55.5552 C.3       22 UNK         0.1400 
    121 C         -0.9184  -17.5599  -56.2948 C.2       22 UNK         0.5000 
    122 N         -1.7512  -16.5411  -56.1184 N.am      22 UNK        -0.7600 
    123 O          0.0375  -17.4368  -57.0559 O.2       22 UNK        -0.5000 
    124 C124        0.0899  -19.3332  -54.7402 C.3       23 UNK        -0.0398 
    125 S125       -0.0865  -21.0066  -54.0289 S.3       23 UNK        -0.2404 
    126 C126        0.9776  -20.8984  -52.5511 C.3       23 UNK        -0.0205 
    127 H127        7.3705  -15.7078  -46.0741 H         1 UNK         0.0600 
    128 H128        6.6093  -16.0793  -44.5241 H         1 UNK         0.0600 
    129 H129        7.3431  -14.4946  -44.7902 H         1 UNK         0.0600 
    130 H130        5.8543  -15.3316  -47.6565 H         1 UNK         0.3000 
    131 H131        3.1260  -15.0517  -47.1569 H         1 UNK         0.0600 
    132 H132        4.2401  -14.3260  -49.8817 H         1 UNK         0.0800 
    133 H133        4.5271  -15.9253  -49.2908 H         1 UNK         0.0800 
    134 H134        3.1442  -17.7901  -49.3120 H         1 UNK         0.0800 
    135 H135        1.9622  -17.3591  -48.1039 H         1 UNK         0.0800 
    136 H136        2.5297  -19.2100  -51.1065 H         1 UNK         0.1150 
    137 H137       -1.5750  -20.3081  -51.6870 H         1 UNK         0.1150 
    138 H138       -0.5440  -17.2734  -48.8398 H         1 UNK         0.1150 
    139 H139       -2.8573  -17.6809  -49.3240 H         1 UNK         0.0800 
    140 H140       -3.2568  -18.4456  -50.8408 H         1 UNK         0.0800 
    141 H141       -2.9999  -20.0911  -46.6437 H         1 UNK         0.0800 
    142 H142       -1.8757  -19.0511  -47.4480 H         1 UNK         0.0800 
    143 H143       -0.9459  -21.2752  -48.5789 H         1 UNK         0.0600 
    144 H144       -0.1257  -19.9374  -46.2662 H         1 UNK         0.3000 
    145 H145        2.7610  -21.9446  -45.5373 H         1 UNK         0.0600 
    146 H146        3.3603  -20.2739  -47.3182 H         1 UNK         0.0600 
    147 H147        2.3679  -19.0678  -46.5085 H         1 UNK         0.0600 
    148 H148        3.7958  -19.7147  -45.7087 H         1 UNK         0.0600 
    149 H149        1.7059  -19.6733  -44.2071 H         1 UNK         0.3000 
    150 H150       -0.4845  -21.4256  -41.9510 H         1 UNK         0.0600 
    151 H151        0.8776  -20.0621  -40.3878 H         1 UNK         0.0600 
    152 H152        2.1024  -19.8131  -41.6288 H         1 UNK         0.0600 
    153 H153        1.8111  -21.4249  -40.9888 H         1 UNK         0.0600 
    154 H154       -0.0130  -18.6431  -42.3171 H         1 UNK         0.3000 
    155 H155       -2.6264  -18.0552  -44.7038 H         1 UNK         0.0600 
    156 H156       -2.2290  -17.2736  -41.7665 H         1 UNK         0.0600 
    157 H157       -3.6473  -18.0913  -42.4139 H         1 UNK         0.0600 
    158 H158       -3.2653  -16.4571  -42.9341 H         1 UNK         0.0600 
    159 H159       -0.7996  -16.2476  -43.5354 H         1 UNK         0.3000 
    160 H160        1.8432  -16.6092  -45.9600 H         1 UNK         0.0600 
    161 H161        0.2372  -15.0076  -46.8929 H         1 UNK         0.0600 
    162 H162        1.3571  -14.1134  -45.8767 H         1 UNK         0.0600 
    163 H163       -0.2575  -14.4760  -45.2912 H         1 UNK         0.0600 
    164 H164        1.7714  -15.0042  -43.6718 H         1 UNK         0.3000 
    165 H165        2.9855  -17.3783  -41.2881 H         1 UNK         0.0600 
    166 H166        4.7174  -15.6707  -40.9936 H         1 UNK         0.0600 
    167 H167        4.9951  -16.4939  -42.5221 H         1 UNK         0.0600 
    168 H168        4.2743  -14.8889  -42.5073 H         1 UNK         0.0600 
    169 H169        2.2359  -14.5714  -41.2654 H         1 UNK         0.3000 
    170 H170       -1.0845  -15.1285  -40.0782 H         1 UNK         0.0600 
    171 H171       -0.2370  -13.6333  -38.2984 H         1 UNK         0.0600 
    172 H172        0.4202  -15.2482  -38.0870 H         1 UNK         0.0600 
    173 H173        1.4311  -13.9741  -38.7584 H         1 UNK         0.0600 
    174 H174        0.4036  -12.7472  -40.6602 H         1 UNK         0.3000 
    175 H175       -0.7332  -12.4195  -44.0398 H         1 UNK         0.0600 
    176 H176       -1.4655  -10.8915  -41.4914 H         1 UNK         0.0600 
    177 H177       -2.6173  -11.6761  -42.5657 H         1 UNK         0.0600 
    178 H178       -1.6621  -10.3242  -43.1500 H         1 UNK         0.0600 
    179 H179        0.7398  -10.5246  -42.7684 H         1 UNK         0.3000 
    180 H180        2.8346  -10.1215  -43.2196 H         1 UNK         0.0600 
    181 H181        3.8027  -11.4276  -41.3195 H         1 UNK         0.0600 
    182 H182        5.0602  -10.8162  -42.3846 H         1 UNK         0.0600 
    183 H183        4.5962  -12.5130  -42.4564 H         1 UNK         0.0600 
    184 H184        4.1121  -12.2471  -44.9081 H         1 UNK         0.3000 
    185 H185        3.7195  -10.3375  -47.8368 H         1 UNK         0.0600 
    186 H186        6.4092  -10.4441  -46.3702 H         1 UNK         0.0600 
    187 H187        6.1858  -10.2342  -48.1077 H         1 UNK         0.0600 
    188 H188        5.6405   -8.9900  -46.9951 H         1 UNK         0.0600 
    189 H189        5.4292  -12.5682  -47.0763 H         1 UNK         0.3000 
    190 H190       -1.8979  -21.8868  -45.1689 H         1 UNK         0.3000 
    191 H191       -3.6069  -24.0828  -45.6045 H         1 UNK         0.0600 
    192 H192       -1.8997  -23.3727  -43.1656 H         1 UNK         0.0600 
    193 H193       -3.2443  -24.5081  -43.1720 H         1 UNK         0.0600 
    194 H194       -3.5352  -22.8051  -43.4926 H         1 UNK         0.0600 
    195 H195       -0.0667  -24.0072  -45.0888 H         1 UNK         0.3000 
    196 H196        0.3185  -26.8449  -45.1068 H         1 UNK         0.0600 
    197 H197        2.7141  -26.2324  -45.4337 H         1 UNK         0.0600 
    198 H198        1.9807  -25.2686  -44.1598 H         1 UNK         0.0600 
    199 H199        2.2600  -24.5622  -45.7493 H         1 UNK         0.0600 
    200 H200        0.3476  -24.3735  -47.7002 H         1 UNK         0.3000 
    201 H201        1.2540  -26.0959  -49.7752 H         1 UNK         0.0600 
    202 H202        1.5098  -23.6610  -49.9175 H         1 UNK         0.0600 
    203 H203       -0.2343  -23.4223  -49.9024 H         1 UNK         0.0600 
    204 H204        0.5354  -24.2197  -51.2680 H         1 UNK         0.0600 
    205 H205       -2.0681  -24.8495  -49.1052 H         1 UNK         0.3000 
    206 H206       -3.3312  -27.2436  -50.2124 H         1 UNK         0.0600 
    207 H207       -4.4004  -26.0349  -52.1581 H         1 UNK         0.0600 
    208 H208       -3.4088  -24.6231  -51.8179 H         1 UNK         0.0600 
    209 H209       -2.6622  -26.1309  -52.3419 H         1 UNK         0.0600 
    210 H210       -3.5107  -24.3636  -48.3638 H         1 UNK         0.3000 
    211 H211       -5.0386  -23.2448  -47.2554 H         1 UNK         0.0600 
    212 H212       -6.9604  -25.6123  -47.5580 H         1 UNK         0.0600 
    213 H213       -7.0754  -24.3009  -46.3960 H         1 UNK         0.0600 
    214 H214       -5.7506  -25.4496  -46.2862 H         1 UNK         0.0600 
    215 H215       -4.6159  -22.6481  -49.7845 H         1 UNK         0.3000 
    216 H216       -5.1323  -21.3584  -51.4497 H         1 UNK         0.0600 
    217 H217       -7.0801  -19.8408  -51.3821 H         1 UNK         0.0600 
    218 H218       -6.3090  -19.9071  -49.8069 H         1 UNK         0.0600 
    219 H219       -7.8141  -20.7772  -50.0887 H         1 UNK         0.0600 
    220 H220       -7.7284  -23.6324  -50.7225 H         1 UNK         0.3000 
    221 H221       -9.0985  -24.9115  -51.9244 H         1 UNK         0.0600 
    222 H222       -7.0351  -24.6924  -54.1818 H         1 UNK         0.0600 
    223 H223       -6.9421  -25.8175  -52.8271 H         1 UNK         0.0600 
    224 H224       -8.2471  -25.9527  -53.9935 H         1 UNK         0.0600 
    225 H225       -9.4972  -22.0607  -51.9928 H         1 UNK         0.3000 
    226 H226      -10.7370  -20.4325  -52.7941 H         1 UNK         0.0600 
    227 H227      -12.5476  -22.1704  -52.8612 H         1 UNK         0.0600 
    228 H228      -12.7773  -20.9173  -54.0675 H         1 UNK         0.0600 
    229 H229      -12.1665  -22.4917  -54.5526 H         1 UNK         0.0600 
    230 H230       -8.1893  -21.2125  -54.2322 H         1 UNK         0.3000 
    231 H231       -8.6006  -19.5922  -56.7202 H         1 UNK         0.0600 
    232 H232       -6.8517  -22.0801  -56.3448 H         1 UNK         0.0600 
    233 H233       -8.3133  -21.9736  -57.3227 H         1 UNK         0.0600 
    234 H234       -6.8824  -21.0593  -57.7790 H         1 UNK         0.0600 
    235 H235       -6.2329  -20.7351  -54.2983 H         1 UNK         0.3000 
    236 H236       -4.4371  -19.9371  -53.3511 H         1 UNK         0.0600 
    237 H237       -5.7708  -17.8720  -52.8221 H         1 UNK         0.0600 
    238 H238       -4.0630  -17.5252  -53.0115 H         1 UNK         0.0600 
    239 H239       -5.1802  -17.1170  -54.3010 H         1 UNK         0.0600 
    240 H240       -2.2757  -18.6647  -53.7699 H         1 UNK         0.3000 
    241 H241       -1.2681  -19.6470  -56.3527 H         1 UNK         0.0600 
    242 H242       -1.5868  -15.6755  -56.6084 H         1 UNK         0.3800 
    243 H243       -2.5492  -16.6296  -55.5109 H         1 UNK         0.3800 
    244 H244        0.9806  -19.3379  -55.3708 H         1 UNK         0.0800 
    245 H245        0.2812  -18.6090  -53.9472 H         1 UNK         0.0800 
    246 H246        1.9976  -20.6918  -52.8789 H         1 UNK         0.0800 
    247 H247        1.0020  -21.8748  -52.0676 H         1 UNK         0.0800 
@<TRIPOS>BOND
     1    1    2 1    
     2    1  127 1    
     3    1  128 1    
     4    1  129 1    
     5    2    3 2    
     6    2    4 am   BACKBONE|DICT|INTERRES
     7    4    5 1    
     8    4  130 1    
     9    5    6 1    
    10    5   65 1    
    11    5  131 1    
    12    6    7 1    
    13    6  132 1    
    14    6  133 1    
    15    7    8 1    
    16    8    9 1    
    17    8  134 1    
    18    8  135 1    
    19    9   10 ar   
    20    9   14 ar   
    21   10   11 ar   
    22   10  136 1    
    23   11   12 ar   
    24   11  126 1    
    25   12   13 ar   
    26   12  137 1    
    27   13   14 ar   
    28   13   15 1    
    29   14  138 1    
    30   15   16 1    
    31   15  139 1    
    32   15  140 1    
    33   16   17 1    
    34   17   18 1    
    35   17  141 1    
    36   17  142 1    
    37   18   19 1    
    38   18   67 1    
    39   18  143 1    
    40   19   20 am   BACKBONE|DICT|INTERRES
    41   19  144 1    
    42   20   21 2    
    43   20   22 1    
    44   22   23 1    
    45   22   24 1    
    46   22  145 1    
    47   23  146 1    
    48   23  147 1    
    49   23  148 1    
    50   24   25 am   BACKBONE|DICT|INTERRES
    51   24  149 1    
    52   25   26 2    
    53   25   27 1    
    54   27   28 1    
    55   27   29 1    
    56   27  150 1    
    57   28  151 1    
    58   28  152 1    
    59   28  153 1    
    60   29   30 am   BACKBONE|DICT|INTERRES
    61   29  154 1    
    62   30   31 2    
    63   30   32 1    
    64   32   33 1    
    65   32   34 1    
    66   32  155 1    
    67   33  156 1    
    68   33  157 1    
    69   33  158 1    
    70   34   35 am   BACKBONE|DICT|INTERRES
    71   34  159 1    
    72   35   36 2    
    73   35   37 1    
    74   37   38 1    
    75   37   39 1    
    76   37  160 1    
    77   38  161 1    
    78   38  162 1    
    79   38  163 1    
    80   39   40 am   BACKBONE|DICT|INTERRES
    81   39  164 1    
    82   40   41 2    
    83   40   42 1    
    84   42   43 1    
    85   42   44 1    
    86   42  165 1    
    87   43  166 1    
    88   43  167 1    
    89   43  168 1    
    90   44   45 am   BACKBONE|DICT|INTERRES
    91   44  169 1    
    92   45   46 2    
    93   45   47 1    
    94   47   48 1    
    95   47   49 1    
    96   47  170 1    
    97   48  171 1    
    98   48  172 1    
    99   48  173 1    
   100   49   50 am   BACKBONE|DICT|INTERRES
   101   49  174 1    
   102   50   51 2    
   103   50   52 1    
   104   52   53 1    
   105   52   54 1    
   106   52  175 1    
   107   53  176 1    
   108   53  177 1    
   109   53  178 1    
   110   54   55 am   BACKBONE|DICT|INTERRES
   111   54  179 1    
   112   55   56 2    
   113   55   57 1    
   114   57   58 1    
   115   57   59 1    
   116   57  180 1    
   117   58  181 1    
   118   58  182 1    
   119   58  183 1    
   120   59   60 am   BACKBONE|DICT|INTERRES
   121   59  184 1    
   122   60   61 2    
   123   60   62 1    
   124   62   63 1    
   125   62   64 1    
   126   62  185 1    
   127   63  186 1    
   128   63  187 1    
   129   63  188 1    
   130   64   65 am   BACKBONE|DICT|INTERRES
   131   64  189 1    
   132   65   66 2    
   133   67   68 2    
   134   67   69 am   BACKBONE|DICT|INTERRES
   135   69   70 1    
   136   69  190 1    
   137   70   71 1    
   138   70   72 1    
   139   70  191 1    
   140   71  192 1    
   141   71  193 1    
   142   71  194 1    
   143   72   73 2    
   144   72   74 am   BACKBONE|DICT|INTERRES
   145   74   75 1    
   146   74  195 1    
   147   75   76 1    
   148   75   77 1    
   149   75  196 1    
   150   76  197 1    
   151   76  198 1    
   152   76  199 1    
   153   77   78 2    
   154   77   79 am   BACKBONE|DICT|INTERRES
   155   79   80 1    
   156   79  200 1    
   157   80   81 1    
   158   80   82 1    
   159   80  201 1    
   160   81  202 1    
   161   81  203 1    
   162   81  204 1    
   163   82   83 2    
   164   82   84 am   BACKBONE|DICT|INTERRES
   165   84   85 1    
   166   84  205 1    
   167   85   86 1    
   168   85   87 1    
   169   85  206 1    
   170   86  207 1    
   171   86  208 1    
   172   86  209 1    
   173   87   88 2    
   174   87   89 am   BACKBONE|DICT|INTERRES
   175   89   90 1    
   176   89  210 1    
   177   90   91 1    
   178   90   92 1    
   179   90  211 1    
   180   91  212 1    
   181   91  213 1    
   182   91  214 1    
   183   92   93 2    
   184   92   94 am   BACKBONE|DICT|INTERRES
   185   94   95 1    
   186   94  215 1    
   187   95   96 1    
   188   95   97 1    
   189   95  216 1    
   190   96  217 1    
   191   96  218 1    
   192   96  219 1    
   193   97   98 2    
   194   97   99 am   BACKBONE|DICT|INTERRES
   195   99  100 1    
   196   99  220 1    
   197  100  101 1    
   198  100  102 1    
   199  100  221 1    
   200  101  222 1    
   201  101  223 1    
   202  101  224 1    
   203  102  103 2    
   204  102  104 am   BACKBONE|DICT|INTERRES
   205  104  105 1    
   206  104  225 1    
   207  105  106 1    
   208  105  107 1    
   209  105  226 1    
   210  106  227 1    
   211  106  228 1    
   212  106  229 1    
   213  107  108 2    
   214  107  109 am   BACKBONE|DICT|INTERRES
   215  109  110 1    
   216  109  230 1    
   217  110  111 1    
   218  110  112 1    
   219  110  231 1    
   220  111  232 1    
   221  111  233 1    
   222  111  234 1    
   223  112  113 2    
   224  112  114 am   BACKBONE|DICT|INTERRES
   225  114  115 1    
   226  114  235 1    
   227  115  116 1    
   228  115  117 1    
   229  115  236 1    
   230  116  237 1    
   231  116  238 1    
   232  116  239 1    
   233  117  118 2    
   234  117  119 am   BACKBONE|DICT|INTERRES
   235  119  120 1    
   236  119  240 1    
   237  120  121 1    
   238  120  124 1    
   239  120  241 1    
   240  121  122 am   BACKBONE|DICT|INTERRES
   241  121  123 2    
   242  122  242 1    
   243  122  243 1    
   244  124  125 1    
   245  124  244 1    
   246  124  245 1    
   247  125  126 1    
   248  126  246 1    
   249  126  247 1    
@<TRIPOS>SUBSTRUCTURE
     1 UNK         1 GROUP             0       ****    0 ROOT    
