@<TRIPOS>MOLECULE
3R540
247   249    1
SMALL
USER_CHARGES


@<TRIPOS>ATOM
      1 CA          3.8052  -19.1588  -49.1383 C.3       0 UNK        -0.1800 
      2 C           2.8533  -19.3300  -47.9649 C.2       0 UNK         0.5000 
      3 O           3.2596  -19.8069  -46.9050 O.2       0 UNK        -0.5000 
      4 N           1.5801  -18.9648  -48.1496 N.am      1 UNK        -0.5000 
      5 CA          0.5385  -19.0631  -47.1234 C.3       1 UNK         0.1400 
      6 C6         -0.8705  -19.2753  -47.7257 C.3       23 UNK        -0.0398 
      7 S7         -1.3561  -18.0374  -48.9778 S.3       23 UNK        -0.2404 
      8 C8         -1.5738  -19.0789  -50.4550 C.3       23 UNK        -0.0205 
      9 C9         -0.2579  -19.6155  -50.9914 C.ar      23 UNK        -0.0193 
     10 C10         0.5210  -18.8200  -51.8296 C.ar      23 UNK        -0.1150 
     11 C11         1.6857  -19.3280  -52.4085 C.ar      23 UNK        -0.0193 
     12 C12         2.1138  -20.6191  -52.0821 C.ar      23 UNK        -0.1150 
     13 C13         1.3485  -21.4249  -51.2319 C.ar      23 UNK        -0.0193 
     14 C14         0.1511  -20.9214  -50.7111 C.ar      23 UNK        -0.1150 
     15 C15         1.7769  -22.8589  -50.9331 C.3       23 UNK        -0.0205 
     16 S16         2.5732  -23.0445  -49.3003 S.3       23 UNK        -0.2404 
     17 C17         1.1533  -22.7365  -48.2020 C.3       23 UNK        -0.0398 
     18 CA          1.3305  -23.1799  -46.7300 C.3       11 UNK         0.1400 
     19 N           2.5182  -22.5820  -46.1179 N.am      11 UNK        -0.5000 
     20 C           3.2689  -23.1455  -45.1636 C.2       10 UNK         0.5000 
     21 O           3.0461  -24.2584  -44.6862 O.2       10 UNK        -0.5000 
     22 CA          4.4181  -22.2872  -44.6132 C.3       10 UNK         0.1400 
     23 CB          5.5902  -22.2355  -45.6054 C.3       10 UNK        -0.1800 
     24 N           3.9451  -20.9312  -44.3474 N.am      10 UNK        -0.5000 
     25 C           3.2884  -20.5594  -43.2440 C.2       9 UNK         0.5000 
     26 O           3.1364  -21.2887  -42.2621 O.2       9 UNK        -0.5000 
     27 CA          2.6995  -19.1351  -43.2442 C.3       9 UNK         0.1400 
     28 CB          1.3561  -19.0926  -42.4947 C.3       9 UNK        -0.1800 
     29 N           3.5983  -18.1538  -42.6415 N.am      9 UNK        -0.5000 
     30 C           4.8128  -17.8060  -43.0937 C.2       8 UNK         0.5000 
     31 O           5.3030  -18.2433  -44.1346 O.2       8 UNK        -0.5000 
     32 CA          5.6192  -16.7766  -42.2704 C.3       8 UNK         0.1400 
     33 CB          5.7615  -15.4583  -43.0489 C.3       8 UNK        -0.1800 
     34 N           5.0405  -16.4750  -40.9609 N.am      8 UNK        -0.5000 
     35 C           4.9860  -17.3058  -39.9109 C.2       7 UNK         0.5000 
     36 O           5.5196  -18.4150  -39.8921 O.2       7 UNK        -0.5000 
     37 CA          4.1758  -16.8282  -38.6857 C.3       7 UNK         0.1400 
     38 CB          5.1169  -16.4655  -37.5263 C.3       7 UNK        -0.1800 
     39 N           3.2939  -15.6841  -38.9538 N.am      7 UNK        -0.5000 
     40 C           2.2365  -15.6918  -39.7767 C.2       6 UNK         0.5000 
     41 O           1.8790  -16.6772  -40.4256 O.2       6 UNK        -0.5000 
     42 CA          1.5043  -14.3553  -39.9438 C.3       6 UNK         0.1400 
     43 CB          2.3032  -13.4060  -40.8552 C.3       6 UNK        -0.1800 
     44 N           0.1843  -14.5814  -40.5241 N.am      6 UNK        -0.5000 
     45 C          -0.8975  -13.8340  -40.2778 C.2       5 UNK         0.5000 
     46 O          -0.8913  -12.8732  -39.5060 O.2       5 UNK        -0.5000 
     47 CA         -2.2050  -14.1937  -41.0070 C.3       5 UNK         0.1400 
     48 CB         -2.6970  -13.0063  -41.8529 C.3       5 UNK        -0.1800 
     49 N          -2.0708  -15.3514  -41.8922 N.am      5 UNK        -0.5000 
     50 C          -2.6268  -16.5534  -41.6801 C.2       4 UNK         0.5000 
     51 O          -3.1789  -16.8677  -40.6243 O.2       4 UNK        -0.5000 
     52 CA         -2.5726  -17.5646  -42.8509 C.3       4 UNK         0.1400 
     53 CB         -3.7295  -18.5841  -42.8287 C.3       4 UNK        -0.1800 
     54 N          -2.4720  -16.9202  -44.1651 N.am      4 UNK        -0.5000 
     55 C          -3.3180  -16.0338  -44.7186 C.2       3 UNK         0.5000 
     56 O          -4.4226  -15.7628  -44.2459 O.2       3 UNK        -0.5000 
     57 CA         -2.8378  -15.2958  -45.9933 C.3       3 UNK         0.1400 
     58 CB         -3.2906  -13.8213  -46.0118 C.3       3 UNK        -0.1800 
     59 N          -1.3905  -15.3837  -46.2371 N.am      3 UNK        -0.5000 
     60 C          -0.3887  -14.9954  -45.4286 C.2       2 UNK         0.5000 
     61 O          -0.5624  -14.4141  -44.3555 O.2       2 UNK        -0.5000 
     62 CA          1.0353  -15.4250  -45.8614 C.3       2 UNK         0.1400 
     63 CB          2.0228  -15.4689  -44.6761 C.3       2 UNK        -0.1800 
     64 N           1.0547  -16.7083  -46.5842 N.am      2 UNK        -0.5000 
     65 C           0.5343  -17.8705  -46.1560 C.2       1 UNK         0.5000 
     66 O           0.0057  -18.0145  -45.0560 O.2       1 UNK        -0.5000 
     67 C           0.0860  -22.8093  -45.8910 C.2       11 UNK         0.5000 
     68 O          -0.8398  -22.1819  -46.4087 O.2       11 UNK        -0.5000 
     69 N           0.0958  -23.1581  -44.5975 N.am      12 UNK        -0.5000 
     70 CA         -0.8616  -22.7061  -43.5780 C.3       12 UNK         0.1400 
     71 CB         -0.4312  -23.2679  -42.2150 C.3       12 UNK        -0.1800 
     72 C          -2.3496  -23.0166  -43.8529 C.2       12 UNK         0.5000 
     73 O          -3.2152  -22.3550  -43.2793 O.2       12 UNK        -0.5000 
     74 N          -2.6264  -23.9916  -44.7297 N.am      13 UNK        -0.5000 
     75 CA         -3.9682  -24.3234  -45.2143 C.3       13 UNK         0.1400 
     76 CB         -3.9116  -25.6756  -45.9424 C.3       13 UNK        -0.1800 
     77 C          -4.5771  -23.2463  -46.1384 C.2       13 UNK         0.5000 
     78 O          -5.8020  -23.1684  -46.2359 O.2       13 UNK        -0.5000 
     79 N          -3.7200  -22.4547  -46.8054 N.am      14 UNK        -0.5000 
     80 CA         -4.0478  -21.3549  -47.7229 C.3       14 UNK         0.1400 
     81 CB         -4.6664  -20.1694  -46.9556 C.3       14 UNK        -0.1800 
     82 C          -4.8750  -21.7686  -48.9606 C.2       14 UNK         0.5000 
     83 O          -5.5810  -20.9398  -49.5389 O.2       14 UNK        -0.5000 
     84 N          -4.7461  -23.0348  -49.3825 N.am      15 UNK        -0.5000 
     85 CA         -5.4870  -23.6268  -50.5007 C.3       15 UNK         0.1400 
     86 CB         -5.1325  -25.1166  -50.6125 C.3       15 UNK        -0.1800 
     87 C          -5.2547  -22.9099  -51.8436 C.2       15 UNK         0.5000 
     88 O          -6.2009  -22.7249  -52.6078 O.2       15 UNK        -0.5000 
     89 N          -4.0143  -22.4637  -52.0825 N.am      16 UNK        -0.5000 
     90 CA         -3.6305  -21.7224  -53.2844 C.3       16 UNK         0.1400 
     91 CB         -2.1227  -21.8699  -53.5196 C.3       16 UNK        -0.1800 
     92 C          -4.0470  -20.2380  -53.2610 C.2       16 UNK         0.5000 
     93 O          -3.9290  -19.5813  -54.2977 O.2       16 UNK        -0.5000 
     94 N          -4.5290  -19.7240  -52.1182 N.am      17 UNK        -0.5000 
     95 CA         -5.2012  -18.4234  -52.0385 C.3       17 UNK         0.1400 
     96 CB         -5.0348  -17.7926  -50.6458 C.3       17 UNK        -0.1800 
     97 C          -6.6898  -18.5808  -52.3793 C.2       17 UNK         0.5000 
     98 O          -7.2245  -17.7725  -53.1369 O.2       17 UNK        -0.5000 
     99 N          -7.3163  -19.6441  -51.8524 N.am      18 UNK        -0.5000 
    100 CA        -8.7090  -20.0107  -52.1192 C.3       18 UNK         0.1400 
    101 CB        -9.1239  -21.1553  -51.1820 C.3       18 UNK        -0.1800 
    102 C         -8.9517  -20.3859  -53.5938 C.2       18 UNK         0.5000 
    103 O         -9.9343  -19.9359  -54.1840 O.2       18 UNK        -0.5000 
    104 N         -8.0302  -21.1697  -54.1704 N.am      19 UNK        -0.5000 
    105 CA        -8.0219  -21.5430  -55.5871 C.3       19 UNK         0.1400 
    106 CB        -7.1753  -22.8145  -55.7574 C.3       19 UNK        -0.1800 
    107 C         -7.4904  -20.4264  -56.5093 C.2       19 UNK         0.5000 
    108 O         -7.6789  -20.5142  -57.7229 O.2       19 UNK        -0.5000 
    109 N         -6.8167  -19.4219  -55.9259 N.am      20 UNK        -0.5000 
    110 CA        -6.1460  -18.2891  -56.5787 C.3       20 UNK         0.1400 
    111 CB        -7.1734  -17.3594  -57.2563 C.3       20 UNK        -0.1800 
    112 C         -5.0007  -18.7173  -57.5247 C.2       20 UNK         0.5000 
    113 O         -4.7157  -18.0332  -58.5092 O.2       20 UNK        -0.5000 
    114 N         -4.3617  -19.8479  -57.2003 N.am      21 UNK        -0.5000 
    115 CA        -3.2401  -20.4300  -57.9347 C.3       21 UNK         0.1400 
    116 CB        -3.2009  -21.9395  -57.6487 C.3       21 UNK        -0.1800 
    117 C         -1.8913  -19.7795  -57.5736 C.2       21 UNK         0.5000 
    118 O         -0.9635  -19.8278  -58.3820 O.2       21 UNK        -0.5000 
    119 N         -1.8005  -19.1965  -56.3731 N.am      22 UNK        -0.5000 
    120 CA        -0.5984  -18.5408  -55.8356 C.3       22 UNK         0.1400 
    121 C         -0.9372  -17.3920  -54.8442 C.2       22 UNK         0.5000 
    122 N         -2.1049  -17.3719  -54.2093 N.am      22 UNK        -0.7600 
    123 O         -0.1409  -16.4747  -54.6698 O.2       22 UNK        -0.5000 
    124 C124        0.3826  -19.5801  -55.2278 C.3       23 UNK        -0.0398 
    125 S125        2.1430  -19.0691  -55.1634 S.3       23 UNK        -0.2404 
    126 C126        2.4258  -18.4979  -53.4455 C.3       23 UNK        -0.0205 
    127 H127        3.3373  -18.6205  -49.9627 H         1 UNK         0.0600 
    128 H128        4.1226  -20.1349  -49.5052 H         1 UNK         0.0600 
    129 H129        4.6899  -18.6038  -48.8270 H         1 UNK         0.0600 
    130 H130        1.2784  -18.6180  -49.0502 H         1 UNK         0.3000 
    131 H131        0.7495  -19.9359  -46.5033 H         1 UNK         0.0600 
    132 H132       -1.6282  -19.2915  -46.9397 H         1 UNK         0.0800 
    133 H133       -0.9129  -20.2643  -48.1745 H         1 UNK         0.0800 
    134 H134       -2.0464  -18.4828  -51.2362 H         1 UNK         0.0800 
    135 H135       -2.2652  -19.8928  -50.2353 H         1 UNK         0.0800 
    136 H136        0.1868  -17.8220  -52.0774 H         1 UNK         0.1150 
    137 H137        3.0172  -21.0104  -52.5283 H         1 UNK         0.1150 
    138 H138       -0.4764  -21.5533  -50.1014 H         1 UNK         0.1150 
    139 H139        0.9139  -23.5231  -50.9978 H         1 UNK         0.0800 
    140 H140        2.4753  -23.2039  -51.6969 H         1 UNK         0.0800 
    141 H141        0.9598  -21.6679  -48.2403 H         1 UNK         0.0800 
    142 H142        0.2797  -23.2322  -48.6287 H         1 UNK         0.0800 
    143 H143        1.4222  -24.2680  -46.7191 H         1 UNK         0.0600 
    144 H144        2.7667  -21.6495  -46.4339 H         1 UNK         0.3000 
    145 H145        4.7747  -22.7394  -43.6852 H         1 UNK         0.0600 
    146 H146        6.4185  -21.6519  -45.2032 H         1 UNK         0.0600 
    147 H147        5.2985  -21.7882  -46.5567 H         1 UNK         0.0600 
    148 H148        5.9678  -23.2370  -45.8150 H         1 UNK         0.0600 
    149 H149        4.0145  -20.2727  -45.1182 H         1 UNK         0.3000 
    150 H150        2.5255  -18.8367  -44.2785 H         1 UNK         0.0600 
    151 H151        0.6444  -19.7933  -42.9308 H         1 UNK         0.0600 
    152 H152        0.9067  -18.1014  -42.5465 H         1 UNK         0.0600 
    153 H153        1.4695  -19.3480  -41.4404 H         1 UNK         0.0600 
    154 H154        3.2650  -17.7258  -41.7868 H         1 UNK         0.3000 
    155 H155        6.6157  -17.1951  -42.1155 H         1 UNK         0.0600 
    156 H156        6.2184  -15.6250  -44.0253 H         1 UNK         0.0600 
    157 H157        6.3946  -14.7501  -42.5139 H         1 UNK         0.0600 
    158 H158        4.7937  -14.9841  -43.2163 H         1 UNK         0.0600 
    159 H159        4.5787  -15.5826  -40.8728 H         1 UNK         0.3000 
    160 H160        3.5495  -17.6651  -38.3699 H         1 UNK         0.0600 
    161 H161        5.7576  -15.6195  -37.7784 H         1 UNK         0.0600 
    162 H162        5.7662  -17.3042  -37.2711 H         1 UNK         0.0600 
    163 H163        4.5559  -16.2076  -36.6278 H         1 UNK         0.0600 
    164 H164        3.5255  -14.8275  -38.4710 H         1 UNK         0.3000 
    165 H165        1.4014  -13.9084  -38.9527 H         1 UNK         0.0600 
    166 H166        1.7945  -12.4486  -40.9694 H         1 UNK         0.0600 
    167 H167        3.2915  -13.1979  -40.4439 H         1 UNK         0.0600 
    168 H168        2.4421  -13.8295  -41.8505 H         1 UNK         0.0600 
    169 H169        0.1052  -15.3998  -41.1132 H         1 UNK         0.3000 
    170 H170       -2.9539  -14.3884  -40.2369 H         1 UNK         0.0600 
    171 H171       -2.8782  -12.1275  -41.2329 H         1 UNK         0.0600 
    172 H172       -1.9682  -12.7271  -42.6148 H         1 UNK         0.0600 
    173 H173       -3.6332  -13.2445  -42.3584 H         1 UNK         0.0600 
    174 H174       -1.6149  -15.1708  -42.7818 H         1 UNK         0.3000 
    175 H175       -1.6449  -18.1226  -42.7192 H         1 UNK         0.0600 
    176 H176       -4.7017  -18.0967  -42.9041 H         1 UNK         0.0600 
    177 H177       -3.6438  -19.2939  -43.6515 H         1 UNK         0.0600 
    178 H178       -3.7242  -19.1637  -41.9050 H         1 UNK         0.0600 
    179 H179       -1.5898  -17.0978  -44.6380 H         1 UNK         0.3000 
    180 H180       -3.3177  -15.8024  -46.8320 H         1 UNK         0.0600 
    181 H181       -2.9543  -13.3168  -46.9175 H         1 UNK         0.0600 
    182 H182       -2.9021  -13.2687  -45.1558 H         1 UNK         0.0600 
    183 H183       -4.3780  -13.7427  -45.9845 H         1 UNK         0.0600 
    184 H184       -1.1318  -15.8731  -47.0826 H         1 UNK         0.3000 
    185 H185        1.3861  -14.6660  -46.5617 H         1 UNK         0.0600 
    186 H186        1.6826  -16.1430  -43.8896 H         1 UNK         0.0600 
    187 H187        3.0102  -15.8010  -44.9965 H         1 UNK         0.0600 
    188 H188        2.1413  -14.4810  -44.2304 H         1 UNK         0.0600 
    189 H189        1.4586  -16.6877  -47.5099 H         1 UNK         0.3000 
    190 H190        0.8963  -23.6782  -44.2600 H         1 UNK         0.3000 
    191 H191       -0.7826  -21.6185  -43.5327 H         1 UNK         0.0600 
    192 H192       -1.0970  -22.9273  -41.4209 H         1 UNK         0.0600 
    193 H193        0.5756  -22.9400  -41.9541 H         1 UNK         0.0600 
    194 H194       -0.4429  -24.3585  -42.2096 H         1 UNK         0.0600 
    195 H195       -1.8542  -24.4903  -45.1457 H         1 UNK         0.3000 
    196 H196       -4.6280  -24.4270  -44.3503 H         1 UNK         0.0600 
    197 H197       -3.2477  -25.6408  -46.8071 H         1 UNK         0.0600 
    198 H198       -4.8997  -25.9698  -46.2989 H         1 UNK         0.0600 
    199 H199       -3.5590  -26.4660  -45.2794 H         1 UNK         0.0600 
    200 H200       -2.7266  -22.5752  -46.6264 H         1 UNK         0.3000 
    201 H201       -3.0945  -21.0177  -48.1241 H         1 UNK         0.0600 
    202 H202       -5.6611  -20.4085  -46.5785 H         1 UNK         0.0600 
    203 H203       -4.7595  -19.2915  -47.5956 H         1 UNK         0.0600 
    204 H204       -4.0457  -19.8833  -46.1065 H         1 UNK         0.0600 
    205 H205       -4.1448  -23.6522  -48.8578 H         1 UNK         0.3000 
    206 H206       -6.5509  -23.5461  -50.2685 H         1 UNK         0.0600 
    207 H207       -5.3833  -25.6513  -49.6961 H         1 UNK         0.0600 
    208 H208       -5.6859  -25.5897  -51.4249 H         1 UNK         0.0600 
    209 H209       -4.0698  -25.2653  -50.8084 H         1 UNK         0.0600 
    210 H210       -3.2912  -22.6502  -51.4038 H         1 UNK         0.3000 
    211 H211       -4.1354  -22.1763  -54.1392 H         1 UNK         0.0600 
    212 H212       -1.5461  -21.3581  -52.7539 H         1 UNK         0.0600 
    213 H213       -1.8373  -21.4486  -54.4830 H         1 UNK         0.0600 
    214 H214       -1.8209  -22.9173  -53.5262 H         1 UNK         0.0600 
    215 H215       -4.6236  -20.3255  -51.3095 H         1 UNK         0.3000 
    216 H216       -4.7615  -17.7357  -52.7639 H         1 UNK         0.0600 
    217 H217       -5.5496  -16.8323  -50.5960 H         1 UNK         0.0600 
    218 H218       -3.9908  -17.5999  -50.4121 H         1 UNK         0.0600 
    219 H219       -5.4476  -18.4170  -49.8554 H         1 UNK         0.0600 
    220 H220       -6.8061  -20.2401  -51.2118 H         1 UNK         0.3000 
    221 H221       -9.3312  -19.1430  -51.8905 H         1 UNK         0.0600 
    222 H222      -10.1700  -21.4238  -51.3343 H         1 UNK         0.0600 
    223 H223       -8.5276  -22.0526  -51.3488 H         1 UNK         0.0600 
    224 H224       -9.0102  -20.8691  -50.1362 H         1 UNK         0.0600 
    225 H225       -7.2966  -21.5711  -53.5904 H         1 UNK         0.3000 
    226 H226       -9.0440  -21.7697  -55.8974 H         1 UNK         0.0600 
    227 H227       -7.5545  -23.6271  -55.1374 H         1 UNK         0.0600 
    228 H228       -7.1906  -23.1607  -56.7917 H         1 UNK         0.0600 
    229 H229       -6.1336  -22.6442  -55.4847 H         1 UNK         0.0600 
    230 H230       -6.7502  -19.4362  -54.9186 H         1 UNK         0.3000 
    231 H231       -5.6717  -17.7213  -55.7768 H         1 UNK         0.0600 
    232 H232       -6.6991  -16.4433  -57.6098 H         1 UNK         0.0600 
    233 H233       -7.9586  -17.0679  -56.5585 H         1 UNK         0.0600 
    234 H234       -7.6466  -17.8350  -58.1157 H         1 UNK         0.0600 
    235 H235       -4.6304  -20.3038  -56.3403 H         1 UNK         0.3000 
    236 H236       -3.4038  -20.2882  -59.0051 H         1 UNK         0.0600 
    237 H237       -3.0449  -22.1467  -56.5897 H         1 UNK         0.0600 
    238 H238       -4.1311  -22.4215  -57.9507 H         1 UNK         0.0600 
    239 H239       -2.3921  -22.4208  -58.2001 H         1 UNK         0.0600 
    240 H240       -2.6174  -19.1970  -55.7750 H         1 UNK         0.3000 
    241 H241       -0.0967  -18.0559  -56.6754 H         1 UNK         0.0600 
    242 H242       -2.2985  -16.5942  -53.5997 H         1 UNK         0.3800 
    243 H243       -2.7844  -18.1189  -54.2936 H         1 UNK         0.3800 
    244 H244        0.3803  -20.4759  -55.8498 H         1 UNK         0.0800 
    245 H245        0.0224  -19.9270  -54.2624 H         1 UNK         0.0800 
    246 H246        3.4956  -18.5243  -53.2347 H         1 UNK         0.0800 
    247 H247        2.1307  -17.4499  -53.3733 H         1 UNK         0.0800 
@<TRIPOS>BOND
     1    1    2 1    
     2    1  127 1    
     3    1  128 1    
     4    1  129 1    
     5    2    3 2    
     6    2    4 am   BACKBONE|DICT|INTERRES
     7    4    5 1    
     8    4  130 1    
     9    5    6 1    
    10    5   65 1    
    11    5  131 1    
    12    6    7 1    
    13    6  132 1    
    14    6  133 1    
    15    7    8 1    
    16    8    9 1    
    17    8  134 1    
    18    8  135 1    
    19    9   10 ar   
    20    9   14 ar   
    21   10   11 ar   
    22   10  136 1    
    23   11   12 ar   
    24   11  126 1    
    25   12   13 ar   
    26   12  137 1    
    27   13   14 ar   
    28   13   15 1    
    29   14  138 1    
    30   15   16 1    
    31   15  139 1    
    32   15  140 1    
    33   16   17 1    
    34   17   18 1    
    35   17  141 1    
    36   17  142 1    
    37   18   19 1    
    38   18   67 1    
    39   18  143 1    
    40   19   20 am   BACKBONE|DICT|INTERRES
    41   19  144 1    
    42   20   21 2    
    43   20   22 1    
    44   22   23 1    
    45   22   24 1    
    46   22  145 1    
    47   23  146 1    
    48   23  147 1    
    49   23  148 1    
    50   24   25 am   BACKBONE|DICT|INTERRES
    51   24  149 1    
    52   25   26 2    
    53   25   27 1    
    54   27   28 1    
    55   27   29 1    
    56   27  150 1    
    57   28  151 1    
    58   28  152 1    
    59   28  153 1    
    60   29   30 am   BACKBONE|DICT|INTERRES
    61   29  154 1    
    62   30   31 2    
    63   30   32 1    
    64   32   33 1    
    65   32   34 1    
    66   32  155 1    
    67   33  156 1    
    68   33  157 1    
    69   33  158 1    
    70   34   35 am   BACKBONE|DICT|INTERRES
    71   34  159 1    
    72   35   36 2    
    73   35   37 1    
    74   37   38 1    
    75   37   39 1    
    76   37  160 1    
    77   38  161 1    
    78   38  162 1    
    79   38  163 1    
    80   39   40 am   BACKBONE|DICT|INTERRES
    81   39  164 1    
    82   40   41 2    
    83   40   42 1    
    84   42   43 1    
    85   42   44 1    
    86   42  165 1    
    87   43  166 1    
    88   43  167 1    
    89   43  168 1    
    90   44   45 am   BACKBONE|DICT|INTERRES
    91   44  169 1    
    92   45   46 2    
    93   45   47 1    
    94   47   48 1    
    95   47   49 1    
    96   47  170 1    
    97   48  171 1    
    98   48  172 1    
    99   48  173 1    
   100   49   50 am   BACKBONE|DICT|INTERRES
   101   49  174 1    
   102   50   51 2    
   103   50   52 1    
   104   52   53 1    
   105   52   54 1    
   106   52  175 1    
   107   53  176 1    
   108   53  177 1    
   109   53  178 1    
   110   54   55 am   BACKBONE|DICT|INTERRES
   111   54  179 1    
   112   55   56 2    
   113   55   57 1    
   114   57   58 1    
   115   57   59 1    
   116   57  180 1    
   117   58  181 1    
   118   58  182 1    
   119   58  183 1    
   120   59   60 am   BACKBONE|DICT|INTERRES
   121   59  184 1    
   122   60   61 2    
   123   60   62 1    
   124   62   63 1    
   125   62   64 1    
   126   62  185 1    
   127   63  186 1    
   128   63  187 1    
   129   63  188 1    
   130   64   65 am   BACKBONE|DICT|INTERRES
   131   64  189 1    
   132   65   66 2    
   133   67   68 2    
   134   67   69 am   BACKBONE|DICT|INTERRES
   135   69   70 1    
   136   69  190 1    
   137   70   71 1    
   138   70   72 1    
   139   70  191 1    
   140   71  192 1    
   141   71  193 1    
   142   71  194 1    
   143   72   73 2    
   144   72   74 am   BACKBONE|DICT|INTERRES
   145   74   75 1    
   146   74  195 1    
   147   75   76 1    
   148   75   77 1    
   149   75  196 1    
   150   76  197 1    
   151   76  198 1    
   152   76  199 1    
   153   77   78 2    
   154   77   79 am   BACKBONE|DICT|INTERRES
   155   79   80 1    
   156   79  200 1    
   157   80   81 1    
   158   80   82 1    
   159   80  201 1    
   160   81  202 1    
   161   81  203 1    
   162   81  204 1    
   163   82   83 2    
   164   82   84 am   BACKBONE|DICT|INTERRES
   165   84   85 1    
   166   84  205 1    
   167   85   86 1    
   168   85   87 1    
   169   85  206 1    
   170   86  207 1    
   171   86  208 1    
   172   86  209 1    
   173   87   88 2    
   174   87   89 am   BACKBONE|DICT|INTERRES
   175   89   90 1    
   176   89  210 1    
   177   90   91 1    
   178   90   92 1    
   179   90  211 1    
   180   91  212 1    
   181   91  213 1    
   182   91  214 1    
   183   92   93 2    
   184   92   94 am   BACKBONE|DICT|INTERRES
   185   94   95 1    
   186   94  215 1    
   187   95   96 1    
   188   95   97 1    
   189   95  216 1    
   190   96  217 1    
   191   96  218 1    
   192   96  219 1    
   193   97   98 2    
   194   97   99 am   BACKBONE|DICT|INTERRES
   195   99  100 1    
   196   99  220 1    
   197  100  101 1    
   198  100  102 1    
   199  100  221 1    
   200  101  222 1    
   201  101  223 1    
   202  101  224 1    
   203  102  103 2    
   204  102  104 am   BACKBONE|DICT|INTERRES
   205  104  105 1    
   206  104  225 1    
   207  105  106 1    
   208  105  107 1    
   209  105  226 1    
   210  106  227 1    
   211  106  228 1    
   212  106  229 1    
   213  107  108 2    
   214  107  109 am   BACKBONE|DICT|INTERRES
   215  109  110 1    
   216  109  230 1    
   217  110  111 1    
   218  110  112 1    
   219  110  231 1    
   220  111  232 1    
   221  111  233 1    
   222  111  234 1    
   223  112  113 2    
   224  112  114 am   BACKBONE|DICT|INTERRES
   225  114  115 1    
   226  114  235 1    
   227  115  116 1    
   228  115  117 1    
   229  115  236 1    
   230  116  237 1    
   231  116  238 1    
   232  116  239 1    
   233  117  118 2    
   234  117  119 am   BACKBONE|DICT|INTERRES
   235  119  120 1    
   236  119  240 1    
   237  120  121 1    
   238  120  124 1    
   239  120  241 1    
   240  121  122 am   BACKBONE|DICT|INTERRES
   241  121  123 2    
   242  122  242 1    
   243  122  243 1    
   244  124  125 1    
   245  124  244 1    
   246  124  245 1    
   247  125  126 1    
   248  126  246 1    
   249  126  247 1    
@<TRIPOS>SUBSTRUCTURE
     1 UNK         1 GROUP             0       ****    0 ROOT    
