@<TRIPOS>MOLECULE
3R540
247   249    1
SMALL
USER_CHARGES


@<TRIPOS>ATOM
      1 CA          2.2242  -16.8586  -49.0840 C.3       0 UNK        -0.1800 
      2 C           1.0337  -16.3850  -48.2678 C.2       0 UNK         0.5000 
      3 O           1.1999  -15.9838  -47.1167 O.2       0 UNK        -0.5000 
      4 N          -0.1651  -16.4007  -48.8682 N.am      1 UNK        -0.5000 
      5 CA         -1.4366  -15.9871  -48.2520 C.3       1 UNK         0.1400 
      6 C6         -2.6536  -16.2431  -49.1765 C.3       23 UNK        -0.0398 
      7 S7         -2.5818  -15.3628  -50.7762 S.3       23 UNK        -0.2404 
      8 C8         -2.4674  -16.7378  -51.9608 C.3       23 UNK        -0.0205 
      9 C9         -1.0995  -17.4025  -51.9508 C.ar      23 UNK        -0.0193 
     10 C10        -0.0026  -16.7488  -52.5204 C.ar      23 UNK        -0.1150 
     11 C11         1.2493  -17.3686  -52.5651 C.ar      23 UNK        -0.0193 
     12 C12         1.3959  -18.6547  -52.0384 C.ar      23 UNK        -0.1150 
     13 C13         0.3115  -19.3149  -51.4531 C.ar      23 UNK        -0.0193 
     14 C14        -0.9348  -18.6808  -51.4073 C.ar      23 UNK        -0.1150 
     15 C15         0.4742  -20.7364  -50.9359 C.3       23 UNK        -0.0205 
     16 S16         1.6468  -20.8578  -49.5464 S.3       23 UNK        -0.2404 
     17 C17         1.6341  -22.6692  -49.2705 C.3       23 UNK        -0.0398 
     18 CA          0.8535  -23.1403  -48.0171 C.3       11 UNK         0.1400 
     19 N           1.4084  -22.6024  -46.7720 N.am      11 UNK        -0.5000 
     20 C           1.0721  -23.0372  -45.5493 C.2       10 UNK         0.5000 
     21 O           0.2773  -23.9540  -45.3442 O.2       10 UNK        -0.5000 
     22 CA          1.6894  -22.2953  -44.3540 C.3       10 UNK         0.1400 
     23 CB          3.0776  -22.8569  -44.0153 C.3       10 UNK        -0.1800 
     24 N           1.7888  -20.8493  -44.5502 N.am      10 UNK        -0.5000 
     25 C           0.7541  -20.0166  -44.7189 C.2       9 UNK         0.5000 
     26 O          -0.4084  -20.4033  -44.8509 O.2       9 UNK        -0.5000 
     27 CA          1.0772  -18.5068  -44.7153 C.3       9 UNK         0.1400 
     28 CB         -0.1935  -17.6400  -44.6314 C.3       9 UNK        -0.1800 
     29 N           1.9540  -18.1453  -43.6014 N.am      9 UNK        -0.5000 
     30 C           3.2829  -18.3004  -43.5475 C.2       8 UNK         0.5000 
     31 O           3.9489  -18.7783  -44.4661 O.2       8 UNK        -0.5000 
     32 CA          3.9661  -17.9238  -42.2237 C.3       8 UNK         0.1400 
     33 CB          4.0505  -16.3994  -42.0598 C.3       8 UNK        -0.1800 
     34 N           3.2293  -18.4845  -41.0932 N.am      8 UNK        -0.5000 
     35 C           3.5724  -19.5942  -40.4259 C.2       7 UNK         0.5000 
     36 O           4.5881  -20.2499  -40.6608 O.2       7 UNK        -0.5000 
     37 CA          2.6217  -20.0541  -39.3014 C.3       7 UNK         0.1400 
     38 CB          3.0691  -19.4751  -37.9505 C.3       7 UNK        -0.1800 
     39 N           1.2275  -19.6781  -39.5412 N.am      7 UNK        -0.5000 
     40 C           0.4534  -20.2091  -40.4972 C.2       6 UNK         0.5000 
     41 O           0.8048  -21.1469  -41.2110 O.2       6 UNK        -0.5000 
     42 CA         -0.9402  -19.5832  -40.7076 C.3       6 UNK         0.1400 
     43 CB         -2.0216  -20.4598  -40.0573 C.3       6 UNK        -0.1800 
     44 N          -1.0923  -18.2058  -40.2197 N.am      6 UNK        -0.5000 
     45 C          -0.3834  -17.1479  -40.6342 C.2       5 UNK         0.5000 
     46 O           0.5840  -17.2246  -41.3923 O.2       5 UNK        -0.5000 
     47 CA         -0.8028  -15.7711  -40.0996 C.3       5 UNK         0.1400 
     48 CB          0.2882  -15.1923  -39.1859 C.3       5 UNK        -0.1800 
     49 N          -1.0403  -14.8471  -41.2056 N.am      5 UNK        -0.5000 
     50 C          -2.0643  -14.9150  -42.0631 C.2       4 UNK         0.5000 
     51 O          -2.9662  -15.7494  -41.9768 O.2       4 UNK        -0.5000 
     52 CA         -2.1078  -13.8779  -43.2026 C.3       4 UNK         0.1400 
     53 CB         -2.6131  -12.5147  -42.6937 C.3       4 UNK        -0.1800 
     54 N          -0.8652  -13.7281  -43.9709 N.am      4 UNK        -0.5000 
     55 C           0.3334  -13.2640  -43.5814 C.2       3 UNK         0.5000 
     56 O           0.6019  -12.9376  -42.4245 O.2       3 UNK        -0.5000 
     57 CA          1.4208  -13.1239  -44.6677 C.3       3 UNK         0.1400 
     58 CB          2.4660  -14.2407  -44.5414 C.3       3 UNK        -0.1800 
     59 N           0.8780  -13.1193  -46.0281 N.am      3 UNK        -0.5000 
     60 C           0.2238  -12.0798  -46.5707 C.2       2 UNK         0.5000 
     61 O           0.0865  -10.9957  -46.0025 O.2       2 UNK        -0.5000 
     62 CA         -0.4010  -12.2723  -47.9682 C.3       2 UNK         0.1400 
     63 CB          0.4723  -11.6081  -49.0436 C.3       2 UNK        -0.1800 
     64 N          -0.6219  -13.6690  -48.3428 N.am      2 UNK        -0.5000 
     65 C          -1.4310  -14.5362  -47.7177 C.2       1 UNK         0.5000 
     66 O          -2.1135  -14.2474  -46.7340 O.2       1 UNK        -0.5000 
     67 C          -0.6586  -22.8628  -48.1353 C.2       11 UNK         0.5000 
     68 O          -1.4198  -23.7538  -48.5093 O.2       11 UNK        -0.5000 
     69 N          -1.0634  -21.6381  -47.7751 N.am      12 UNK        -0.5000 
     70 CA         -2.4462  -21.1780  -47.7953 C.3       12 UNK         0.1400 
     71 CB         -2.4671  -19.6531  -47.6304 C.3       12 UNK        -0.1800 
     72 C          -3.2940  -21.8653  -46.7149 C.2       12 UNK         0.5000 
     73 O          -4.4407  -22.2201  -46.9846 O.2       12 UNK        -0.5000 
     74 N          -2.7065  -22.0720  -45.5298 N.am      13 UNK        -0.5000 
     75 CA         -3.3132  -22.8128  -44.4270 C.3       13 UNK         0.1400 
     76 CB         -2.4498  -22.6445  -43.1677 C.3       13 UNK        -0.1800 
     77 C          -3.5213  -24.3020  -44.7624 C.2       13 UNK         0.5000 
     78 O          -4.5853  -24.8461  -44.4653 O.2       13 UNK        -0.5000 
     79 N          -2.5123  -24.9276  -45.3843 N.am      14 UNK        -0.5000 
     80 CA         -2.5261  -26.3395  -45.7626 C.3       14 UNK         0.1400 
     81 CB         -1.0936  -26.8003  -46.0743 C.3       14 UNK        -0.1800 
     82 C          -3.4576  -26.6449  -46.9486 C.2       14 UNK         0.5000 
     83 O          -4.2297  -27.6018  -46.8779 O.2       14 UNK        -0.5000 
     84 N          -3.3566  -25.8480  -48.0206 N.am      15 UNK        -0.5000 
     85 CA         -4.0051  -26.1113  -49.3082 C.3       15 UNK         0.1400 
     86 CB         -2.9762  -25.8991  -50.4319 C.3       15 UNK        -0.1800 
     87 C          -5.2787  -25.2752  -49.5384 C.2       15 UNK         0.5000 
     88 O          -5.7283  -25.1841  -50.6812 O.2       15 UNK        -0.5000 
     89 N          -5.8368  -24.6777  -48.4738 N.am      16 UNK        -0.5000 
     90 CA         -7.0817  -23.8948  -48.4468 C.3       16 UNK         0.1400 
     91 CB         -8.3001  -24.8146  -48.6686 C.3       16 UNK        -0.1800 
     92 C          -7.0434  -22.7030  -49.4263 C.2       16 UNK         0.5000 
     93 O          -7.7967  -22.6601  -50.4002 O.2       16 UNK        -0.5000 
     94 N          -6.0963  -21.7937  -49.1665 N.am      17 UNK        -0.5000 
     95 CA         -5.6993  -20.6239  -49.9610 C.3       17 UNK         0.1400 
     96 CB         -6.8898  -19.6915  -50.2630 C.3       17 UNK        -0.1800 
     97 C          -4.8983  -20.9681  -51.2325 C.2       17 UNK         0.5000 
     98 O          -4.4959  -20.0489  -51.9455 O.2       17 UNK        -0.5000 
     99 N          -4.6629  -22.2647  -51.4919 N.am      18 UNK        -0.5000 
    100 CA        -3.8644  -22.8246  -52.5900 C.3       18 UNK         0.1400 
    101 CB        -2.3733  -22.4972  -52.3730 C.3       18 UNK        -0.1800 
    102 C         -4.3679  -22.4082  -53.9887 C.2       18 UNK         0.5000 
    103 O         -3.5649  -22.2011  -54.8998 O.2       18 UNK        -0.5000 
    104 N         -5.6939  -22.2392  -54.1165 N.am      19 UNK        -0.5000 
    105 CA        -6.4065  -21.7096  -55.2882 C.3       19 UNK         0.1400 
    106 CB        -6.3416  -22.7095  -56.4615 C.3       19 UNK        -0.1800 
    107 C         -5.9476  -20.2863  -55.6863 C.2       19 UNK         0.5000 
    108 O         -5.9828  -19.9343  -56.8659 O.2       19 UNK        -0.5000 
    109 N         -5.5011  -19.5103  -54.6861 N.am      20 UNK        -0.5000 
    110 CA        -4.9131  -18.1694  -54.7584 C.3       20 UNK         0.1400 
    111 CB        -5.8644  -17.1611  -55.4354 C.3       20 UNK        -0.1800 
    112 C         -3.4870  -18.1256  -55.3493 C.2       20 UNK         0.5000 
    113 O         -2.9642  -17.0231  -55.5100 O.2       20 UNK        -0.5000 
    114 N         -2.8874  -19.2995  -55.6165 N.am      21 UNK        -0.5000 
    115 CA        -1.5275  -19.5965  -56.0905 C.3       21 UNK         0.1400 
    116 CB        -0.6689  -20.0801  -54.9090 C.3       21 UNK        -0.1800 
    117 C         -0.8270  -18.4928  -56.9096 C.2       21 UNK         0.5000 
    118 O         -0.9289  -18.4888  -58.1374 O.2       21 UNK        -0.5000 
    119 N         -0.1198  -17.5962  -56.2098 N.am      22 UNK        -0.5000 
    120 CA         0.6344  -16.4659  -56.7718 C.3       22 UNK         0.1400 
    121 C         -0.2277  -15.3623  -57.4548 C.2       22 UNK         0.5000 
    122 N         -1.5328  -15.2928  -57.2262 N.am      22 UNK        -0.7600 
    123 O          0.3028  -14.5518  -58.2099 O.2       22 UNK        -0.5000 
    124 C124        1.5744  -15.8248  -55.7185 C.3       23 UNK        -0.0398 
    125 S125        2.7018  -17.0191  -54.9164 S.3       23 UNK        -0.2404 
    126 C126        2.4547  -16.6467  -53.1501 C.3       23 UNK        -0.0205 
    127 H127        2.1547  -17.9293  -49.2695 H         1 UNK         0.0600 
    128 H128        3.1566  -16.6654  -48.5533 H         1 UNK         0.0600 
    129 H129        2.2653  -16.3386  -50.0405 H         1 UNK         0.0600 
    130 H130       -0.2318  -16.7235  -49.8245 H         1 UNK         0.3000 
    131 H131       -1.5679  -16.6236  -47.3759 H         1 UNK         0.0600 
    132 H132       -2.7534  -17.3105  -49.3661 H         1 UNK         0.0800 
    133 H133       -3.5787  -15.9575  -48.6724 H         1 UNK         0.0800 
    134 H134       -2.6592  -16.3414  -52.9578 H         1 UNK         0.0800 
    135 H135       -3.2582  -17.4636  -51.7639 H         1 UNK         0.0800 
    136 H136       -0.1294  -15.7558  -52.9278 H         1 UNK         0.1150 
    137 H137        2.3586  -19.1447  -52.0803 H         1 UNK         0.1150 
    138 H138       -1.7854  -19.1952  -50.9819 H         1 UNK         0.1150 
    139 H139       -0.4888  -21.1318  -50.6142 H         1 UNK         0.0800 
    140 H140        0.8133  -21.3691  -51.7574 H         1 UNK         0.0800 
    141 H141        1.2527  -23.1750  -50.1593 H         1 UNK         0.0800 
    142 H142        2.6723  -22.9924  -49.1847 H         1 UNK         0.0800 
    143 H143        0.9633  -24.2260  -47.9665 H         1 UNK         0.0600 
    144 H144        2.0554  -21.8320  -46.8574 H         1 UNK         0.3000 
    145 H145        1.0360  -22.4676  -43.4971 H         1 UNK         0.0600 
    146 H146        3.4728  -22.4019  -43.1064 H         1 UNK         0.0600 
    147 H147        3.7925  -22.6781  -44.8193 H         1 UNK         0.0600 
    148 H148        3.0329  -23.9335  -43.8461 H         1 UNK         0.0600 
    149 H149        2.7108  -20.4367  -44.4706 H         1 UNK         0.3000 
    150 H150        1.5850  -18.2784  -45.6540 H         1 UNK         0.0600 
    151 H151       -0.8326  -17.8021  -45.4971 H         1 UNK         0.0600 
    152 H152        0.0483  -16.5782  -44.6067 H         1 UNK         0.0600 
    153 H153       -0.7815  -17.8679  -43.7418 H         1 UNK         0.0600 
    154 H154        1.4778  -17.7746  -42.7803 H         1 UNK         0.3000 
    155 H155        4.9853  -18.3153  -42.2480 H         1 UNK         0.0600 
    156 H156        4.5680  -15.9442  -42.9051 H         1 UNK         0.0600 
    157 H157        4.6030  -16.1330  -41.1587 H         1 UNK         0.0600 
    158 H158        3.0612  -15.9458  -41.9882 H         1 UNK         0.0600 
    159 H159        2.3434  -18.0416  -40.8765 H         1 UNK         0.3000 
    160 H160        2.6786  -21.1432  -39.2432 H         1 UNK         0.0600 
    161 H161        3.0173  -18.3855  -37.9422 H         1 UNK         0.0600 
    162 H162        4.0991  -19.7566  -37.7272 H         1 UNK         0.0600 
    163 H163        2.4478  -19.8479  -37.1360 H         1 UNK         0.0600 
    164 H164        0.8552  -18.9208  -38.9881 H         1 UNK         0.3000 
    165 H165       -1.1168  -19.5677  -41.7853 H         1 UNK         0.0600 
    166 H166       -3.0213  -20.1154  -40.3228 H         1 UNK         0.0600 
    167 H167       -1.9396  -21.4965  -40.3864 H         1 UNK         0.0600 
    168 H168       -1.9405  -20.4559  -38.9697 H         1 UNK         0.0600 
    169 H169       -1.8621  -18.0485  -39.5851 H         1 UNK         0.3000 
    170 H170       -1.7249  -15.8688  -39.5230 H         1 UNK         0.0600 
    171 H171        1.2282  -15.0492  -39.7213 H         1 UNK         0.0600 
    172 H172       -0.0125  -14.2277  -38.7764 H         1 UNK         0.0600 
    173 H173        0.4867  -15.8560  -38.3435 H         1 UNK         0.0600 
    174 H174       -0.3220  -14.1520  -41.3935 H         1 UNK         0.3000 
    175 H175       -2.8428  -14.2437  -43.9214 H         1 UNK         0.0600 
    176 H176       -1.9325  -12.0717  -41.9662 H         1 UNK         0.0600 
    177 H177       -2.7313  -11.8082  -43.5154 H         1 UNK         0.0600 
    178 H178       -3.5852  -12.6164  -42.2097 H         1 UNK         0.0600 
    179 H179       -0.9654  -13.9635  -44.9516 H         1 UNK         0.3000 
    180 H180        1.9293  -12.1722  -44.4995 H         1 UNK         0.0600 
    181 H181        2.9814  -14.1688  -43.5842 H         1 UNK         0.0600 
    182 H182        3.2228  -14.1683  -45.3225 H         1 UNK         0.0600 
    183 H183        2.0153  -15.2313  -44.6022 H         1 UNK         0.0600 
    184 H184        0.9508  -13.9889  -46.5466 H         1 UNK         0.3000 
    185 H185       -1.3732  -11.7754  -47.9594 H         1 UNK         0.0600 
    186 H186        1.4517  -12.0830  -49.1148 H         1 UNK         0.0600 
    187 H187       -0.0000  -11.6616  -50.0247 H         1 UNK         0.0600 
    188 H188        0.6344  -10.5528  -48.8201 H         1 UNK         0.0600 
    189 H189       -0.0971  -14.0097  -49.1349 H         1 UNK         0.3000 
    190 H190       -0.3726  -20.9861  -47.4344 H         1 UNK         0.3000 
    191 H191       -2.8685  -21.4274  -48.7709 H         1 UNK         0.0600 
    192 H192       -1.8230  -19.1744  -48.3673 H         1 UNK         0.0600 
    193 H193       -2.1219  -19.3531  -46.6420 H         1 UNK         0.0600 
    194 H194       -3.4735  -19.2540  -47.7543 H         1 UNK         0.0600 
    195 H195       -1.7808  -21.6845  -45.3694 H         1 UNK         0.3000 
    196 H196       -4.2933  -22.3746  -44.2276 H         1 UNK         0.0600 
    197 H197       -2.3423  -21.5920  -42.9058 H         1 UNK         0.0600 
    198 H198       -1.4493  -23.0556  -43.3046 H         1 UNK         0.0600 
    199 H199       -2.9004  -23.1507  -42.3134 H         1 UNK         0.0600 
    200 H200       -1.6472  -24.4225  -45.5507 H         1 UNK         0.3000 
    201 H201       -2.8814  -26.9161  -44.9058 H         1 UNK         0.0600 
    202 H202       -0.4464  -26.6870  -45.2044 H         1 UNK         0.0600 
    203 H203       -0.6552  -26.2281  -46.8930 H         1 UNK         0.0600 
    204 H204       -1.0729  -27.8529  -46.3594 H         1 UNK         0.0600 
    205 H205       -2.6955  -25.0745  -48.0082 H         1 UNK         0.3000 
    206 H206       -4.3163  -27.1566  -49.3571 H         1 UNK         0.0600 
    207 H207       -2.0733  -26.4841  -50.2567 H         1 UNK         0.0600 
    208 H208       -2.6857  -24.8535  -50.5135 H         1 UNK         0.0600 
    209 H209       -3.3763  -26.2059  -51.3988 H         1 UNK         0.0600 
    210 H210       -5.3563  -24.7664  -47.5890 H         1 UNK         0.3000 
    211 H211       -7.1651  -23.4744  -47.4433 H         1 UNK         0.0600 
    212 H212       -8.2890  -25.2757  -49.6568 H         1 UNK         0.0600 
    213 H213       -9.2316  -24.2545  -48.5800 H         1 UNK         0.0600 
    214 H214       -8.3295  -25.6133  -47.9275 H         1 UNK         0.0600 
    215 H215       -5.5224  -21.9611  -48.3391 H         1 UNK         0.3000 
    216 H216       -5.0131  -20.0638  -49.3272 H         1 UNK         0.0600 
    217 H217       -6.5449  -18.7453  -50.6820 H         1 UNK         0.0600 
    218 H218       -7.4495  -19.4587  -49.3572 H         1 UNK         0.0600 
    219 H219       -7.5804  -20.1283  -50.9844 H         1 UNK         0.0600 
    220 H220       -5.0940  -22.9485  -50.8839 H         1 UNK         0.3000 
    221 H221       -3.9805  -23.9076  -52.5382 H         1 UNK         0.0600 
    222 H222       -2.1801  -21.4293  -52.4769 H         1 UNK         0.0600 
    223 H223       -2.0423  -22.7988  -51.3800 H         1 UNK         0.0600 
    224 H224       -1.7456  -23.0190  -53.0960 H         1 UNK         0.0600 
    225 H225       -6.2666  -22.4281  -53.3049 H         1 UNK         0.3000 
    226 H226       -7.4523  -21.6161  -54.9926 H         1 UNK         0.0600 
    227 H227       -6.6741  -23.7008  -56.1534 H         1 UNK         0.0600 
    228 H228       -6.9869  -22.3934  -57.2818 H         1 UNK         0.0600 
    229 H229       -5.3307  -22.8034  -56.8592 H         1 UNK         0.0600 
    230 H230       -5.4510  -19.9222  -53.7602 H         1 UNK         0.3000 
    231 H231       -4.8047  -17.8537  -53.7203 H         1 UNK         0.0600 
    232 H232       -5.5058  -16.1396  -55.3039 H         1 UNK         0.0600 
    233 H233       -6.8644  -17.2096  -55.0046 H         1 UNK         0.0600 
    234 H234       -5.9490  -17.3365  -56.5079 H         1 UNK         0.0600 
    235 H235       -3.4344  -20.1320  -55.4311 H         1 UNK         0.3000 
    236 H236       -1.6335  -20.4442  -56.7692 H         1 UNK         0.0600 
    237 H237       -0.6802  -19.3618  -54.0929 H         1 UNK         0.0600 
    238 H238       -1.0362  -21.0296  -54.5237 H         1 UNK         0.0600 
    239 H239        0.3701  -20.2353  -55.2029 H         1 UNK         0.0600 
    240 H240       -0.1062  -17.6758  -55.2037 H         1 UNK         0.3000 
    241 H241        1.2652  -16.8793  -57.5609 H         1 UNK         0.0600 
    242 H242       -2.0796  -14.5765  -57.6757 H         1 UNK         0.3800 
    243 H243       -1.9883  -15.9551  -56.5989 H         1 UNK         0.3800 
    244 H244        0.9853  -15.3082  -54.9603 H         1 UNK         0.0800 
    245 H245        2.1960  -15.0586  -56.1853 H         1 UNK         0.0800 
    246 H246        2.3665  -15.5694  -53.0018 H         1 UNK         0.0800 
    247 H247        3.3518  -16.9472  -52.6066 H         1 UNK         0.0800 
@<TRIPOS>BOND
     1    1    2 1    
     2    1  127 1    
     3    1  128 1    
     4    1  129 1    
     5    2    3 2    
     6    2    4 am   BACKBONE|DICT|INTERRES
     7    4    5 1    
     8    4  130 1    
     9    5    6 1    
    10    5   65 1    
    11    5  131 1    
    12    6    7 1    
    13    6  132 1    
    14    6  133 1    
    15    7    8 1    
    16    8    9 1    
    17    8  134 1    
    18    8  135 1    
    19    9   10 ar   
    20    9   14 ar   
    21   10   11 ar   
    22   10  136 1    
    23   11   12 ar   
    24   11  126 1    
    25   12   13 ar   
    26   12  137 1    
    27   13   14 ar   
    28   13   15 1    
    29   14  138 1    
    30   15   16 1    
    31   15  139 1    
    32   15  140 1    
    33   16   17 1    
    34   17   18 1    
    35   17  141 1    
    36   17  142 1    
    37   18   19 1    
    38   18   67 1    
    39   18  143 1    
    40   19   20 am   BACKBONE|DICT|INTERRES
    41   19  144 1    
    42   20   21 2    
    43   20   22 1    
    44   22   23 1    
    45   22   24 1    
    46   22  145 1    
    47   23  146 1    
    48   23  147 1    
    49   23  148 1    
    50   24   25 am   BACKBONE|DICT|INTERRES
    51   24  149 1    
    52   25   26 2    
    53   25   27 1    
    54   27   28 1    
    55   27   29 1    
    56   27  150 1    
    57   28  151 1    
    58   28  152 1    
    59   28  153 1    
    60   29   30 am   BACKBONE|DICT|INTERRES
    61   29  154 1    
    62   30   31 2    
    63   30   32 1    
    64   32   33 1    
    65   32   34 1    
    66   32  155 1    
    67   33  156 1    
    68   33  157 1    
    69   33  158 1    
    70   34   35 am   BACKBONE|DICT|INTERRES
    71   34  159 1    
    72   35   36 2    
    73   35   37 1    
    74   37   38 1    
    75   37   39 1    
    76   37  160 1    
    77   38  161 1    
    78   38  162 1    
    79   38  163 1    
    80   39   40 am   BACKBONE|DICT|INTERRES
    81   39  164 1    
    82   40   41 2    
    83   40   42 1    
    84   42   43 1    
    85   42   44 1    
    86   42  165 1    
    87   43  166 1    
    88   43  167 1    
    89   43  168 1    
    90   44   45 am   BACKBONE|DICT|INTERRES
    91   44  169 1    
    92   45   46 2    
    93   45   47 1    
    94   47   48 1    
    95   47   49 1    
    96   47  170 1    
    97   48  171 1    
    98   48  172 1    
    99   48  173 1    
   100   49   50 am   BACKBONE|DICT|INTERRES
   101   49  174 1    
   102   50   51 2    
   103   50   52 1    
   104   52   53 1    
   105   52   54 1    
   106   52  175 1    
   107   53  176 1    
   108   53  177 1    
   109   53  178 1    
   110   54   55 am   BACKBONE|DICT|INTERRES
   111   54  179 1    
   112   55   56 2    
   113   55   57 1    
   114   57   58 1    
   115   57   59 1    
   116   57  180 1    
   117   58  181 1    
   118   58  182 1    
   119   58  183 1    
   120   59   60 am   BACKBONE|DICT|INTERRES
   121   59  184 1    
   122   60   61 2    
   123   60   62 1    
   124   62   63 1    
   125   62   64 1    
   126   62  185 1    
   127   63  186 1    
   128   63  187 1    
   129   63  188 1    
   130   64   65 am   BACKBONE|DICT|INTERRES
   131   64  189 1    
   132   65   66 2    
   133   67   68 2    
   134   67   69 am   BACKBONE|DICT|INTERRES
   135   69   70 1    
   136   69  190 1    
   137   70   71 1    
   138   70   72 1    
   139   70  191 1    
   140   71  192 1    
   141   71  193 1    
   142   71  194 1    
   143   72   73 2    
   144   72   74 am   BACKBONE|DICT|INTERRES
   145   74   75 1    
   146   74  195 1    
   147   75   76 1    
   148   75   77 1    
   149   75  196 1    
   150   76  197 1    
   151   76  198 1    
   152   76  199 1    
   153   77   78 2    
   154   77   79 am   BACKBONE|DICT|INTERRES
   155   79   80 1    
   156   79  200 1    
   157   80   81 1    
   158   80   82 1    
   159   80  201 1    
   160   81  202 1    
   161   81  203 1    
   162   81  204 1    
   163   82   83 2    
   164   82   84 am   BACKBONE|DICT|INTERRES
   165   84   85 1    
   166   84  205 1    
   167   85   86 1    
   168   85   87 1    
   169   85  206 1    
   170   86  207 1    
   171   86  208 1    
   172   86  209 1    
   173   87   88 2    
   174   87   89 am   BACKBONE|DICT|INTERRES
   175   89   90 1    
   176   89  210 1    
   177   90   91 1    
   178   90   92 1    
   179   90  211 1    
   180   91  212 1    
   181   91  213 1    
   182   91  214 1    
   183   92   93 2    
   184   92   94 am   BACKBONE|DICT|INTERRES
   185   94   95 1    
   186   94  215 1    
   187   95   96 1    
   188   95   97 1    
   189   95  216 1    
   190   96  217 1    
   191   96  218 1    
   192   96  219 1    
   193   97   98 2    
   194   97   99 am   BACKBONE|DICT|INTERRES
   195   99  100 1    
   196   99  220 1    
   197  100  101 1    
   198  100  102 1    
   199  100  221 1    
   200  101  222 1    
   201  101  223 1    
   202  101  224 1    
   203  102  103 2    
   204  102  104 am   BACKBONE|DICT|INTERRES
   205  104  105 1    
   206  104  225 1    
   207  105  106 1    
   208  105  107 1    
   209  105  226 1    
   210  106  227 1    
   211  106  228 1    
   212  106  229 1    
   213  107  108 2    
   214  107  109 am   BACKBONE|DICT|INTERRES
   215  109  110 1    
   216  109  230 1    
   217  110  111 1    
   218  110  112 1    
   219  110  231 1    
   220  111  232 1    
   221  111  233 1    
   222  111  234 1    
   223  112  113 2    
   224  112  114 am   BACKBONE|DICT|INTERRES
   225  114  115 1    
   226  114  235 1    
   227  115  116 1    
   228  115  117 1    
   229  115  236 1    
   230  116  237 1    
   231  116  238 1    
   232  116  239 1    
   233  117  118 2    
   234  117  119 am   BACKBONE|DICT|INTERRES
   235  119  120 1    
   236  119  240 1    
   237  120  121 1    
   238  120  124 1    
   239  120  241 1    
   240  121  122 am   BACKBONE|DICT|INTERRES
   241  121  123 2    
   242  122  242 1    
   243  122  243 1    
   244  124  125 1    
   245  124  244 1    
   246  124  245 1    
   247  125  126 1    
   248  126  246 1    
   249  126  247 1    
@<TRIPOS>SUBSTRUCTURE
     1 UNK         1 GROUP             0       ****    0 ROOT    
