@<TRIPOS>MOLECULE
3R540
247   249    1
SMALL
USER_CHARGES


@<TRIPOS>ATOM
      1 CA          0.2159  -22.8395  -41.6965 C.3       0 UNK        -0.1800 
      2 C           0.7928  -21.4356  -41.7932 C.2       0 UNK         0.5000 
      3 O           0.3514  -20.5434  -41.0689 O.2       0 UNK        -0.5000 
      4 N           1.7873  -21.2420  -42.6705 N.am      1 UNK        -0.5000 
      5 CA          2.4279  -19.9585  -43.0015 C.3       1 UNK         0.1400 
      6 C6          3.4929  -20.1281  -44.1152 C.3       23 UNK        -0.0398 
      7 S7          2.7396  -20.6065  -45.7021 S.3       23 UNK        -0.2404 
      8 C8          4.0729  -20.2102  -46.8827 C.3       23 UNK        -0.0205 
      9 C9          3.6916  -20.4206  -48.3486 C.ar      23 UNK        -0.0193 
     10 C10         2.8716  -21.4847  -48.7489 C.ar      23 UNK        -0.1150 
     11 C11         2.5814  -21.6909  -50.1000 C.ar      23 UNK        -0.0193 
     12 C12         3.1306  -20.8392  -51.0587 C.ar      23 UNK        -0.1150 
     13 C13         3.9412  -19.7672  -50.6804 C.ar      23 UNK        -0.0193 
     14 C14         4.2150  -19.5622  -49.3241 C.ar      23 UNK        -0.1150 
     15 C15         4.5388  -18.8551  -51.7452 C.3       23 UNK        -0.0205 
     16 S16         3.5813  -17.3225  -51.9920 S.3       23 UNK        -0.2404 
     17 C17         1.9415  -17.9613  -52.4789 C.3       23 UNK        -0.0398 
     18 CA          0.9496  -17.9103  -51.2867 C.3       11 UNK         0.1400 
     19 N           0.6037  -16.5479  -50.8642 N.am      11 UNK        -0.5000 
     20 C          -0.0918  -15.6349  -51.5578 C.2       10 UNK         0.5000 
     21 O          -0.4449  -15.7812  -52.7278 O.2       10 UNK        -0.5000 
     22 CA         -0.4924  -14.3444  -50.8140 C.3       10 UNK         0.1400 
     23 CB         -1.9634  -14.4264  -50.3775 C.3       10 UNK        -0.1800 
     24 N           0.3341  -14.0691  -49.6375 N.am      10 UNK        -0.5000 
     25 C           1.5981  -13.6263  -49.6840 C.2       9 UNK         0.5000 
     26 O           2.1813  -13.3273  -50.7265 O.2       9 UNK        -0.5000 
     27 CA          2.3439  -13.5276  -48.3401 C.3       9 UNK         0.1400 
     28 CB          2.0519  -12.1871  -47.6489 C.3       9 UNK        -0.1800 
     29 N           2.0156  -14.6256  -47.4295 N.am      9 UNK        -0.5000 
     30 C           2.3222  -15.9135  -47.6459 C.2       8 UNK         0.5000 
     31 O           2.9480  -16.3162  -48.6236 O.2       8 UNK        -0.5000 
     32 CA          1.8096  -16.9239  -46.6086 C.3       8 UNK         0.1400 
     33 CB          2.6845  -16.8682  -45.3486 C.3       8 UNK        -0.1800 
     34 N           0.4140  -16.6734  -46.2521 N.am      8 UNK        -0.5000 
     35 C          -0.6260  -16.7927  -47.0881 C.2       7 UNK         0.5000 
     36 O          -0.5357  -17.2521  -48.2250 O.2       7 UNK        -0.5000 
     37 CA         -1.9925  -16.2908  -46.5900 C.3       7 UNK         0.1400 
     38 CB         -2.8069  -17.4306  -45.9671 C.3       7 UNK        -0.1800 
     39 N          -1.8614  -15.1949  -45.6312 N.am      7 UNK        -0.5000 
     40 C          -1.5153  -13.9443  -45.9662 C.2       6 UNK         0.5000 
     41 O          -1.2938  -13.5848  -47.1227 O.2       6 UNK        -0.5000 
     42 CA         -1.3454  -12.9454  -44.8068 C.3       6 UNK         0.1400 
     43 CB         -2.7072  -12.3934  -44.3598 C.3       6 UNK        -0.1800 
     44 N          -0.6592  -13.5414  -43.6584 N.am      6 UNK        -0.5000 
     45 C           0.6294  -13.9101  -43.6656 C.2       5 UNK         0.5000 
     46 O           1.3782  -13.7314  -44.6262 O.2       5 UNK        -0.5000 
     47 CA          1.1591  -14.6353  -42.4115 C.3       5 UNK         0.1400 
     48 CB          1.7099  -13.6247  -41.3954 C.3       5 UNK        -0.1800 
     49 N           0.1706  -15.4930  -41.7498 N.am      5 UNK        -0.5000 
     50 C          -0.4465  -16.5380  -42.3155 C.2       4 UNK         0.5000 
     51 O          -0.2903  -16.8609  -43.4930 O.2       4 UNK        -0.5000 
     52 CA         -1.3828  -17.3534  -41.4063 C.3       4 UNK         0.1400 
     53 CB         -2.1734  -18.4260  -42.1769 C.3       4 UNK        -0.1800 
     54 N          -0.6251  -18.0084  -40.3446 N.am      4 UNK        -0.5000 
     55 C          -0.2877  -17.4520  -39.1750 C.2       3 UNK         0.5000 
     56 O          -0.5467  -16.2849  -38.8773 O.2       3 UNK        -0.5000 
     57 CA          0.4798  -18.3412  -38.1860 C.3       3 UNK         0.1400 
     58 CB         -0.4424  -19.4197  -37.5942 C.3       3 UNK        -0.1800 
     59 N           1.6109  -18.9873  -38.8482 N.am      3 UNK        -0.5000 
     60 C           2.8960  -18.6551  -38.6654 C.2       2 UNK         0.5000 
     61 O           3.2742  -17.7819  -37.8832 O.2       2 UNK        -0.5000 
     62 CA          3.9470  -19.4281  -39.4888 C.3       2 UNK         0.1400 
     63 CB          4.5319  -20.5834  -38.6619 C.3       2 UNK        -0.1800 
     64 N           3.4246  -19.9640  -40.7466 N.am      2 UNK        -0.5000 
     65 C           3.0457  -19.2189  -41.7943 C.2       1 UNK         0.5000 
     66 O           3.1564  -17.9933  -41.8315 O.2       1 UNK        -0.5000 
     67 C          -0.3298  -18.7457  -51.5023 C.2       11 UNK         0.5000 
     68 O          -0.5256  -19.3427  -52.5621 O.2       11 UNK        -0.5000 
     69 N          -1.1937  -18.7305  -50.4807 N.am      12 UNK        -0.5000 
     70 CA         -2.5309  -19.3177  -50.4795 C.3       12 UNK         0.1400 
     71 CB         -3.5281  -18.1498  -50.4159 C.3       12 UNK        -0.1800 
     72 C          -2.7728  -20.2739  -49.2958 C.2       12 UNK         0.5000 
     73 O          -3.8097  -20.9407  -49.2719 O.2       12 UNK        -0.5000 
     74 N          -1.8493  -20.2967  -48.3232 N.am      13 UNK        -0.5000 
     75 CA         -2.0033  -20.9240  -47.0078 C.3       13 UNK         0.1400 
     76 CB         -0.7499  -20.6478  -46.1689 C.3       13 UNK        -0.1800 
     77 C          -2.2992  -22.4315  -47.0311 C.2       13 UNK         0.5000 
     78 O          -3.2275  -22.8717  -46.3528 O.2       13 UNK        -0.5000 
     79 N          -1.5280  -23.1973  -47.8157 N.am      14 UNK        -0.5000 
     80 CA         -1.6451  -24.6601  -47.8839 C.3       14 UNK         0.1400 
     81 CB         -0.4104  -25.2489  -48.5787 C.3       14 UNK        -0.1800 
     82 C          -2.9363  -25.1400  -48.5736 C.2       14 UNK         0.5000 
     83 O          -3.3750  -26.2638  -48.3274 O.2       14 UNK        -0.5000 
     84 N          -3.5293  -24.2715  -49.4008 N.am      15 UNK        -0.5000 
     85 CA         -4.8186  -24.4810  -50.0545 C.3       15 UNK         0.1400 
     86 CB         -4.7525  -23.8485  -51.4511 C.3       15 UNK        -0.1800 
     87 C          -5.9889  -23.8834  -49.2489 C.2       15 UNK         0.5000 
     88 O          -7.1236  -23.9343  -49.7244 O.2       15 UNK        -0.5000 
     89 N          -5.7038  -23.2759  -48.0841 N.am      16 UNK        -0.5000 
     90 CA         -6.6353  -22.5604  -47.2009 C.3       16 UNK         0.1400 
     91 CB         -7.5874  -23.5578  -46.5098 C.3       16 UNK        -0.1800 
     92 C          -7.3889  -21.4117  -47.9099 C.2       16 UNK         0.5000 
     93 O          -8.5284  -21.1069  -47.5548 O.2       16 UNK        -0.5000 
     94 N          -6.7432  -20.8277  -48.9307 N.am      17 UNK        -0.5000 
     95 CA         -7.2577  -19.8269  -49.8681 C.3       17 UNK         0.1400 
     96 CB         -7.5156  -18.4857  -49.1528 C.3       17 UNK        -0.1800 
     97 C          -8.4535  -20.2850  -50.7348 C.2       17 UNK         0.5000 
     98 O          -9.0756  -19.4427  -51.3834 O.2       17 UNK        -0.5000 
     99 N          -8.7362  -21.5971  -50.7887 N.am      18 UNK        -0.5000 
    100 CA        -9.7473  -22.1796  -51.6798 C.3       18 UNK         0.1400 
    101 CB       -10.1189  -23.5860  -51.1868 C.3       18 UNK        -0.1800 
    102 C         -9.2620  -22.2256  -53.1420 C.2       18 UNK         0.5000 
    103 O        -10.0688  -22.1047  -54.0643 O.2       18 UNK        -0.5000 
    104 N         -7.9438  -22.3646  -53.3120 N.am      19 UNK        -0.5000 
    105 CA        -7.2111  -22.2470  -54.5638 C.3       19 UNK         0.1400 
    106 CB        -6.9148  -23.6489  -55.1264 C.3       19 UNK        -0.1800 
    107 C         -5.9463  -21.4524  -54.2199 C.2       19 UNK         0.5000 
    108 O         -4.8903  -22.0417  -53.9901 O.2       19 UNK        -0.5000 
    109 N         -6.1105  -20.1308  -54.0780 N.am      20 UNK        -0.5000 
    110 CA        -5.1420  -19.1715  -53.5358 C.3       20 UNK         0.1400 
    111 CB        -5.8923  -17.8650  -53.2143 C.3       20 UNK        -0.1800 
    112 C         -3.8867  -18.9375  -54.4109 C.2       20 UNK         0.5000 
    113 O         -3.5780  -17.7973  -54.7605 O.2       20 UNK        -0.5000 
    114 N         -3.1890  -20.0245  -54.7444 N.am      21 UNK        -0.5000 
    115 CA        -1.9552  -20.0766  -55.5169 C.3       21 UNK         0.1400 
    116 CB        -2.2319  -19.7582  -57.0021 C.3       21 UNK        -0.1800 
    117 C         -1.3281  -21.4655  -55.3091 C.2       21 UNK         0.5000 
    118 O         -1.2401  -22.2492  -56.2566 O.2       21 UNK        -0.5000 
    119 N         -0.9377  -21.7679  -54.0629 N.am      22 UNK        -0.5000 
    120 CA        -0.2701  -23.0320  -53.6965 C.3       22 UNK         0.1400 
    121 C          1.2340  -23.1107  -54.0955 C.2       22 UNK         0.5000 
    122 N          1.8680  -22.0274  -54.5291 N.am      22 UNK        -0.7600 
    123 O          1.8324  -24.1807  -54.0262 O.2       22 UNK        -0.5000 
    124 C124       -0.5166  -23.4495  -52.2190 C.3       23 UNK        -0.0398 
    125 S125        0.0241  -22.2383  -50.9644 S.3       23 UNK        -0.2404 
    126 C126        1.6906  -22.8386  -50.5418 C.3       23 UNK        -0.0205 
    127 H127        0.3321  -23.2231  -40.6830 H         1 UNK         0.0600 
    128 H128       -0.8471  -22.8228  -41.9365 H         1 UNK         0.0600 
    129 H129        0.7091  -23.5294  -42.3818 H         1 UNK         0.0600 
    130 H130        2.0965  -22.0237  -43.2306 H         1 UNK         0.3000 
    131 H131        1.6312  -19.3123  -43.3753 H         1 UNK         0.0600 
    132 H132        4.0495  -19.2025  -44.2685 H         1 UNK         0.0800 
    133 H133        4.2312  -20.8808  -43.8333 H         1 UNK         0.0800 
    134 H134        4.3810  -19.1758  -46.7281 H         1 UNK         0.0800 
    135 H135        4.9405  -20.8314  -46.6577 H         1 UNK         0.0800 
    136 H136        2.4653  -22.1622  -48.0118 H         1 UNK         0.1150 
    137 H137        2.9183  -21.0134  -52.1037 H         1 UNK         0.1150 
    138 H138        4.8488  -18.7366  -49.0315 H         1 UNK         0.1150 
    139 H139        5.5581  -18.5883  -51.4628 H         1 UNK         0.0800 
    140 H140        4.6190  -19.3836  -52.6965 H         1 UNK         0.0800 
    141 H141        2.0558  -18.9766  -52.8577 H         1 UNK         0.0800 
    142 H142        1.5712  -17.3765  -53.3211 H         1 UNK         0.0800 
    143 H143        1.4422  -18.3686  -50.4276 H         1 UNK         0.0600 
    144 H144        0.8394  -16.3278  -49.9061 H         1 UNK         0.3000 
    145 H145       -0.3886  -13.5117  -51.5127 H         1 UNK         0.0600 
    146 H146       -2.2802  -13.5120  -49.8756 H         1 UNK         0.0600 
    147 H147       -2.6192  -14.5709  -51.2371 H         1 UNK         0.0600 
    148 H148       -2.1311  -15.2600  -49.6959 H         1 UNK         0.0600 
    149 H149       -0.0980  -14.2111  -48.7313 H         1 UNK         0.3000 
    150 H150        3.4143  -13.5761  -48.5504 H         1 UNK         0.0600 
    151 H151        2.3116  -11.3488  -48.2965 H         1 UNK         0.0600 
    152 H152        2.6322  -12.0825  -46.7319 H         1 UNK         0.0600 
    153 H153        0.9976  -12.0880  -47.3892 H         1 UNK         0.0600 
    154 H154        1.5448  -14.3747  -46.5662 H         1 UNK         0.3000 
    155 H155        1.8735  -17.9263  -47.0372 H         1 UNK         0.0600 
    156 H156        2.2743  -17.4875  -44.5551 H         1 UNK         0.0600 
    157 H157        2.7785  -15.8573  -44.9571 H         1 UNK         0.0600 
    158 H158        3.6940  -17.2177  -45.5622 H         1 UNK         0.0600 
    159 H159        0.2277  -16.4034  -45.2912 H         1 UNK         0.3000 
    160 H160       -2.5487  -15.9201  -47.4529 H         1 UNK         0.0600 
    161 H161       -2.2418  -17.9593  -45.1997 H         1 UNK         0.0600 
    162 H162       -3.0895  -18.1533  -46.7314 H         1 UNK         0.0600 
    163 H163       -3.7293  -17.0634  -45.5173 H         1 UNK         0.0600 
    164 H164       -1.9614  -15.4305  -44.6550 H         1 UNK         0.3000 
    165 H165       -0.7425  -12.1110  -45.1717 H         1 UNK         0.0600 
    166 H166       -3.3510  -13.1777  -43.9599 H         1 UNK         0.0600 
    167 H167       -2.5892  -11.6306  -43.5899 H         1 UNK         0.0600 
    168 H168       -3.2334  -11.9310  -45.1960 H         1 UNK         0.0600 
    169 H169       -1.2082  -13.7156  -42.8296 H         1 UNK         0.3000 
    170 H170        1.9826  -15.2780  -42.7288 H         1 UNK         0.0600 
    171 H171        2.4684  -12.9865  -41.8507 H         1 UNK         0.0600 
    172 H172        0.9242  -12.9762  -41.0060 H         1 UNK         0.0600 
    173 H173        2.1776  -14.1312  -40.5507 H         1 UNK         0.0600 
    174 H174        0.0035  -15.3246  -40.7649 H         1 UNK         0.3000 
    175 H175       -2.1044  -16.6626  -40.9654 H         1 UNK         0.0600 
    176 H176       -2.8301  -17.9670  -42.9157 H         1 UNK         0.0600 
    177 H177       -2.8035  -19.0094  -41.5054 H         1 UNK         0.0600 
    178 H178       -1.5142  -19.1196  -42.7011 H         1 UNK         0.0600 
    179 H179       -0.3257  -18.9611  -40.5433 H         1 UNK         0.3000 
    180 H180        0.8216  -17.7074  -37.3652 H         1 UNK         0.0600 
    181 H181       -0.8110  -20.1046  -38.3592 H         1 UNK         0.0600 
    182 H182       -1.3095  -18.9694  -37.1093 H         1 UNK         0.0600 
    183 H183        0.0800  -20.0110  -36.8422 H         1 UNK         0.0600 
    184 H184        1.3829  -19.6825  -39.5505 H         1 UNK         0.3000 
    185 H185        4.7555  -18.7331  -39.7253 H         1 UNK         0.0600 
    186 H186        5.3297  -21.0924  -39.2031 H         1 UNK         0.0600 
    187 H187        4.9577  -20.2179  -37.7264 H         1 UNK         0.0600 
    188 H188        3.7709  -21.3229  -38.4092 H         1 UNK         0.0600 
    189 H189        3.2954  -20.9640  -40.7977 H         1 UNK         0.3000 
    190 H190       -0.9497  -18.1705  -49.6638 H         1 UNK         0.3000 
    191 H191       -2.7003  -19.8907  -51.3928 H         1 UNK         0.0600 
    192 H192       -3.3972  -17.4779  -51.2641 H         1 UNK         0.0600 
    193 H193       -4.5579  -18.4986  -50.4279 H         1 UNK         0.0600 
    194 H194       -3.3972  -17.5619  -49.5064 H         1 UNK         0.0600 
    195 H195       -1.0174  -19.7403  -48.4547 H         1 UNK         0.3000 
    196 H196       -2.8513  -20.4451  -46.5160 H         1 UNK         0.0600 
    197 H197       -0.8386  -21.0729  -45.1681 H         1 UNK         0.0600 
    198 H198       -0.5656  -19.5810  -46.0509 H         1 UNK         0.0600 
    199 H199        0.1285  -21.0888  -46.6380 H         1 UNK         0.0600 
    200 H200       -0.8081  -22.7614  -48.3749 H         1 UNK         0.3000 
    201 H201       -1.6643  -25.0417  -46.8607 H         1 UNK         0.0600 
    202 H202        0.5092  -24.9356  -48.0845 H         1 UNK         0.0600 
    203 H203       -0.3591  -24.9511  -49.6248 H         1 UNK         0.0600 
    204 H204       -0.4347  -26.3391  -48.5541 H         1 UNK         0.0600 
    205 H205       -3.1132  -23.3573  -49.5152 H         1 UNK         0.3000 
    206 H206       -5.0133  -25.5488  -50.1719 H         1 UNK         0.0600 
    207 H207       -5.6826  -24.0036  -51.9981 H         1 UNK         0.0600 
    208 H208       -4.5754  -22.7736  -51.3955 H         1 UNK         0.0600 
    209 H209       -3.9552  -24.2891  -52.0490 H         1 UNK         0.0600 
    210 H210       -4.7387  -23.2666  -47.7757 H         1 UNK         0.3000 
    211 H211       -6.0250  -22.0914  -46.4280 H         1 UNK         0.0600 
    212 H212       -8.2707  -24.0231  -47.2210 H         1 UNK         0.0600 
    213 H213       -8.1927  -23.0615  -45.7505 H         1 UNK         0.0600 
    214 H214       -7.0310  -24.3512  -46.0109 H         1 UNK         0.0600 
    215 H215       -5.7850  -21.1216  -49.1003 H         1 UNK         0.3000 
    216 H216       -6.4518  -19.6681  -50.5825 H         1 UNK         0.0600 
    217 H217       -6.6384  -18.1653  -48.5904 H         1 UNK         0.0600 
    218 H218       -8.3541  -18.5522  -48.4594 H         1 UNK         0.0600 
    219 H219       -7.7449  -17.6953  -49.8684 H         1 UNK         0.0600 
    220 H220       -8.1917  -22.2495  -50.2338 H         1 UNK         0.3000 
    221 H221      -10.6453  -21.5594  -51.6415 H         1 UNK         0.0600 
    222 H222       -9.2777  -24.2760  -51.2598 H         1 UNK         0.0600 
    223 H223      -10.4482  -23.5668  -50.1477 H         1 UNK         0.0600 
    224 H224      -10.9339  -24.0022  -51.7801 H         1 UNK         0.0600 
    225 H225       -7.3711  -22.4440  -52.4839 H         1 UNK         0.3000 
    226 H226       -7.7859  -21.6812  -55.3001 H         1 UNK         0.0600 
    227 H227       -7.8375  -24.1749  -55.3713 H         1 UNK         0.0600 
    228 H228       -6.3231  -23.5838  -56.0402 H         1 UNK         0.0600 
    229 H229       -6.3597  -24.2639  -54.4172 H         1 UNK         0.0600 
    230 H230       -7.0188  -19.7467  -54.2958 H         1 UNK         0.3000 
    231 H231       -4.7825  -19.5845  -52.5929 H         1 UNK         0.0600 
    232 H232       -5.2312  -17.1254  -52.7621 H         1 UNK         0.0600 
    233 H233       -6.7085  -18.0366  -52.5126 H         1 UNK         0.0600 
    234 H234       -6.3149  -17.4162  -54.1141 H         1 UNK         0.0600 
    235 H235       -3.5520  -20.9256  -54.4343 H         1 UNK         0.3000 
    236 H236       -1.2573  -19.3339  -55.1265 H         1 UNK         0.0600 
    237 H237       -2.6017  -18.7414  -57.1316 H         1 UNK         0.0600 
    238 H238       -1.3212  -19.8450  -57.5959 H         1 UNK         0.0600 
    239 H239       -2.9705  -20.4388  -57.4272 H         1 UNK         0.0600 
    240 H240       -0.9669  -21.0438  -53.3491 H         1 UNK         0.3000 
    241 H241       -0.7429  -23.8149  -54.2928 H         1 UNK         0.0600 
    242 H242        2.8348  -22.0958  -54.8040 H         1 UNK         0.3800 
    243 H243        1.3834  -21.1480  -54.5989 H         1 UNK         0.3800 
    244 H244       -0.0583  -24.4178  -52.0115 H         1 UNK         0.0800 
    245 H245       -1.5860  -23.6023  -52.0722 H         1 UNK         0.0800 
    246 H246        1.6243  -23.5934  -49.7595 H         1 UNK         0.0800 
    247 H247        2.1500  -23.3314  -51.3982 H         1 UNK         0.0800 
@<TRIPOS>BOND
     1    1    2 1    
     2    1  127 1    
     3    1  128 1    
     4    1  129 1    
     5    2    3 2    
     6    2    4 am   BACKBONE|DICT|INTERRES
     7    4    5 1    
     8    4  130 1    
     9    5    6 1    
    10    5   65 1    
    11    5  131 1    
    12    6    7 1    
    13    6  132 1    
    14    6  133 1    
    15    7    8 1    
    16    8    9 1    
    17    8  134 1    
    18    8  135 1    
    19    9   10 ar   
    20    9   14 ar   
    21   10   11 ar   
    22   10  136 1    
    23   11   12 ar   
    24   11  126 1    
    25   12   13 ar   
    26   12  137 1    
    27   13   14 ar   
    28   13   15 1    
    29   14  138 1    
    30   15   16 1    
    31   15  139 1    
    32   15  140 1    
    33   16   17 1    
    34   17   18 1    
    35   17  141 1    
    36   17  142 1    
    37   18   19 1    
    38   18   67 1    
    39   18  143 1    
    40   19   20 am   BACKBONE|DICT|INTERRES
    41   19  144 1    
    42   20   21 2    
    43   20   22 1    
    44   22   23 1    
    45   22   24 1    
    46   22  145 1    
    47   23  146 1    
    48   23  147 1    
    49   23  148 1    
    50   24   25 am   BACKBONE|DICT|INTERRES
    51   24  149 1    
    52   25   26 2    
    53   25   27 1    
    54   27   28 1    
    55   27   29 1    
    56   27  150 1    
    57   28  151 1    
    58   28  152 1    
    59   28  153 1    
    60   29   30 am   BACKBONE|DICT|INTERRES
    61   29  154 1    
    62   30   31 2    
    63   30   32 1    
    64   32   33 1    
    65   32   34 1    
    66   32  155 1    
    67   33  156 1    
    68   33  157 1    
    69   33  158 1    
    70   34   35 am   BACKBONE|DICT|INTERRES
    71   34  159 1    
    72   35   36 2    
    73   35   37 1    
    74   37   38 1    
    75   37   39 1    
    76   37  160 1    
    77   38  161 1    
    78   38  162 1    
    79   38  163 1    
    80   39   40 am   BACKBONE|DICT|INTERRES
    81   39  164 1    
    82   40   41 2    
    83   40   42 1    
    84   42   43 1    
    85   42   44 1    
    86   42  165 1    
    87   43  166 1    
    88   43  167 1    
    89   43  168 1    
    90   44   45 am   BACKBONE|DICT|INTERRES
    91   44  169 1    
    92   45   46 2    
    93   45   47 1    
    94   47   48 1    
    95   47   49 1    
    96   47  170 1    
    97   48  171 1    
    98   48  172 1    
    99   48  173 1    
   100   49   50 am   BACKBONE|DICT|INTERRES
   101   49  174 1    
   102   50   51 2    
   103   50   52 1    
   104   52   53 1    
   105   52   54 1    
   106   52  175 1    
   107   53  176 1    
   108   53  177 1    
   109   53  178 1    
   110   54   55 am   BACKBONE|DICT|INTERRES
   111   54  179 1    
   112   55   56 2    
   113   55   57 1    
   114   57   58 1    
   115   57   59 1    
   116   57  180 1    
   117   58  181 1    
   118   58  182 1    
   119   58  183 1    
   120   59   60 am   BACKBONE|DICT|INTERRES
   121   59  184 1    
   122   60   61 2    
   123   60   62 1    
   124   62   63 1    
   125   62   64 1    
   126   62  185 1    
   127   63  186 1    
   128   63  187 1    
   129   63  188 1    
   130   64   65 am   BACKBONE|DICT|INTERRES
   131   64  189 1    
   132   65   66 2    
   133   67   68 2    
   134   67   69 am   BACKBONE|DICT|INTERRES
   135   69   70 1    
   136   69  190 1    
   137   70   71 1    
   138   70   72 1    
   139   70  191 1    
   140   71  192 1    
   141   71  193 1    
   142   71  194 1    
   143   72   73 2    
   144   72   74 am   BACKBONE|DICT|INTERRES
   145   74   75 1    
   146   74  195 1    
   147   75   76 1    
   148   75   77 1    
   149   75  196 1    
   150   76  197 1    
   151   76  198 1    
   152   76  199 1    
   153   77   78 2    
   154   77   79 am   BACKBONE|DICT|INTERRES
   155   79   80 1    
   156   79  200 1    
   157   80   81 1    
   158   80   82 1    
   159   80  201 1    
   160   81  202 1    
   161   81  203 1    
   162   81  204 1    
   163   82   83 2    
   164   82   84 am   BACKBONE|DICT|INTERRES
   165   84   85 1    
   166   84  205 1    
   167   85   86 1    
   168   85   87 1    
   169   85  206 1    
   170   86  207 1    
   171   86  208 1    
   172   86  209 1    
   173   87   88 2    
   174   87   89 am   BACKBONE|DICT|INTERRES
   175   89   90 1    
   176   89  210 1    
   177   90   91 1    
   178   90   92 1    
   179   90  211 1    
   180   91  212 1    
   181   91  213 1    
   182   91  214 1    
   183   92   93 2    
   184   92   94 am   BACKBONE|DICT|INTERRES
   185   94   95 1    
   186   94  215 1    
   187   95   96 1    
   188   95   97 1    
   189   95  216 1    
   190   96  217 1    
   191   96  218 1    
   192   96  219 1    
   193   97   98 2    
   194   97   99 am   BACKBONE|DICT|INTERRES
   195   99  100 1    
   196   99  220 1    
   197  100  101 1    
   198  100  102 1    
   199  100  221 1    
   200  101  222 1    
   201  101  223 1    
   202  101  224 1    
   203  102  103 2    
   204  102  104 am   BACKBONE|DICT|INTERRES
   205  104  105 1    
   206  104  225 1    
   207  105  106 1    
   208  105  107 1    
   209  105  226 1    
   210  106  227 1    
   211  106  228 1    
   212  106  229 1    
   213  107  108 2    
   214  107  109 am   BACKBONE|DICT|INTERRES
   215  109  110 1    
   216  109  230 1    
   217  110  111 1    
   218  110  112 1    
   219  110  231 1    
   220  111  232 1    
   221  111  233 1    
   222  111  234 1    
   223  112  113 2    
   224  112  114 am   BACKBONE|DICT|INTERRES
   225  114  115 1    
   226  114  235 1    
   227  115  116 1    
   228  115  117 1    
   229  115  236 1    
   230  116  237 1    
   231  116  238 1    
   232  116  239 1    
   233  117  118 2    
   234  117  119 am   BACKBONE|DICT|INTERRES
   235  119  120 1    
   236  119  240 1    
   237  120  121 1    
   238  120  124 1    
   239  120  241 1    
   240  121  122 am   BACKBONE|DICT|INTERRES
   241  121  123 2    
   242  122  242 1    
   243  122  243 1    
   244  124  125 1    
   245  124  244 1    
   246  124  245 1    
   247  125  126 1    
   248  126  246 1    
   249  126  247 1    
@<TRIPOS>SUBSTRUCTURE
     1 UNK         1 GROUP             0       ****    0 ROOT    
