@<TRIPOS>MOLECULE
3R540
247   249    1
SMALL
USER_CHARGES


@<TRIPOS>ATOM
      1 CA         -4.7254  -13.5983  -49.5412 C.3       0 UNK        -0.1800 
      2 C          -3.5414  -13.4224  -48.6012 C.2       0 UNK         0.5000 
      3 O          -3.6183  -12.6405  -47.6536 O.2       0 UNK        -0.5000 
      4 N          -2.4512  -14.1627  -48.8453 N.am      1 UNK        -0.5000 
      5 CA         -1.2007  -14.1239  -48.0733 C.3       1 UNK         0.1400 
      6 C6         -0.0686  -14.9102  -48.7760 C.3       23 UNK        -0.0398 
      7 S7         -0.4127  -16.6952  -48.9719 S.3       23 UNK        -0.2404 
      8 C8          0.8098  -17.1188  -50.2453 C.3       23 UNK        -0.0205 
      9 C9          0.9413  -18.6227  -50.4253 C.ar      23 UNK        -0.0193 
     10 C10        -0.0799  -19.3515  -51.0390 C.ar      23 UNK        -0.1150 
     11 C11         0.0573  -20.7247  -51.2588 C.ar      23 UNK        -0.0193 
     12 C12         1.2317  -21.3702  -50.8545 C.ar      23 UNK        -0.1150 
     13 C13         2.2628  -20.6516  -50.2385 C.ar      23 UNK        -0.0193 
     14 C14         2.1042  -19.2805  -50.0174 C.ar      23 UNK        -0.1150 
     15 C15         3.5808  -21.3257  -49.8722 C.3       23 UNK        -0.0205 
     16 S16         3.4077  -22.7227  -48.7172 S.3       23 UNK        -0.2404 
     17 C17         2.7204  -21.9234  -47.2259 C.3       23 UNK        -0.0398 
     18 CA          1.5716  -22.7571  -46.6123 C.3       11 UNK         0.1400 
     19 N           1.2857  -22.3819  -45.2256 N.am      11 UNK        -0.5000 
     20 C           0.4730  -23.0692  -44.4090 C.2       10 UNK         0.5000 
     21 O          -0.0897  -24.1167  -44.7251 O.2       10 UNK        -0.5000 
     22 CA          0.2013  -22.4628  -43.0221 C.3       10 UNK         0.1400 
     23 CB          1.3746  -22.7269  -42.0670 C.3       10 UNK        -0.1800 
     24 N          -0.0742  -21.0286  -43.0849 N.am      10 UNK        -0.5000 
     25 C          -1.1140  -20.4814  -43.7299 C.2       9 UNK         0.5000 
     26 O          -1.9862  -21.1333  -44.3043 O.2       9 UNK        -0.5000 
     27 CA         -1.1617  -18.9447  -43.7817 C.3       9 UNK         0.1400 
     28 CB         -1.6807  -18.3703  -42.4536 C.3       9 UNK        -0.1800 
     29 N           0.1340  -18.3474  -44.1129 N.am      9 UNK        -0.5000 
     30 C           0.8013  -18.5670  -45.2565 C.2       8 UNK         0.5000 
     31 O           0.3750  -19.2600  -46.1772 O.2       8 UNK        -0.5000 
     32 CA          2.2167  -17.9780  -45.3608 C.3       8 UNK         0.1400 
     33 CB          2.1782  -16.4984  -45.7673 C.3       8 UNK        -0.1800 
     34 N           2.9580  -18.1394  -44.1110 N.am      8 UNK        -0.5000 
     35 C           3.3818  -19.3208  -43.6382 C.2       7 UNK         0.5000 
     36 O           3.2378  -20.3874  -44.2357 O.2       7 UNK        -0.5000 
     37 CA          4.0336  -19.3122  -42.2433 C.3       7 UNK         0.1400 
     38 CB          5.5214  -18.9445  -42.3429 C.3       7 UNK        -0.1800 
     39 N           3.3662  -18.3912  -41.3219 N.am      7 UNK        -0.5000 
     40 C           2.1123  -18.5448  -40.8718 C.2       6 UNK         0.5000 
     41 O           1.4082  -19.5170  -41.1387 O.2       6 UNK        -0.5000 
     42 CA          1.5315  -17.3967  -40.0247 C.3       6 UNK         0.1400 
     43 CB          1.8213  -17.6257  -38.5342 C.3       6 UNK        -0.1800 
     44 N           2.0417  -16.0823  -40.4242 N.am      6 UNK        -0.5000 
     45 C           1.8072  -15.5075  -41.6111 C.2       5 UNK         0.5000 
     46 O           1.1138  -16.0190  -42.4935 O.2       5 UNK        -0.5000 
     47 CA          2.5571  -14.1913  -41.8804 C.3       5 UNK         0.1400 
     48 CB          3.9034  -14.4852  -42.5617 C.3       5 UNK        -0.1800 
     49 N           1.8026  -13.2619  -42.7189 N.am      5 UNK        -0.5000 
     50 C           0.7011  -12.6015  -42.3401 C.2       4 UNK         0.5000 
     51 O           0.1770  -12.7370  -41.2329 O.2       4 UNK        -0.5000 
     52 CA          0.1092  -11.5835  -43.3361 C.3       4 UNK         0.1400 
     53 CB          0.9763  -11.3411  -44.5894 C.3       4 UNK        -0.1800 
     54 N          -1.2206  -12.0165  -43.7525 N.am      4 UNK        -0.5000 
     55 C          -2.3737  -11.6122  -43.1993 C.2       3 UNK         0.5000 
     56 O          -2.4412  -10.7756  -42.2974 O.2       3 UNK        -0.5000 
     57 CA         -3.6829  -12.2202  -43.7478 C.3       3 UNK         0.1400 
     58 CB         -4.4226  -11.1997  -44.6267 C.3       3 UNK        -0.1800 
     59 N          -3.4718  -13.4434  -44.5219 N.am      3 UNK        -0.5000 
     60 C          -3.1599  -14.6340  -43.9893 C.2       2 UNK         0.5000 
     61 O          -3.1310  -14.8483  -42.7777 O.2       2 UNK        -0.5000 
     62 CA         -2.7980  -15.7737  -44.9638 C.3       2 UNK         0.1400 
     63 CB         -3.9585  -16.7735  -45.0863 C.3       2 UNK        -0.1800 
     64 N          -2.4237  -15.3227  -46.3032 N.am      2 UNK        -0.5000 
     65 C          -1.3631  -14.5580  -46.5991 C.2       1 UNK         0.5000 
     66 O          -0.5590  -14.1599  -45.7573 O.2       1 UNK        -0.5000 
     67 C           0.3023  -22.7315  -47.4874 C.2       11 UNK         0.5000 
     68 O           0.0427  -23.7056  -48.1945 O.2       11 UNK        -0.5000 
     69 N          -0.4904  -21.6549  -47.3798 N.am      12 UNK        -0.5000 
     70 CA         -1.7680  -21.4935  -48.0700 C.3       12 UNK         0.1400 
     71 CB         -2.3566  -20.1037  -47.7873 C.3       12 UNK        -0.1800 
     72 C          -2.7700  -22.6055  -47.7273 C.2       12 UNK         0.5000 
     73 O          -3.3548  -23.1856  -48.6396 O.2       12 UNK        -0.5000 
     74 N          -2.9075  -22.9202  -46.4325 N.am      13 UNK        -0.5000 
     75 CA         -3.7478  -24.0074  -45.9327 C.3       13 UNK         0.1400 
     76 CB         -3.8061  -23.9436  -44.3990 C.3       13 UNK        -0.1800 
     77 C          -3.2858  -25.3999  -46.4038 C.2       13 UNK         0.5000 
     78 O          -4.1272  -26.2191  -46.7746 O.2       13 UNK        -0.5000 
     79 N          -1.9677  -25.6419  -46.3850 N.am      14 UNK        -0.5000 
     80 CA         -1.3527  -26.9070  -46.7856 C.3       14 UNK         0.1400 
     81 CB          0.1080  -26.9453  -46.3092 C.3       14 UNK        -0.1800 
     82 C          -1.4364  -27.1675  -48.2995 C.2       14 UNK         0.5000 
     83 O          -1.8192  -28.2664  -48.7039 O.2       14 UNK        -0.5000 
     84 N          -1.0669  -26.1650  -49.1075 N.am      15 UNK        -0.5000 
     85 CA         -1.0326  -26.2629  -50.5683 C.3       15 UNK         0.1400 
     86 CB         -0.0472  -25.2220  -51.1183 C.3       15 UNK        -0.1800 
     87 C          -2.4185  -26.1169  -51.2262 C.2       15 UNK         0.5000 
     88 O          -2.5983  -26.6205  -52.3354 O.2       15 UNK        -0.5000 
     89 N          -3.3552  -25.4626  -50.5218 N.am      16 UNK        -0.5000 
     90 CA         -4.7266  -25.1062  -50.8995 C.3       16 UNK         0.1400 
     91 CB         -5.5332  -26.3215  -51.3996 C.3       16 UNK        -0.1800 
     92 C          -4.7547  -23.9428  -51.9209 C.2       16 UNK         0.5000 
     93 O          -4.2136  -24.0943  -53.0147 O.2       16 UNK        -0.5000 
     94 N          -5.3919  -22.7954  -51.6476 N.am      17 UNK        -0.5000 
     95 CA         -6.0676  -22.3695  -50.4168 C.3       17 UNK         0.1400 
     96 CB         -7.5579  -22.7394  -50.5079 C.3       17 UNK        -0.1800 
     97 C          -5.8698  -20.8669  -50.1349 C.2       17 UNK         0.5000 
     98 O          -6.3599  -20.3827  -49.1146 O.2       17 UNK        -0.5000 
     99 N          -5.1636  -20.1514  -51.0202 N.am      18 UNK        -0.5000 
    100 CA        -4.9061  -18.7162  -50.9619 C.3       18 UNK         0.1400 
    101 CB        -6.2057  -17.9234  -51.2129 C.3       18 UNK        -0.1800 
    102 C         -3.8660  -18.3714  -52.0348 C.2       18 UNK         0.5000 
    103 O         -3.6100  -19.1842  -52.9287 O.2       18 UNK        -0.5000 
    104 N         -3.3280  -17.1469  -51.9724 N.am      19 UNK        -0.5000 
    105 CA        -2.3943  -16.5891  -52.9591 C.3       19 UNK         0.1400 
    106 CB        -1.9638  -15.1844  -52.5118 C.3       19 UNK        -0.1800 
    107 C         -2.9647  -16.5453  -54.3906 C.2       19 UNK         0.5000 
    108 O         -2.2134  -16.7146  -55.3493 O.2       19 UNK        -0.5000 
    109 N         -4.2889  -16.3754  -54.5060 N.am      20 UNK        -0.5000 
    110 CA        -5.0329  -16.4282  -55.7649 C.3       20 UNK         0.1400 
    111 CB        -6.4650  -15.9313  -55.5137 C.3       20 UNK        -0.1800 
    112 C         -5.0558  -17.8284  -56.4131 C.2       20 UNK         0.5000 
    113 O         -5.2108  -17.9190  -57.6316 O.2       20 UNK        -0.5000 
    114 N         -4.9067  -18.8867  -55.6028 N.am      21 UNK        -0.5000 
    115 CA        -4.8398  -20.2712  -56.0659 C.3       21 UNK         0.1400 
    116 CB        -5.3773  -21.2118  -54.9749 C.3       21 UNK        -0.1800 
    117 C         -3.4043  -20.6521  -56.4623 C.2       21 UNK         0.5000 
    118 O         -3.2086  -21.2322  -57.5314 O.2       21 UNK        -0.5000 
    119 N         -2.4315  -20.3194  -55.6021 N.am      22 UNK        -0.5000 
    120 CA        -1.0052  -20.6077  -55.8333 C.3       22 UNK         0.1400 
    121 C         -0.3142  -19.6709  -56.8652 C.2       22 UNK         0.5000 
    122 N         -0.7754  -18.4462  -57.0793 N.am      22 UNK        -0.7600 
    123 O          0.6592  -20.0716  -57.4978 O.2       22 UNK        -0.5000 
    124 C124       -0.2003  -20.6672  -54.5119 C.3       23 UNK        -0.0398 
    125 S125       -0.5790  -22.1737  -53.5519 S.3       23 UNK        -0.2404 
    126 C126       -1.0671  -21.4995  -51.9355 C.3       23 UNK        -0.0205 
    127 H127       -4.5086  -14.3050  -50.3422 H         1 UNK         0.0600 
    128 H128       -4.9879  -12.6424  -49.9944 H         1 UNK         0.0600 
    129 H129       -5.5911  -13.9637  -48.9888 H         1 UNK         0.0600 
    130 H130       -2.4489  -14.8018  -49.6246 H         1 UNK         0.3000 
    131 H131       -0.8903  -13.0772  -48.0418 H         1 UNK         0.0600 
    132 H132        0.8705  -14.7882  -48.2344 H         1 UNK         0.0800 
    133 H133        0.1088  -14.4778  -49.7616 H         1 UNK         0.0800 
    134 H134        0.5220  -16.6644  -51.1939 H         1 UNK         0.0800 
    135 H135        1.7732  -16.6840  -49.9744 H         1 UNK         0.0800 
    136 H136       -0.9804  -18.8439  -51.3495 H         1 UNK         0.1150 
    137 H137        1.3503  -22.4294  -51.0335 H         1 UNK         0.1150 
    138 H138        2.9008  -18.7162  -49.5533 H         1 UNK         0.1150 
    139 H139        4.0473  -21.6903  -50.7882 H         1 UNK         0.0800 
    140 H140        4.2795  -20.6062  -49.4426 H         1 UNK         0.0800 
    141 H141        2.3936  -20.9049  -47.4419 H         1 UNK         0.0800 
    142 H142        3.5373  -21.8317  -46.5093 H         1 UNK         0.0800 
    143 H143        1.9077  -23.7959  -46.5740 H         1 UNK         0.0600 
    144 H144        1.7407  -21.5442  -44.8770 H         1 UNK         0.3000 
    145 H145       -0.6850  -22.9527  -42.6139 H         1 UNK         0.0600 
    146 H146        1.1516  -22.3692  -41.0617 H         1 UNK         0.0600 
    147 H147        1.5854  -23.7945  -41.9934 H         1 UNK         0.0600 
    148 H148        2.2873  -22.2337  -42.4017 H         1 UNK         0.0600 
    149 H149        0.5656  -20.4201  -42.5812 H         1 UNK         0.3000 
    150 H150       -1.8577  -18.6695  -44.5743 H         1 UNK         0.0600 
    151 H151       -1.0882  -18.7109  -41.6054 H         1 UNK         0.0600 
    152 H152       -1.6637  -17.2809  -42.4486 H         1 UNK         0.0600 
    153 H153       -2.7105  -18.6816  -42.2754 H         1 UNK         0.0600 
    154 H154        0.5442  -17.7238  -43.4252 H         1 UNK         0.3000 
    155 H155        2.7478  -18.5250  -46.1430 H         1 UNK         0.0600 
    156 H156        1.6266  -15.8881  -45.0525 H         1 UNK         0.0600 
    157 H157        3.1826  -16.0858  -45.8608 H         1 UNK         0.0600 
    158 H158        1.6901  -16.3855  -46.7342 H         1 UNK         0.0600 
    159 H159        3.0643  -17.3177  -43.5362 H         1 UNK         0.3000 
    160 H160        3.9565  -20.3211  -41.8323 H         1 UNK         0.0600 
    161 H161        5.6636  -17.9328  -42.7252 H         1 UNK         0.0600 
    162 H162        6.0471  -19.6259  -43.0131 H         1 UNK         0.0600 
    163 H163        6.0088  -19.0076  -41.3698 H         1 UNK         0.0600 
    164 H164        3.8813  -17.5701  -41.0420 H         1 UNK         0.3000 
    165 H165        0.4489  -17.3948  -40.1661 H         1 UNK         0.0600 
    166 H166        1.3498  -16.8595  -37.9185 H         1 UNK         0.0600 
    167 H167        1.4316  -18.5901  -38.2052 H         1 UNK         0.0600 
    168 H168        2.8915  -17.6151  -38.3242 H         1 UNK         0.0600 
    169 H169        2.6285  -15.6059  -39.7542 H         1 UNK         0.3000 
    170 H170        2.7525  -13.6993  -40.9252 H         1 UNK         0.0600 
    171 H171        3.7683  -14.9512  -43.5384 H         1 UNK         0.0600 
    172 H172        4.4797  -13.5709  -42.7052 H         1 UNK         0.0600 
    173 H173        4.5135  -15.1580  -41.9577 H         1 UNK         0.0600 
    174 H174        2.1435  -13.1251  -43.6586 H         1 UNK         0.3000 
    175 H175        0.0409  -10.6314  -42.8061 H         1 UNK         0.0600 
    176 H176        0.5195  -10.5923  -45.2368 H         1 UNK         0.0600 
    177 H177        1.1140  -12.2450  -45.1826 H         1 UNK         0.0600 
    178 H178        1.9637  -10.9659  -44.3175 H         1 UNK         0.0600 
    179 H179       -1.2411  -12.7484  -44.4545 H         1 UNK         0.3000 
    180 H180       -4.3194  -12.4567  -42.8926 H         1 UNK         0.0600 
    181 H181       -5.3655  -11.6042  -44.9950 H         1 UNK         0.0600 
    182 H182       -3.8240  -10.9050  -45.4895 H         1 UNK         0.0600 
    183 H183       -4.6548  -10.2945  -44.0642 H         1 UNK         0.0600 
    184 H184       -3.4817  -13.3444  -45.5303 H         1 UNK         0.3000 
    185 H185       -1.9296  -16.2840  -44.5479 H         1 UNK         0.0600 
    186 H186       -4.2177  -17.1920  -44.1129 H         1 UNK         0.0600 
    187 H187       -4.8543  -16.2994  -45.4891 H         1 UNK         0.0600 
    188 H188       -3.6992  -17.6069  -45.7396 H         1 UNK         0.0600 
    189 H189       -3.0329  -15.5957  -47.0596 H         1 UNK         0.3000 
    190 H190       -0.1892  -20.8707  -46.8040 H         1 UNK         0.3000 
    191 H191       -1.5678  -21.5571  -49.1374 H         1 UNK         0.0600 
    192 H192       -2.5258  -19.9447  -46.7225 H         1 UNK         0.0600 
    193 H193       -1.6882  -19.3186  -48.1399 H         1 UNK         0.0600 
    194 H194       -3.3118  -19.9720  -48.2963 H         1 UNK         0.0600 
    195 H195       -2.4064  -22.3731  -45.7373 H         1 UNK         0.3000 
    196 H196       -4.7575  -23.8475  -46.3166 H         1 UNK         0.0600 
    197 H197       -4.4392  -24.7358  -43.9974 H         1 UNK         0.0600 
    198 H198       -4.2190  -22.9933  -44.0602 H         1 UNK         0.0600 
    199 H199       -2.8167  -24.0543  -43.9539 H         1 UNK         0.0600 
    200 H200       -1.3414  -24.9284  -46.0235 H         1 UNK         0.3000 
    201 H201       -1.8880  -27.7144  -46.2815 H         1 UNK         0.0600 
    202 H202        0.1692  -26.8712  -45.2234 H         1 UNK         0.0600 
    203 H203        0.6919  -26.1275  -46.7331 H         1 UNK         0.0600 
    204 H204        0.5905  -27.8796  -46.5987 H         1 UNK         0.0600 
    205 H205       -0.7428  -25.2883  -48.7011 H         1 UNK         0.3000 
    206 H206       -0.6510  -27.2494  -50.8405 H         1 UNK         0.0600 
    207 H207       -0.0163  -25.2408  -52.2084 H         1 UNK         0.0600 
    208 H208       -0.3251  -24.2158  -50.8132 H         1 UNK         0.0600 
    209 H209        0.9647  -25.4081  -50.7581 H         1 UNK         0.0600 
    210 H210       -3.0584  -25.0488  -49.6455 H         1 UNK         0.3000 
    211 H211       -5.1955  -24.8192  -49.9638 H         1 UNK         0.0600 
    212 H212       -5.1957  -26.6682  -52.3765 H         1 UNK         0.0600 
    213 H213       -6.5887  -26.0662  -51.4982 H         1 UNK         0.0600 
    214 H214       -5.4635  -27.1567  -50.7026 H         1 UNK         0.0600 
    215 H215       -5.4391  -22.1224  -52.3955 H         1 UNK         0.3000 
    216 H216       -5.6496  -22.8557  -49.5406 H         1 UNK         0.0600 
    217 H217       -8.0952  -22.4389  -49.6075 H         1 UNK         0.0600 
    218 H218       -7.6933  -23.8151  -50.6191 H         1 UNK         0.0600 
    219 H219       -8.0392  -22.2517  -51.3563 H         1 UNK         0.0600 
    220 H220       -4.7066  -20.6029  -51.8004 H         1 UNK         0.3000 
    221 H221       -4.4946  -18.4646  -49.9826 H         1 UNK         0.0600 
    222 H222       -6.6445  -18.1703  -52.1806 H         1 UNK         0.0600 
    223 H223       -6.9550  -18.1265  -50.4482 H         1 UNK         0.0600 
    224 H224       -6.0266  -16.8478  -51.1976 H         1 UNK         0.0600 
    225 H225       -3.6022  -16.5368  -51.2187 H         1 UNK         0.3000 
    226 H226       -1.5094  -17.2277  -52.9837 H         1 UNK         0.0600 
    227 H227       -1.4740  -15.2123  -51.5403 H         1 UNK         0.0600 
    228 H228       -1.2530  -14.7516  -53.2171 H         1 UNK         0.0600 
    229 H229       -2.8131  -14.5036  -52.4432 H         1 UNK         0.0600 
    230 H230       -4.8303  -16.2381  -53.6662 H         1 UNK         0.3000 
    231 H231       -4.5524  -15.7473  -56.4707 H         1 UNK         0.0600 
    232 H232       -6.9904  -16.5638  -54.7969 H         1 UNK         0.0600 
    233 H233       -7.0458  -15.9295  -56.4371 H         1 UNK         0.0600 
    234 H234       -6.4676  -14.9116  -55.1284 H         1 UNK         0.0600 
    235 H235       -4.7210  -18.7327  -54.6201 H         1 UNK         0.3000 
    236 H236       -5.4780  -20.3882  -56.9446 H         1 UNK         0.0600 
    237 H237       -6.3819  -20.9255  -54.6632 H         1 UNK         0.0600 
    238 H238       -5.4289  -22.2379  -55.3414 H         1 UNK         0.0600 
    239 H239       -4.7374  -21.2185  -54.0938 H         1 UNK         0.0600 
    240 H240       -2.6758  -19.8623  -54.7323 H         1 UNK         0.3000 
    241 H241       -0.9477  -21.6029  -56.2800 H         1 UNK         0.0600 
    242 H242       -1.5040  -18.0398  -56.4997 H         1 UNK         0.3800 
    243 H243       -0.3149  -17.8650  -57.7608 H         1 UNK         0.3800 
    244 H244        0.8738  -20.6851  -54.7057 H         1 UNK         0.0800 
    245 H245       -0.3848  -19.7719  -53.9169 H         1 UNK         0.0800 
    246 H246       -1.3849  -22.3204  -51.2950 H         1 UNK         0.0800 
    247 H247       -1.9473  -20.8739  -52.0669 H         1 UNK         0.0800 
@<TRIPOS>BOND
     1    1    2 1    
     2    1  127 1    
     3    1  128 1    
     4    1  129 1    
     5    2    3 2    
     6    2    4 am   BACKBONE|DICT|INTERRES
     7    4    5 1    
     8    4  130 1    
     9    5    6 1    
    10    5   65 1    
    11    5  131 1    
    12    6    7 1    
    13    6  132 1    
    14    6  133 1    
    15    7    8 1    
    16    8    9 1    
    17    8  134 1    
    18    8  135 1    
    19    9   10 ar   
    20    9   14 ar   
    21   10   11 ar   
    22   10  136 1    
    23   11   12 ar   
    24   11  126 1    
    25   12   13 ar   
    26   12  137 1    
    27   13   14 ar   
    28   13   15 1    
    29   14  138 1    
    30   15   16 1    
    31   15  139 1    
    32   15  140 1    
    33   16   17 1    
    34   17   18 1    
    35   17  141 1    
    36   17  142 1    
    37   18   19 1    
    38   18   67 1    
    39   18  143 1    
    40   19   20 am   BACKBONE|DICT|INTERRES
    41   19  144 1    
    42   20   21 2    
    43   20   22 1    
    44   22   23 1    
    45   22   24 1    
    46   22  145 1    
    47   23  146 1    
    48   23  147 1    
    49   23  148 1    
    50   24   25 am   BACKBONE|DICT|INTERRES
    51   24  149 1    
    52   25   26 2    
    53   25   27 1    
    54   27   28 1    
    55   27   29 1    
    56   27  150 1    
    57   28  151 1    
    58   28  152 1    
    59   28  153 1    
    60   29   30 am   BACKBONE|DICT|INTERRES
    61   29  154 1    
    62   30   31 2    
    63   30   32 1    
    64   32   33 1    
    65   32   34 1    
    66   32  155 1    
    67   33  156 1    
    68   33  157 1    
    69   33  158 1    
    70   34   35 am   BACKBONE|DICT|INTERRES
    71   34  159 1    
    72   35   36 2    
    73   35   37 1    
    74   37   38 1    
    75   37   39 1    
    76   37  160 1    
    77   38  161 1    
    78   38  162 1    
    79   38  163 1    
    80   39   40 am   BACKBONE|DICT|INTERRES
    81   39  164 1    
    82   40   41 2    
    83   40   42 1    
    84   42   43 1    
    85   42   44 1    
    86   42  165 1    
    87   43  166 1    
    88   43  167 1    
    89   43  168 1    
    90   44   45 am   BACKBONE|DICT|INTERRES
    91   44  169 1    
    92   45   46 2    
    93   45   47 1    
    94   47   48 1    
    95   47   49 1    
    96   47  170 1    
    97   48  171 1    
    98   48  172 1    
    99   48  173 1    
   100   49   50 am   BACKBONE|DICT|INTERRES
   101   49  174 1    
   102   50   51 2    
   103   50   52 1    
   104   52   53 1    
   105   52   54 1    
   106   52  175 1    
   107   53  176 1    
   108   53  177 1    
   109   53  178 1    
   110   54   55 am   BACKBONE|DICT|INTERRES
   111   54  179 1    
   112   55   56 2    
   113   55   57 1    
   114   57   58 1    
   115   57   59 1    
   116   57  180 1    
   117   58  181 1    
   118   58  182 1    
   119   58  183 1    
   120   59   60 am   BACKBONE|DICT|INTERRES
   121   59  184 1    
   122   60   61 2    
   123   60   62 1    
   124   62   63 1    
   125   62   64 1    
   126   62  185 1    
   127   63  186 1    
   128   63  187 1    
   129   63  188 1    
   130   64   65 am   BACKBONE|DICT|INTERRES
   131   64  189 1    
   132   65   66 2    
   133   67   68 2    
   134   67   69 am   BACKBONE|DICT|INTERRES
   135   69   70 1    
   136   69  190 1    
   137   70   71 1    
   138   70   72 1    
   139   70  191 1    
   140   71  192 1    
   141   71  193 1    
   142   71  194 1    
   143   72   73 2    
   144   72   74 am   BACKBONE|DICT|INTERRES
   145   74   75 1    
   146   74  195 1    
   147   75   76 1    
   148   75   77 1    
   149   75  196 1    
   150   76  197 1    
   151   76  198 1    
   152   76  199 1    
   153   77   78 2    
   154   77   79 am   BACKBONE|DICT|INTERRES
   155   79   80 1    
   156   79  200 1    
   157   80   81 1    
   158   80   82 1    
   159   80  201 1    
   160   81  202 1    
   161   81  203 1    
   162   81  204 1    
   163   82   83 2    
   164   82   84 am   BACKBONE|DICT|INTERRES
   165   84   85 1    
   166   84  205 1    
   167   85   86 1    
   168   85   87 1    
   169   85  206 1    
   170   86  207 1    
   171   86  208 1    
   172   86  209 1    
   173   87   88 2    
   174   87   89 am   BACKBONE|DICT|INTERRES
   175   89   90 1    
   176   89  210 1    
   177   90   91 1    
   178   90   92 1    
   179   90  211 1    
   180   91  212 1    
   181   91  213 1    
   182   91  214 1    
   183   92   93 2    
   184   92   94 am   BACKBONE|DICT|INTERRES
   185   94   95 1    
   186   94  215 1    
   187   95   96 1    
   188   95   97 1    
   189   95  216 1    
   190   96  217 1    
   191   96  218 1    
   192   96  219 1    
   193   97   98 2    
   194   97   99 am   BACKBONE|DICT|INTERRES
   195   99  100 1    
   196   99  220 1    
   197  100  101 1    
   198  100  102 1    
   199  100  221 1    
   200  101  222 1    
   201  101  223 1    
   202  101  224 1    
   203  102  103 2    
   204  102  104 am   BACKBONE|DICT|INTERRES
   205  104  105 1    
   206  104  225 1    
   207  105  106 1    
   208  105  107 1    
   209  105  226 1    
   210  106  227 1    
   211  106  228 1    
   212  106  229 1    
   213  107  108 2    
   214  107  109 am   BACKBONE|DICT|INTERRES
   215  109  110 1    
   216  109  230 1    
   217  110  111 1    
   218  110  112 1    
   219  110  231 1    
   220  111  232 1    
   221  111  233 1    
   222  111  234 1    
   223  112  113 2    
   224  112  114 am   BACKBONE|DICT|INTERRES
   225  114  115 1    
   226  114  235 1    
   227  115  116 1    
   228  115  117 1    
   229  115  236 1    
   230  116  237 1    
   231  116  238 1    
   232  116  239 1    
   233  117  118 2    
   234  117  119 am   BACKBONE|DICT|INTERRES
   235  119  120 1    
   236  119  240 1    
   237  120  121 1    
   238  120  124 1    
   239  120  241 1    
   240  121  122 am   BACKBONE|DICT|INTERRES
   241  121  123 2    
   242  122  242 1    
   243  122  243 1    
   244  124  125 1    
   245  124  244 1    
   246  124  245 1    
   247  125  126 1    
   248  126  246 1    
   249  126  247 1    
@<TRIPOS>SUBSTRUCTURE
     1 UNK         1 GROUP             0       ****    0 ROOT    
