@<TRIPOS>MOLECULE
3R540
247   249    1
SMALL
USER_CHARGES


@<TRIPOS>ATOM
      1 CA         -3.5970  -17.9655  -47.5211 C.3       0 UNK        -0.1800 
      2 C          -3.5984  -16.4948  -47.9070 C.2       0 UNK         0.5000 
      3 O          -4.6386  -15.8415  -47.8339 O.2       0 UNK        -0.5000 
      4 N          -2.4439  -15.9773  -48.3396 N.am      1 UNK        -0.5000 
      5 CA         -2.2341  -14.5716  -48.6813 C.3       1 UNK         0.1400 
      6 C6         -1.0627  -14.3881  -49.6778 C.3       23 UNK        -0.0398 
      7 S7          0.5214  -15.1516  -49.1635 S.3       23 UNK        -0.2404 
      8 C8          0.8681  -16.3026  -50.5334 C.3       23 UNK        -0.0205 
      9 C9          0.6373  -17.7581  -50.1506 C.ar      23 UNK        -0.0193 
     10 C10        -0.6185  -18.3550  -50.3074 C.ar      23 UNK        -0.1150 
     11 C11        -0.7933  -19.7164  -50.0261 C.ar      23 UNK        -0.0193 
     12 C12         0.2967  -20.4684  -49.5789 C.ar      23 UNK        -0.1150 
     13 C13         1.5518  -19.8812  -49.3845 C.ar      23 UNK        -0.0193 
     14 C14         1.7079  -18.5239  -49.6787 C.ar      23 UNK        -0.1150 
     15 C15         2.7706  -20.6632  -48.8819 C.3       23 UNK        -0.0205 
     16 S16         2.4471  -22.3056  -48.1405 S.3       23 UNK        -0.2404 
     17 C17         1.4677  -21.8506  -46.6760 C.3       23 UNK        -0.0398 
     18 CA          0.6284  -23.0096  -46.0889 C.3       11 UNK         0.1400 
     19 N           0.2505  -22.7066  -44.7038 N.am      11 UNK        -0.5000 
     20 C          -0.4256  -23.5090  -43.8692 C.2       10 UNK         0.5000 
     21 O          -0.8049  -24.6430  -44.1604 O.2       10 UNK        -0.5000 
     22 CA         -0.7726  -22.9174  -42.4925 C.3       10 UNK         0.1400 
     23 CB          0.4303  -22.9902  -41.5393 C.3       10 UNK        -0.1800 
     24 N          -1.2193  -21.5294  -42.6199 N.am      10 UNK        -0.5000 
     25 C          -2.4635  -21.1742  -42.9718 C.2       9 UNK         0.5000 
     26 O          -3.3853  -21.9773  -43.1158 O.2       9 UNK        -0.5000 
     27 CA         -2.7244  -19.6758  -43.2276 C.3       9 UNK         0.1400 
     28 CB         -3.2164  -18.9907  -41.9446 C.3       9 UNK        -0.1800 
     29 N          -1.5573  -18.9589  -43.7491 N.am      9 UNK        -0.5000 
     30 C          -1.0024  -19.2010  -44.9458 C.2       8 UNK         0.5000 
     31 O          -1.4425  -20.0274  -45.7406 O.2       8 UNK        -0.5000 
     32 CA          0.2885  -18.4473  -45.3040 C.3       8 UNK         0.1400 
     33 CB         -0.0230  -17.1517  -46.0551 C.3       8 UNK        -0.1800 
     34 N           1.1449  -18.1680  -44.1561 N.am      8 UNK        -0.5000 
     35 C           1.7278  -19.0991  -43.3892 C.2       7 UNK         0.5000 
     36 O           1.5248  -20.3080  -43.5139 O.2       7 UNK        -0.5000 
     37 CA          2.6832  -18.5919  -42.2993 C.3       7 UNK         0.1400 
     38 CB          4.0541  -18.2554  -42.9060 C.3       7 UNK        -0.1800 
     39 N           2.1401  -17.3999  -41.6509 N.am      7 UNK        -0.5000 
     40 C           1.4956  -17.3997  -40.4776 C.2       6 UNK         0.5000 
     41 O           1.3607  -18.3979  -39.7687 O.2       6 UNK        -0.5000 
     42 CA          0.8842  -16.0609  -40.0161 C.3       6 UNK         0.1400 
     43 CB          1.8778  -15.2952  -39.1293 C.3       6 UNK        -0.1800 
     44 N           0.4524  -15.1883  -41.1114 N.am      6 UNK        -0.5000 
     45 C          -0.5013  -15.4909  -42.0028 C.2       5 UNK         0.5000 
     46 O          -1.1079  -16.5615  -42.0224 O.2       5 UNK        -0.5000 
     47 CA         -0.8069  -14.4330  -43.0788 C.3       5 UNK         0.1400 
     48 CB         -1.7603  -13.3706  -42.5116 C.3       5 UNK        -0.1800 
     49 N           0.3531  -13.7633  -43.6839 N.am      5 UNK        -0.5000 
     50 C           1.4931  -14.3298  -44.1116 C.2       4 UNK         0.5000 
     51 O           1.8203  -15.4908  -43.8647 O.2       4 UNK        -0.5000 
     52 CA          2.4154  -13.4553  -44.9768 C.3       4 UNK         0.1400 
     53 CB          3.3439  -14.2863  -45.8833 C.3       4 UNK        -0.1800 
     54 N           1.6290  -12.5393  -45.8017 N.am      4 UNK        -0.5000 
     55 C           1.9647  -11.2720  -46.0716 C.2       3 UNK         0.5000 
     56 O           2.9816  -10.7287  -45.6380 O.2       3 UNK        -0.5000 
     57 CA          1.0164  -10.4654  -46.9821 C.3       3 UNK         0.1400 
     58 CB          1.5699  -10.4178  -48.4149 C.3       3 UNK        -0.1800 
     59 N          -0.3563  -10.9728  -47.0304 N.am      3 UNK        -0.5000 
     60 C          -1.2193  -10.9948  -46.0052 C.2       2 UNK         0.5000 
     61 O          -0.9445  -10.6033  -44.8710 O.2       2 UNK        -0.5000 
     62 CA         -2.6215  -11.5682  -46.2932 C.3       2 UNK         0.1400 
     63 CB         -3.6179  -10.4318  -46.5680 C.3       2 UNK        -0.1800 
     64 N          -2.6568  -12.5154  -47.4126 N.am      2 UNK        -0.5000 
     65 C          -2.0606  -13.7155  -47.4105 C.2       1 UNK         0.5000 
     66 O          -1.3774  -14.1304  -46.4729 O.2       1 UNK        -0.5000 
     67 C          -0.5931  -23.3443  -46.9789 C.2       11 UNK         0.5000 
     68 O          -0.5200  -24.2556  -47.8042 O.2       11 UNK        -0.5000 
     69 N          -1.7108  -22.6375  -46.7529 N.am      12 UNK        -0.5000 
     70 CA         -2.9985  -22.7961  -47.4291 C.3       12 UNK         0.1400 
     71 CB         -4.0124  -21.8061  -46.8374 C.3       12 UNK        -0.1800 
     72 C          -3.5775  -24.2179  -47.4109 C.2       12 UNK         0.5000 
     73 O          -4.2513  -24.5874  -48.3727 O.2       12 UNK        -0.5000 
     74 N          -3.2787  -24.9981  -46.3629 N.am      13 UNK        -0.5000 
     75 CA         -3.6951  -26.3955  -46.2246 C.3       13 UNK         0.1400 
     76 CB         -3.4005  -26.8685  -44.7933 C.3       13 UNK        -0.1800 
     77 C          -3.0367  -27.3390  -47.2522 C.2       13 UNK         0.5000 
     78 O          -3.6108  -28.3828  -47.5641 O.2       13 UNK        -0.5000 
     79 N          -1.8620  -26.9543  -47.7696 N.am      14 UNK        -0.5000 
     80 CA         -1.1291  -27.6727  -48.8130 C.3       14 UNK         0.1400 
     81 CB          0.3717  -27.6058  -48.4826 C.3       14 UNK        -0.1800 
     82 C          -1.3958  -27.0952  -50.2176 C.2       14 UNK         0.5000 
     83 O          -0.8509  -27.6185  -51.1910 O.2       14 UNK        -0.5000 
     84 N          -2.1831  -26.0108  -50.3025 N.am      15 UNK        -0.5000 
     85 CA         -2.4754  -25.1582  -51.4635 C.3       15 UNK         0.1400 
     86 CB         -3.1504  -25.9385  -52.6059 C.3       15 UNK        -0.1800 
     87 C          -1.2555  -24.3573  -51.9610 C.2       15 UNK         0.5000 
     88 O          -1.3560  -23.1389  -52.1041 O.2       15 UNK        -0.5000 
     89 N          -0.1277  -25.0505  -52.1672 N.am      16 UNK        -0.5000 
     90 CA          1.2201  -24.5446  -52.4278 C.3       16 UNK         0.1400 
     91 CB          1.8293  -24.0292  -51.1092 C.3       16 UNK        -0.1800 
     92 C           1.2808  -23.5159  -53.5748 C.2       16 UNK         0.5000 
     93 O           1.2699  -23.9117  -54.7413 O.2       16 UNK        -0.5000 
     94 N           1.3550  -22.2253  -53.2220 N.am      17 UNK        -0.5000 
     95 CA          1.4305  -21.0954  -54.1450 C.3       17 UNK         0.1400 
     96 CB          1.7341  -19.8211  -53.3403 C.3       17 UNK        -0.1800 
     97 C           0.1580  -20.8970  -54.9888 C.2       17 UNK         0.5000 
     98 O           0.2640  -20.4158  -56.1176 O.2       17 UNK        -0.5000 
     99 N          -1.0106  -21.2466  -54.4235 N.am      18 UNK        -0.5000 
    100 CA        -2.3531  -21.0926  -55.0042 C.3       18 UNK         0.1400 
    101 CB        -2.5475  -22.0797  -56.1729 C.3       18 UNK        -0.1800 
    102 C         -2.6996  -19.6314  -55.3855 C.2       18 UNK         0.5000 
    103 O         -3.4421  -19.3969  -56.3406 O.2       18 UNK        -0.5000 
    104 N         -2.1185  -18.6745  -54.6508 N.am      19 UNK        -0.5000 
    105 CA        -2.0755  -17.2565  -55.0048 C.3       19 UNK         0.1400 
    106 CB        -0.7165  -16.7011  -54.5491 C.3       19 UNK        -0.1800 
    107 C         -3.2172  -16.4175  -54.4035 C.2       19 UNK         0.5000 
    108 O         -3.4224  -15.2890  -54.8536 O.2       19 UNK        -0.5000 
    109 N         -3.9170  -16.9436  -53.3921 N.am      20 UNK        -0.5000 
    110 CA        -4.9437  -16.2269  -52.6362 C.3       20 UNK         0.1400 
    111 CB        -4.2711  -15.3830  -51.5359 C.3       20 UNK        -0.1800 
    112 C         -5.9968  -17.2205  -52.1181 C.2       20 UNK         0.5000 
    113 O         -6.4037  -18.1072  -52.8719 O.2       20 UNK        -0.5000 
    114 N         -6.4147  -17.0869  -50.8497 N.am      21 UNK        -0.5000 
    115 CA        -7.3926  -17.9378  -50.1563 C.3       21 UNK         0.1400 
    116 CB        -7.9502  -17.1640  -48.9485 C.3       21 UNK        -0.1800 
    117 C         -6.8159  -19.3178  -49.7616 C.2       21 UNK         0.5000 
    118 O         -6.9615  -19.7649  -48.6229 O.2       21 UNK        -0.5000 
    119 N         -6.1390  -19.9467  -50.7200 N.am      22 UNK        -0.5000 
    120 CA        -5.4608  -21.2372  -50.6253 C.3       22 UNK         0.1400 
    121 C         -6.4515  -22.4210  -50.8079 C.2       22 UNK         0.5000 
    122 N         -6.2022  -23.5709  -50.1963 N.am      22 UNK        -0.7600 
    123 O         -7.4342  -22.3247  -51.5403 O.2       22 UNK        -0.5000 
    124 C124       -4.3226  -21.3076  -51.6724 C.3       23 UNK        -0.0398 
    125 S125       -3.1348  -19.9136  -51.5906 S.3       23 UNK        -0.2404 
    126 C126       -2.1441  -20.4114  -50.1516 C.3       23 UNK        -0.0205 
    127 H127       -2.6207  -18.4225  -47.6800 H         1 UNK         0.0600 
    128 H128       -4.3277  -18.5106  -48.1180 H         1 UNK         0.0600 
    129 H129       -3.8579  -18.0806  -46.4692 H         1 UNK         0.0600 
    130 H130       -1.6074  -16.5426  -48.3506 H         1 UNK         0.3000 
    131 H131       -3.1346  -14.2139  -49.1842 H         1 UNK         0.0600 
    132 H132       -0.8832  -13.3284  -49.8666 H         1 UNK         0.0800 
    133 H133       -1.3654  -14.7975  -50.6412 H         1 UNK         0.0800 
    134 H134        0.2839  -16.0503  -51.4174 H         1 UNK         0.0800 
    135 H135        1.9090  -16.1671  -50.8310 H         1 UNK         0.0800 
    136 H136       -1.4517  -17.7640  -50.6601 H         1 UNK         0.1150 
    137 H137        0.1512  -21.5175  -49.3695 H         1 UNK         0.1150 
    138 H138        2.6766  -18.0607  -49.5528 H         1 UNK         0.1150 
    139 H139        3.4525  -20.8015  -49.7218 H         1 UNK         0.0800 
    140 H140        3.3061  -20.0599  -48.1473 H         1 UNK         0.0800 
    141 H141        0.8168  -21.0160  -46.9260 H         1 UNK         0.0800 
    142 H142        2.1723  -21.4778  -45.9313 H         1 UNK         0.0800 
    143 H143        1.2551  -23.9029  -46.0490 H         1 UNK         0.0600 
    144 H144        0.5530  -21.8054  -44.3476 H         1 UNK         0.3000 
    145 H145       -1.5776  -23.5162  -42.0606 H         1 UNK         0.0600 
    146 H146        0.1758  -22.5982  -40.5546 H         1 UNK         0.0600 
    147 H147        0.7557  -24.0224  -41.4042 H         1 UNK         0.0600 
    148 H148        1.2842  -22.4252  -41.9133 H         1 UNK         0.0600 
    149 H149       -0.5069  -20.8144  -42.5602 H         1 UNK         0.3000 
    150 H150       -3.5181  -19.6069  -43.9747 H         1 UNK         0.0600 
    151 H151       -4.0864  -19.5045  -41.5336 H         1 UNK         0.0600 
    152 H152       -3.5113  -17.9593  -42.1381 H         1 UNK         0.0600 
    153 H153       -2.4446  -18.9800  -41.1739 H         1 UNK         0.0600 
    154 H154       -1.1644  -18.2351  -43.1549 H         1 UNK         0.3000 
    155 H155        0.8713  -19.0701  -45.9797 H         1 UNK         0.0600 
    156 H156       -0.6809  -16.5016  -45.4806 H         1 UNK         0.0600 
    157 H157       -0.5122  -17.3739  -47.0016 H         1 UNK         0.0600 
    158 H158        0.8844  -16.5960  -46.2902 H         1 UNK         0.0600 
    159 H159        1.3752  -17.1886  -43.9987 H         1 UNK         0.3000 
    160 H160        2.8224  -19.3955  -41.5732 H         1 UNK         0.0600 
    161 H161        3.9856  -17.4536  -43.6427 H         1 UNK         0.0600 
    162 H162        4.4846  -19.1249  -43.4045 H         1 UNK         0.0600 
    163 H163        4.7575  -17.9409  -42.1349 H         1 UNK         0.0600 
    164 H164        2.1516  -16.5452  -42.1976 H         1 UNK         0.3000 
    165 H165        0.0027  -16.2964  -39.4162 H         1 UNK         0.0600 
    166 H166        1.4261  -14.3920  -38.7185 H         1 UNK         0.0600 
    167 H167        2.2017  -15.9071  -38.2863 H         1 UNK         0.0600 
    168 H168        2.7698  -15.0032  -39.6850 H         1 UNK         0.0600 
    169 H169        0.9153  -14.2949  -41.1914 H         1 UNK         0.3000 
    170 H170       -1.3297  -14.9460  -43.8866 H         1 UNK         0.0600 
    171 H171       -2.6492  -13.8314  -42.0786 H         1 UNK         0.0600 
    172 H172       -1.2827  -12.7778  -41.7306 H         1 UNK         0.0600 
    173 H173       -2.0986  -12.6865  -43.2880 H         1 UNK         0.0600 
    174 H174        0.2083  -12.7934  -43.9274 H         1 UNK         0.3000 
    175 H175        3.0335  -12.8904  -44.2763 H         1 UNK         0.0600 
    176 H176        2.7741  -14.8976  -46.5843 H         1 UNK         0.0600 
    177 H177        4.0070  -13.6440  -46.4629 H         1 UNK         0.0600 
    178 H178        3.9749  -14.9556  -45.2973 H         1 UNK         0.0600 
    179 H179        0.7695  -12.9141  -46.1848 H         1 UNK         0.3000 
    180 H180        0.9818   -9.4458  -46.5930 H         1 UNK         0.0600 
    181 H181        1.6043  -11.4111  -48.8650 H         1 UNK         0.0600 
    182 H182        2.5838  -10.0156  -48.4303 H         1 UNK         0.0600 
    183 H183        0.9599   -9.7791  -49.0539 H         1 UNK         0.0600 
    184 H184       -0.6755  -11.3178  -47.9228 H         1 UNK         0.3000 
    185 H185       -2.9511  -12.0983  -45.3982 H         1 UNK         0.0600 
    186 H186       -3.6396   -9.7223  -45.7396 H         1 UNK         0.0600 
    187 H187       -3.3567   -9.8759  -47.4694 H         1 UNK         0.0600 
    188 H188       -4.6309  -10.8156  -46.6905 H         1 UNK         0.0600 
    189 H189       -3.2050  -12.2368  -48.2138 H         1 UNK         0.3000 
    190 H190       -1.6485  -21.8477  -46.1150 H         1 UNK         0.3000 
    191 H191       -2.8447  -22.5472  -48.4764 H         1 UNK         0.0600 
    192 H192       -3.6965  -20.7761  -46.9933 H         1 UNK         0.0600 
    193 H193       -4.9946  -21.9150  -47.2992 H         1 UNK         0.0600 
    194 H194       -4.1387  -21.9572  -45.7652 H         1 UNK         0.0600 
    195 H195       -2.6821  -24.6282  -45.6337 H         1 UNK         0.3000 
    196 H196       -4.7746  -26.4402  -46.3830 H         1 UNK         0.0600 
    197 H197       -3.7635  -27.8849  -44.6359 H         1 UNK         0.0600 
    198 H198       -3.8893  -26.2308  -44.0566 H         1 UNK         0.0600 
    199 H199       -2.3306  -26.8669  -44.5823 H         1 UNK         0.0600 
    200 H200       -1.4650  -26.0640  -47.4864 H         1 UNK         0.3000 
    201 H201       -1.4264  -28.7231  -48.8290 H         1 UNK         0.0600 
    202 H202        0.9583  -28.1806  -49.2003 H         1 UNK         0.0600 
    203 H203        0.5766  -28.0176  -47.4943 H         1 UNK         0.0600 
    204 H204        0.7438  -26.5807  -48.5025 H         1 UNK         0.0600 
    205 H205       -2.5822  -25.6782  -49.4346 H         1 UNK         0.3000 
    206 H206       -3.2014  -24.4308  -51.1007 H         1 UNK         0.0600 
    207 H207       -4.0451  -26.4526  -52.2548 H         1 UNK         0.0600 
    208 H208       -3.4563  -25.2628  -53.4057 H         1 UNK         0.0600 
    209 H209       -2.4865  -26.6821  -53.0468 H         1 UNK         0.0600 
    210 H210       -0.1948  -26.0548  -52.0250 H         1 UNK         0.3000 
    211 H211        1.8152  -25.3998  -52.7513 H         1 UNK         0.0600 
    212 H212        1.2226  -23.2400  -50.6662 H         1 UNK         0.0600 
    213 H213        2.8358  -23.6366  -51.2593 H         1 UNK         0.0600 
    214 H214        1.9028  -24.8311  -50.3742 H         1 UNK         0.0600 
    215 H215        1.3193  -22.0004  -52.2387 H         1 UNK         0.3000 
    216 H216        2.2603  -21.2766  -54.8311 H         1 UNK         0.0600 
    217 H217        1.8411  -18.9580  -53.9985 H         1 UNK         0.0600 
    218 H218        2.6630  -19.9176  -52.7781 H         1 UNK         0.0600 
    219 H219        0.9368  -19.5949  -52.6314 H         1 UNK         0.0600 
    220 H220       -0.9841  -21.6785  -53.5040 H         1 UNK         0.3000 
    221 H221       -3.0538  -21.3814  -54.2242 H         1 UNK         0.0600 
    222 H222       -1.9161  -21.8269  -57.0251 H         1 UNK         0.0600 
    223 H223       -2.3086  -23.0991  -55.8692 H         1 UNK         0.0600 
    224 H224       -3.5816  -22.0794  -56.5192 H         1 UNK         0.0600 
    225 H225       -1.5504  -18.9624  -53.8675 H         1 UNK         0.3000 
    226 H226       -2.1335  -17.1521  -56.0904 H         1 UNK         0.0600 
    227 H227        0.1054  -17.2215  -55.0414 H         1 UNK         0.0600 
    228 H228       -0.6199  -15.6419  -54.7910 H         1 UNK         0.0600 
    229 H229       -0.5830  -16.8078  -53.4727 H         1 UNK         0.0600 
    230 H230       -3.7395  -17.8995  -53.1129 H         1 UNK         0.3000 
    231 H231       -5.4807  -15.5525  -53.3063 H         1 UNK         0.0600 
    232 H232       -3.7145  -16.0182  -50.8480 H         1 UNK         0.0600 
    233 H233       -4.9979  -14.8071  -50.9619 H         1 UNK         0.0600 
    234 H234       -3.5707  -14.6662  -51.9646 H         1 UNK         0.0600 
    235 H235       -5.9965  -16.3610  -50.2850 H         1 UNK         0.3000 
    236 H236       -8.2236  -18.1281  -50.8385 H         1 UNK         0.0600 
    237 H237       -8.3856  -16.2128  -49.2550 H         1 UNK         0.0600 
    238 H238       -8.7355  -17.7312  -48.4472 H         1 UNK         0.0600 
    239 H239       -7.1731  -16.9562  -48.2120 H         1 UNK         0.0600 
    240 H240       -6.1178  -19.5023  -51.6325 H         1 UNK         0.3000 
    241 H241       -5.0191  -21.3170  -49.6315 H         1 UNK         0.0600 
    242 H242       -6.8496  -24.3295  -50.3396 H         1 UNK         0.3800 
    243 H243       -5.4154  -23.7267  -49.5734 H         1 UNK         0.3800 
    244 H244       -3.7757  -22.2441  -51.5796 H         1 UNK         0.0800 
    245 H245       -4.7525  -21.3114  -52.6752 H         1 UNK         0.0800 
    246 H246       -2.7190  -20.2338  -49.2442 H         1 UNK         0.0800 
    247 H247       -1.9815  -21.4857  -50.2195 H         1 UNK         0.0800 
@<TRIPOS>BOND
     1    1    2 1    
     2    1  127 1    
     3    1  128 1    
     4    1  129 1    
     5    2    3 2    
     6    2    4 am   BACKBONE|DICT|INTERRES
     7    4    5 1    
     8    4  130 1    
     9    5    6 1    
    10    5   65 1    
    11    5  131 1    
    12    6    7 1    
    13    6  132 1    
    14    6  133 1    
    15    7    8 1    
    16    8    9 1    
    17    8  134 1    
    18    8  135 1    
    19    9   10 ar   
    20    9   14 ar   
    21   10   11 ar   
    22   10  136 1    
    23   11   12 ar   
    24   11  126 1    
    25   12   13 ar   
    26   12  137 1    
    27   13   14 ar   
    28   13   15 1    
    29   14  138 1    
    30   15   16 1    
    31   15  139 1    
    32   15  140 1    
    33   16   17 1    
    34   17   18 1    
    35   17  141 1    
    36   17  142 1    
    37   18   19 1    
    38   18   67 1    
    39   18  143 1    
    40   19   20 am   BACKBONE|DICT|INTERRES
    41   19  144 1    
    42   20   21 2    
    43   20   22 1    
    44   22   23 1    
    45   22   24 1    
    46   22  145 1    
    47   23  146 1    
    48   23  147 1    
    49   23  148 1    
    50   24   25 am   BACKBONE|DICT|INTERRES
    51   24  149 1    
    52   25   26 2    
    53   25   27 1    
    54   27   28 1    
    55   27   29 1    
    56   27  150 1    
    57   28  151 1    
    58   28  152 1    
    59   28  153 1    
    60   29   30 am   BACKBONE|DICT|INTERRES
    61   29  154 1    
    62   30   31 2    
    63   30   32 1    
    64   32   33 1    
    65   32   34 1    
    66   32  155 1    
    67   33  156 1    
    68   33  157 1    
    69   33  158 1    
    70   34   35 am   BACKBONE|DICT|INTERRES
    71   34  159 1    
    72   35   36 2    
    73   35   37 1    
    74   37   38 1    
    75   37   39 1    
    76   37  160 1    
    77   38  161 1    
    78   38  162 1    
    79   38  163 1    
    80   39   40 am   BACKBONE|DICT|INTERRES
    81   39  164 1    
    82   40   41 2    
    83   40   42 1    
    84   42   43 1    
    85   42   44 1    
    86   42  165 1    
    87   43  166 1    
    88   43  167 1    
    89   43  168 1    
    90   44   45 am   BACKBONE|DICT|INTERRES
    91   44  169 1    
    92   45   46 2    
    93   45   47 1    
    94   47   48 1    
    95   47   49 1    
    96   47  170 1    
    97   48  171 1    
    98   48  172 1    
    99   48  173 1    
   100   49   50 am   BACKBONE|DICT|INTERRES
   101   49  174 1    
   102   50   51 2    
   103   50   52 1    
   104   52   53 1    
   105   52   54 1    
   106   52  175 1    
   107   53  176 1    
   108   53  177 1    
   109   53  178 1    
   110   54   55 am   BACKBONE|DICT|INTERRES
   111   54  179 1    
   112   55   56 2    
   113   55   57 1    
   114   57   58 1    
   115   57   59 1    
   116   57  180 1    
   117   58  181 1    
   118   58  182 1    
   119   58  183 1    
   120   59   60 am   BACKBONE|DICT|INTERRES
   121   59  184 1    
   122   60   61 2    
   123   60   62 1    
   124   62   63 1    
   125   62   64 1    
   126   62  185 1    
   127   63  186 1    
   128   63  187 1    
   129   63  188 1    
   130   64   65 am   BACKBONE|DICT|INTERRES
   131   64  189 1    
   132   65   66 2    
   133   67   68 2    
   134   67   69 am   BACKBONE|DICT|INTERRES
   135   69   70 1    
   136   69  190 1    
   137   70   71 1    
   138   70   72 1    
   139   70  191 1    
   140   71  192 1    
   141   71  193 1    
   142   71  194 1    
   143   72   73 2    
   144   72   74 am   BACKBONE|DICT|INTERRES
   145   74   75 1    
   146   74  195 1    
   147   75   76 1    
   148   75   77 1    
   149   75  196 1    
   150   76  197 1    
   151   76  198 1    
   152   76  199 1    
   153   77   78 2    
   154   77   79 am   BACKBONE|DICT|INTERRES
   155   79   80 1    
   156   79  200 1    
   157   80   81 1    
   158   80   82 1    
   159   80  201 1    
   160   81  202 1    
   161   81  203 1    
   162   81  204 1    
   163   82   83 2    
   164   82   84 am   BACKBONE|DICT|INTERRES
   165   84   85 1    
   166   84  205 1    
   167   85   86 1    
   168   85   87 1    
   169   85  206 1    
   170   86  207 1    
   171   86  208 1    
   172   86  209 1    
   173   87   88 2    
   174   87   89 am   BACKBONE|DICT|INTERRES
   175   89   90 1    
   176   89  210 1    
   177   90   91 1    
   178   90   92 1    
   179   90  211 1    
   180   91  212 1    
   181   91  213 1    
   182   91  214 1    
   183   92   93 2    
   184   92   94 am   BACKBONE|DICT|INTERRES
   185   94   95 1    
   186   94  215 1    
   187   95   96 1    
   188   95   97 1    
   189   95  216 1    
   190   96  217 1    
   191   96  218 1    
   192   96  219 1    
   193   97   98 2    
   194   97   99 am   BACKBONE|DICT|INTERRES
   195   99  100 1    
   196   99  220 1    
   197  100  101 1    
   198  100  102 1    
   199  100  221 1    
   200  101  222 1    
   201  101  223 1    
   202  101  224 1    
   203  102  103 2    
   204  102  104 am   BACKBONE|DICT|INTERRES
   205  104  105 1    
   206  104  225 1    
   207  105  106 1    
   208  105  107 1    
   209  105  226 1    
   210  106  227 1    
   211  106  228 1    
   212  106  229 1    
   213  107  108 2    
   214  107  109 am   BACKBONE|DICT|INTERRES
   215  109  110 1    
   216  109  230 1    
   217  110  111 1    
   218  110  112 1    
   219  110  231 1    
   220  111  232 1    
   221  111  233 1    
   222  111  234 1    
   223  112  113 2    
   224  112  114 am   BACKBONE|DICT|INTERRES
   225  114  115 1    
   226  114  235 1    
   227  115  116 1    
   228  115  117 1    
   229  115  236 1    
   230  116  237 1    
   231  116  238 1    
   232  116  239 1    
   233  117  118 2    
   234  117  119 am   BACKBONE|DICT|INTERRES
   235  119  120 1    
   236  119  240 1    
   237  120  121 1    
   238  120  124 1    
   239  120  241 1    
   240  121  122 am   BACKBONE|DICT|INTERRES
   241  121  123 2    
   242  122  242 1    
   243  122  243 1    
   244  124  125 1    
   245  124  244 1    
   246  124  245 1    
   247  125  126 1    
   248  126  246 1    
   249  126  247 1    
@<TRIPOS>SUBSTRUCTURE
     1 UNK         1 GROUP             0       ****    0 ROOT    
