@<TRIPOS>MOLECULE
3R540
247   249    1
SMALL
USER_CHARGES


@<TRIPOS>ATOM
      1 CA         -5.2263  -11.5981  -48.9407 C.3       0 UNK        -0.1800 
      2 C          -3.7658  -11.2859  -49.2361 C.2       0 UNK         0.5000 
      3 O          -3.4535  -10.1809  -49.6813 O.2       0 UNK        -0.5000 
      4 N          -2.8738  -12.2553  -48.9987 N.am      1 UNK        -0.5000 
      5 CA         -1.4238  -12.1139  -49.1543 C.3       1 UNK         0.1400 
      6 C6         -0.7287  -13.4981  -49.1716 C.3       23 UNK        -0.0398 
      7 S7          0.9689  -13.4257  -49.8435 S.3       23 UNK        -0.2404 
      8 C8          0.8267  -14.4312  -51.3564 C.3       23 UNK        -0.0205 
      9 C9          0.5755  -15.9017  -51.0511 C.ar      23 UNK        -0.0193 
     10 C10        -0.5852  -16.5325  -51.5103 C.ar      23 UNK        -0.1150 
     11 C11        -0.8143  -17.8852  -51.2392 C.ar      23 UNK        -0.0193 
     12 C12         0.1213  -18.6025  -50.4889 C.ar      23 UNK        -0.1150 
     13 C13         1.2771  -17.9785  -50.0100 C.ar      23 UNK        -0.0193 
     14 C14         1.5071  -16.6342  -50.3096 C.ar      23 UNK        -0.1150 
     15 C15         2.2621  -18.7472  -49.1420 C.3       23 UNK        -0.0205 
     16 S16         2.1342  -18.2934  -47.3775 S.3       23 UNK        -0.2404 
     17 C17         0.3640  -18.5747  -47.0270 C.3       23 UNK        -0.0398 
     18 CA          0.0122  -20.0748  -46.9137 C.3       11 UNK         0.1400 
     19 N           0.7047  -20.7566  -45.8175 N.am      11 UNK        -0.5000 
     20 C           0.8601  -22.0842  -45.7515 C.2       10 UNK         0.5000 
     21 O           0.4132  -22.8663  -46.5917 O.2       10 UNK        -0.5000 
     22 CA          1.6288  -22.6263  -44.5366 C.3       10 UNK         0.1400 
     23 CB          3.1181  -22.2554  -44.6217 C.3       10 UNK        -0.1800 
     24 N           1.0919  -22.1802  -43.2503 N.am      10 UNK        -0.5000 
     25 C          -0.1136  -22.5120  -42.7663 C.2       9 UNK         0.5000 
     26 O          -0.9791  -23.0869  -43.4238 O.2       9 UNK        -0.5000 
     27 CA         -0.3998  -22.1423  -41.3029 C.3       9 UNK         0.1400 
     28 CB          0.5526  -22.8777  -40.3452 C.3       9 UNK        -0.1800 
     29 N          -0.2568  -20.7040  -41.1189 N.am      9 UNK        -0.5000 
     30 C          -1.2718  -19.8484  -40.9394 C.2       8 UNK         0.5000 
     31 O          -2.4383  -20.1970  -40.7566 O.2       8 UNK        -0.5000 
     32 CA         -0.9404  -18.3418  -40.9868 C.3       8 UNK         0.1400 
     33 CB         -0.9506  -17.7418  -39.5730 C.3       8 UNK        -0.1800 
     34 N           0.3422  -18.0398  -41.6285 N.am      8 UNK        -0.5000 
     35 C           0.6202  -18.2735  -42.9204 C.2       7 UNK         0.5000 
     36 O          -0.1910  -18.7496  -43.7142 O.2       7 UNK        -0.5000 
     37 CA          2.0603  -18.0007  -43.3958 C.3       7 UNK         0.1400 
     38 CB          2.1595  -16.5955  -43.9997 C.3       7 UNK        -0.1800 
     39 N           3.0665  -18.1450  -42.3422 N.am      7 UNK        -0.5000 
     40 C           3.2974  -19.2653  -41.6402 C.2       6 UNK         0.5000 
     41 O           2.7041  -20.3265  -41.8398 O.2       6 UNK        -0.5000 
     42 CA          4.3165  -19.1792  -40.4872 C.3       6 UNK         0.1400 
     43 CB          5.6801  -19.7194  -40.9416 C.3       6 UNK        -0.1800 
     44 N           4.4939  -17.8321  -39.9344 N.am      6 UNK        -0.5000 
     45 C           3.5276  -17.0730  -39.3980 C.2       5 UNK         0.5000 
     46 O           2.3485  -17.4227  -39.3256 O.2       5 UNK        -0.5000 
     47 CA          3.9186  -15.6714  -38.8900 C.3       5 UNK         0.1400 
     48 CB          5.4419  -15.4132  -38.8308 C.3       5 UNK        -0.1800 
     49 N           3.2420  -14.6237  -39.6611 N.am      5 UNK        -0.5000 
     50 C           3.3528  -14.3887  -40.9766 C.2       4 UNK         0.5000 
     51 O           4.0712  -15.0452  -41.7368 O.2       4 UNK        -0.5000 
     52 CA          2.5129  -13.2245  -41.5298 C.3       4 UNK         0.1400 
     53 CB          2.7973  -11.9026  -40.7874 C.3       4 UNK        -0.1800 
     54 N           2.7871  -13.0486  -42.9543 N.am      4 UNK        -0.5000 
     55 C           1.9465  -12.5080  -43.8411 C.2       3 UNK         0.5000 
     56 O           0.8013  -12.1409  -43.5623 O.2       3 UNK        -0.5000 
     57 CA          2.4779  -12.3415  -45.2739 C.3       3 UNK         0.1400 
     58 CB          2.4789  -13.6749  -46.0400 C.3       3 UNK        -0.1800 
     59 N           1.6350  -11.3889  -45.9883 N.am      3 UNK        -0.5000 
     60 C           2.0565  -10.4462  -46.8351 C.2       2 UNK         0.5000 
     61 O           3.2400  -10.2751  -47.1344 O.2       2 UNK        -0.5000 
     62 CA          0.9543   -9.5838  -47.4840 C.3       2 UNK         0.1400 
     63 CB          1.5182   -8.3752  -48.2529 C.3       2 UNK        -0.1800 
     64 N           0.1579  -10.3953  -48.4035 N.am      2 UNK        -0.5000 
     65 C          -0.8416  -11.2102  -48.0455 C.2       1 UNK         0.5000 
     66 O          -1.2698  -11.2986  -46.8912 O.2       1 UNK        -0.5000 
     67 C          -1.5080  -20.2859  -46.8327 C.2       11 UNK         0.5000 
     68 O          -2.1493  -20.4037  -47.8753 O.2       11 UNK        -0.5000 
     69 N          -2.0469  -20.3861  -45.6092 N.am      12 UNK        -0.5000 
     70 CA         -3.4413  -20.7410  -45.3471 C.3       12 UNK         0.1400 
     71 CB         -3.7289  -20.6222  -43.8443 C.3       12 UNK        -0.1800 
     72 C          -3.7959  -22.1454  -45.8709 C.2       12 UNK         0.5000 
     73 O          -4.8120  -22.2988  -46.5488 O.2       12 UNK        -0.5000 
     74 N          -2.9291  -23.1317  -45.5957 N.am      13 UNK        -0.5000 
     75 CA         -3.0450  -24.4968  -46.1089 C.3       13 UNK         0.1400 
     76 CB         -2.0086  -25.4043  -45.4304 C.3       13 UNK        -0.1800 
     77 C          -2.9099  -24.5638  -47.6392 C.2       13 UNK         0.5000 
     78 O          -3.7000  -25.2545  -48.2809 O.2       13 UNK        -0.5000 
     79 N          -1.9463  -23.8190  -48.2008 N.am      14 UNK        -0.5000 
     80 CA         -1.7318  -23.7023  -49.6446 C.3       14 UNK         0.1400 
     81 CB         -0.4569  -22.8931  -49.9168 C.3       14 UNK        -0.1800 
     82 C          -2.9378  -23.0870  -50.3772 C.2       14 UNK         0.5000 
     83 O          -3.3684  -23.6308  -51.3939 O.2       14 UNK        -0.5000 
     84 N          -3.4879  -21.9978  -49.8223 N.am      15 UNK        -0.5000 
     85 CA         -4.6908  -21.3280  -50.3168 C.3       15 UNK         0.1400 
     86 CB         -4.9090  -20.0214  -49.5387 C.3       15 UNK        -0.1800 
     87 C          -5.9475  -22.2126  -50.2357 C.2       15 UNK         0.5000 
     88 O          -6.7874  -22.1499  -51.1308 O.2       15 UNK        -0.5000 
     89 N          -6.0587  -23.0299  -49.1804 N.am      16 UNK        -0.5000 
     90 CA         -7.1414  -23.9983  -49.0151 C.3       16 UNK         0.1400 
     91 CB         -7.1632  -24.5075  -47.5656 C.3       16 UNK        -0.1800 
     92 C          -7.0365  -25.1707  -50.0084 C.2       16 UNK         0.5000 
     93 O          -8.0476  -25.5650  -50.5904 O.2       16 UNK        -0.5000 
     94 N          -5.8216  -25.7085  -50.1772 N.am      17 UNK        -0.5000 
     95 CA         -5.5436  -26.8785  -51.0068 C.3       17 UNK         0.1400 
     96 CB         -4.1849  -27.4748  -50.6058 C.3       17 UNK        -0.1800 
     97 C          -5.5756  -26.5843  -52.5159 C.2       17 UNK         0.5000 
     98 O          -6.1963  -27.3416  -53.2634 O.2       17 UNK        -0.5000 
     99 N          -4.8844  -25.5192  -52.9409 N.am      18 UNK        -0.5000 
    100 CA        -4.6222  -25.2193  -54.3513 C.3       18 UNK         0.1400 
    101 CB        -3.1230  -24.9280  -54.5141 C.3       18 UNK        -0.1800 
    102 C         -5.4609  -24.0507  -54.8960 C.2       18 UNK         0.5000 
    103 O         -5.2894  -23.6898  -56.0615 O.2       18 UNK        -0.5000 
    104 N         -6.3360  -23.4665  -54.0655 N.am      19 UNK        -0.5000 
    105 CA        -7.1533  -22.2866  -54.3650 C.3       19 UNK         0.1400 
    106 CB        -8.2097  -22.6108  -55.4477 C.3       19 UNK        -0.1800 
    107 C         -6.2679  -21.0601  -54.6823 C.2       19 UNK         0.5000 
    108 O         -5.2535  -20.8520  -54.0133 O.2       19 UNK        -0.5000 
    109 N         -6.6470  -20.2794  -55.7016 N.am      20 UNK        -0.5000 
    110 CA        -5.9483  -19.0716  -56.1467 C.3       20 UNK         0.1400 
    111 CB        -6.8616  -18.3097  -57.1204 C.3       20 UNK        -0.1800 
    112 C         -4.5674  -19.3264  -56.7876 C.2       20 UNK         0.5000 
    113 O         -3.8032  -18.3738  -56.9479 O.2       20 UNK        -0.5000 
    114 N         -4.2669  -20.5810  -57.1574 N.am      21 UNK        -0.5000 
    115 CA        -2.9741  -20.9766  -57.7199 C.3       21 UNK         0.1400 
    116 CB        -3.1123  -22.3349  -58.4240 C.3       21 UNK        -0.1800 
    117 C         -1.8541  -21.0252  -56.6631 C.2       21 UNK         0.5000 
    118 O         -0.6962  -20.7892  -57.0090 O.2       21 UNK        -0.5000 
    119 N         -2.2166  -21.3259  -55.4067 N.am      22 UNK        -0.5000 
    120 CA        -1.3340  -21.3615  -54.2231 C.3       22 UNK         0.1400 
    121 C         -0.1976  -22.4338  -54.2603 C.2       22 UNK         0.5000 
    122 N         -0.2105  -23.3940  -55.1761 N.am      22 UNK        -0.7600 
    123 O          0.7041  -22.4148  -53.4279 O.2       22 UNK        -0.5000 
    124 C124       -0.7876  -19.9567  -53.8411 C.3       23 UNK        -0.0398 
    125 S125       -2.1107  -18.7307  -53.5512 S.3       23 UNK        -0.2404 
    126 C126       -2.0815  -18.5662  -51.7384 C.3       23 UNK        -0.0205 
    127 H127       -5.3563  -12.6131  -48.5642 H         1 UNK         0.0600 
    128 H128       -5.8235  -11.4925  -49.8464 H         1 UNK         0.0600 
    129 H129       -5.6136  -10.9061  -48.1928 H         1 UNK         0.0600 
    130 H130       -3.1902  -13.1272  -48.5998 H         1 UNK         0.3000 
    131 H131       -1.2508  -11.6337  -50.1203 H         1 UNK         0.0600 
    132 H132       -0.6934  -13.9366  -48.1724 H         1 UNK         0.0800 
    133 H133       -1.3121  -14.1928  -49.7768 H         1 UNK         0.0800 
    134 H134        1.7537  -14.3444  -51.9247 H         1 UNK         0.0800 
    135 H135        0.0386  -14.0197  -51.9890 H         1 UNK         0.0800 
    136 H136       -1.3112  -15.9756  -52.0860 H         1 UNK         0.1150 
    137 H137       -0.0602  -19.6429  -50.2614 H         1 UNK         0.1150 
    138 H138        2.3996  -16.1485  -49.9402 H         1 UNK         0.1150 
    139 H139        2.1168  -19.8226  -49.2526 H         1 UNK         0.0800 
    140 H140        3.2781  -18.5446  -49.4837 H         1 UNK         0.0800 
    141 H141       -0.2339  -18.0900  -47.7992 H         1 UNK         0.0800 
    142 H142        0.1111  -18.0475  -46.1091 H         1 UNK         0.0800 
    143 H143        0.3331  -20.5488  -47.8421 H         1 UNK         0.0600 
    144 H144        1.0303  -20.1793  -45.0571 H         1 UNK         0.3000 
    145 H145        1.5533  -23.7154  -44.5639 H         1 UNK         0.0600 
    146 H146        3.6863  -22.7244  -43.8181 H         1 UNK         0.0600 
    147 H147        3.5517  -22.5903  -45.5648 H         1 UNK         0.0600 
    148 H148        3.2731  -21.1780  -44.5527 H         1 UNK         0.0600 
    149 H149        1.7310  -21.6533  -42.6597 H         1 UNK         0.3000 
    150 H150       -1.4180  -22.4641  -41.0739 H         1 UNK         0.0600 
    151 H151        0.4934  -23.9573  -40.4887 H         1 UNK         0.0600 
    152 H152        0.2941  -22.6735  -39.3061 H         1 UNK         0.0600 
    153 H153        1.5920  -22.5818  -40.4921 H         1 UNK         0.0600 
    154 H154        0.6693  -20.3251  -41.2747 H         1 UNK         0.3000 
    155 H155       -1.7252  -17.8556  -41.5699 H         1 UNK         0.0600 
    156 H156       -0.2099  -18.2185  -38.9300 H         1 UNK         0.0600 
    157 H157       -1.9252  -17.8721  -39.1009 H         1 UNK         0.0600 
    158 H158       -0.7395  -16.6725  -39.5939 H         1 UNK         0.0600 
    159 H159        1.0781  -17.6990  -41.0195 H         1 UNK         0.3000 
    160 H160        2.2980  -18.7260  -44.1756 H         1 UNK         0.0600 
    161 H161        1.4887  -16.4842  -44.8517 H         1 UNK         0.0600 
    162 H162        3.1707  -16.3930  -44.3519 H         1 UNK         0.0600 
    163 H163        1.8921  -15.8273  -43.2746 H         1 UNK         0.0600 
    164 H164        3.5870  -17.3110  -42.0994 H         1 UNK         0.3000 
    165 H165        3.9451  -19.8175  -39.6831 H         1 UNK         0.0600 
    166 H166        6.3858  -19.7599  -40.1117 H         1 UNK         0.0600 
    167 H167        5.5877  -20.7321  -41.3370 H         1 UNK         0.0600 
    168 H168        6.1168  -19.0995  -41.7256 H         1 UNK         0.0600 
    169 H169        5.4263  -17.4478  -39.9820 H         1 UNK         0.3000 
    170 H170        3.5358  -15.6031  -37.8707 H         1 UNK         0.0600 
    171 H171        5.9412  -16.1493  -38.1993 H         1 UNK         0.0600 
    172 H172        5.9105  -15.4451  -39.8149 H         1 UNK         0.0600 
    173 H173        5.6507  -14.4330  -38.4020 H         1 UNK         0.0600 
    174 H174        2.5986  -14.0542  -39.1300 H         1 UNK         0.3000 
    175 H175        1.4635  -13.4957  -41.3965 H         1 UNK         0.0600 
    176 H176        2.5467  -11.9731  -39.7288 H         1 UNK         0.0600 
    177 H177        2.2066  -11.0830  -41.1971 H         1 UNK         0.0600 
    178 H178        3.8491  -11.6228  -40.8598 H         1 UNK         0.0600 
    179 H179        3.6834  -13.4118  -43.2535 H         1 UNK         0.3000 
    180 H180        3.4994  -11.9604  -45.2101 H         1 UNK         0.0600 
    181 H181        1.4907  -14.1367  -46.0493 H         1 UNK         0.0600 
    182 H182        3.1756  -14.3815  -45.5908 H         1 UNK         0.0600 
    183 H183        2.7895  -13.5352  -47.0758 H         1 UNK         0.0600 
    184 H184        0.6452  -11.4473  -45.7728 H         1 UNK         0.3000 
    185 H185        0.3149   -9.2014  -46.6853 H         1 UNK         0.0600 
    186 H186        2.1162   -7.7406  -47.5976 H         1 UNK         0.0600 
    187 H187        2.1543   -8.6835  -49.0835 H         1 UNK         0.0600 
    188 H188        0.7159   -7.7578  -48.6575 H         1 UNK         0.0600 
    189 H189        0.4813  -10.4196  -49.3600 H         1 UNK         0.3000 
    190 H190       -1.4493  -20.2312  -44.8068 H         1 UNK         0.3000 
    191 H191       -4.0719  -20.0208  -45.8725 H         1 UNK         0.0600 
    192 H192       -4.7749  -20.8426  -43.6285 H         1 UNK         0.0600 
    193 H193       -3.1213  -21.3144  -43.2609 H         1 UNK         0.0600 
    194 H194       -3.5268  -19.6140  -43.4821 H         1 UNK         0.0600 
    195 H195       -2.1342  -22.9435  -44.9915 H         1 UNK         0.3000 
    196 H196       -4.0386  -24.8672  -45.8486 H         1 UNK         0.0600 
    197 H197       -2.0774  -26.4260  -45.8058 H         1 UNK         0.0600 
    198 H198       -2.1667  -25.4433  -44.3526 H         1 UNK         0.0600 
    199 H199       -0.9902  -25.0562  -45.6062 H         1 UNK         0.0600 
    200 H200       -1.3037  -23.3151  -47.5984 H         1 UNK         0.3000 
    201 H201       -1.5835  -24.7099  -50.0385 H         1 UNK         0.0600 
    202 H202        0.4107  -23.3447  -49.4355 H         1 UNK         0.0600 
    203 H203       -0.5466  -21.8699  -49.5569 H         1 UNK         0.0600 
    204 H204       -0.2493  -22.8463  -50.9853 H         1 UNK         0.0600 
    205 H205       -3.0504  -21.5870  -49.0007 H         1 UNK         0.3000 
    206 H206       -4.5245  -21.0789  -51.3669 H         1 UNK         0.0600 
    207 H207       -5.0731  -20.2100  -48.4771 H         1 UNK         0.0600 
    208 H208       -4.0508  -19.3565  -49.6272 H         1 UNK         0.0600 
    209 H209       -5.7786  -19.4826  -49.9167 H         1 UNK         0.0600 
    210 H210       -5.3638  -22.9831  -48.4433 H         1 UNK         0.3000 
    211 H211       -8.0879  -23.4866  -49.2028 H         1 UNK         0.0600 
    212 H212       -6.2335  -25.0101  -47.2985 H         1 UNK         0.0600 
    213 H213       -7.9764  -25.2182  -47.4136 H         1 UNK         0.0600 
    214 H214       -7.3121  -23.6873  -46.8631 H         1 UNK         0.0600 
    215 H215       -5.0471  -25.3535  -49.6220 H         1 UNK         0.3000 
    216 H216       -6.3085  -27.6303  -50.8004 H         1 UNK         0.0600 
    217 H217       -3.9499  -28.3552  -51.2052 H         1 UNK         0.0600 
    218 H218       -4.1845  -27.7838  -49.5604 H         1 UNK         0.0600 
    219 H219       -3.3743  -26.7573  -50.7413 H         1 UNK         0.0600 
    220 H220       -4.4092  -24.9240  -52.2645 H         1 UNK         0.3000 
    221 H221       -4.8554  -26.0859  -54.9730 H         1 UNK         0.0600 
    222 H222       -2.8633  -24.7766  -55.5622 H         1 UNK         0.0600 
    223 H223       -2.5158  -25.7554  -54.1466 H         1 UNK         0.0600 
    224 H224       -2.8314  -24.0312  -53.9688 H         1 UNK         0.0600 
    225 H225       -6.3696  -23.7903  -53.1089 H         1 UNK         0.3000 
    226 H226       -7.7014  -22.0402  -53.4573 H         1 UNK         0.0600 
    227 H227       -8.9314  -21.7998  -55.5516 H         1 UNK         0.0600 
    228 H228       -7.7614  -22.7858  -56.4262 H         1 UNK         0.0600 
    229 H229       -8.7758  -23.5036  -55.1815 H         1 UNK         0.0600 
    230 H230       -7.4793  -20.5306  -56.2150 H         1 UNK         0.3000 
    231 H231       -5.7812  -18.4403  -55.2714 H         1 UNK         0.0600 
    232 H232       -7.8100  -18.0484  -56.6507 H         1 UNK         0.0600 
    233 H233       -7.0779  -18.8990  -58.0124 H         1 UNK         0.0600 
    234 H234       -6.3967  -17.3786  -57.4474 H         1 UNK         0.0600 
    235 H235       -4.9375  -21.3179  -56.9858 H         1 UNK         0.3000 
    236 H236       -2.6874  -20.2388  -58.4726 H         1 UNK         0.0600 
    237 H237       -3.8971  -22.3116  -59.1801 H         1 UNK         0.0600 
    238 H238       -2.1838  -22.6063  -58.9279 H         1 UNK         0.0600 
    239 H239       -3.3454  -23.1342  -57.7210 H         1 UNK         0.0600 
    240 H240       -3.2000  -21.4652  -55.2168 H         1 UNK         0.3000 
    241 H241       -1.9771  -21.6837  -53.4031 H         1 UNK         0.0600 
    242 H242        0.5269  -24.0804  -55.1816 H         1 UNK         0.3800 
    243 H243       -0.9261  -23.4180  -55.8828 H         1 UNK         0.3800 
    244 H244       -0.1368  -19.5747  -54.6285 H         1 UNK         0.0800 
    245 H245       -0.1642  -20.0181  -52.9489 H         1 UNK         0.0800 
    246 H246       -2.1996  -19.5529  -51.2875 H         1 UNK         0.0800 
    247 H247       -2.9462  -17.9797  -51.4259 H         1 UNK         0.0800 
@<TRIPOS>BOND
     1    1    2 1    
     2    1  127 1    
     3    1  128 1    
     4    1  129 1    
     5    2    3 2    
     6    2    4 am   BACKBONE|DICT|INTERRES
     7    4    5 1    
     8    4  130 1    
     9    5    6 1    
    10    5   65 1    
    11    5  131 1    
    12    6    7 1    
    13    6  132 1    
    14    6  133 1    
    15    7    8 1    
    16    8    9 1    
    17    8  134 1    
    18    8  135 1    
    19    9   10 ar   
    20    9   14 ar   
    21   10   11 ar   
    22   10  136 1    
    23   11   12 ar   
    24   11  126 1    
    25   12   13 ar   
    26   12  137 1    
    27   13   14 ar   
    28   13   15 1    
    29   14  138 1    
    30   15   16 1    
    31   15  139 1    
    32   15  140 1    
    33   16   17 1    
    34   17   18 1    
    35   17  141 1    
    36   17  142 1    
    37   18   19 1    
    38   18   67 1    
    39   18  143 1    
    40   19   20 am   BACKBONE|DICT|INTERRES
    41   19  144 1    
    42   20   21 2    
    43   20   22 1    
    44   22   23 1    
    45   22   24 1    
    46   22  145 1    
    47   23  146 1    
    48   23  147 1    
    49   23  148 1    
    50   24   25 am   BACKBONE|DICT|INTERRES
    51   24  149 1    
    52   25   26 2    
    53   25   27 1    
    54   27   28 1    
    55   27   29 1    
    56   27  150 1    
    57   28  151 1    
    58   28  152 1    
    59   28  153 1    
    60   29   30 am   BACKBONE|DICT|INTERRES
    61   29  154 1    
    62   30   31 2    
    63   30   32 1    
    64   32   33 1    
    65   32   34 1    
    66   32  155 1    
    67   33  156 1    
    68   33  157 1    
    69   33  158 1    
    70   34   35 am   BACKBONE|DICT|INTERRES
    71   34  159 1    
    72   35   36 2    
    73   35   37 1    
    74   37   38 1    
    75   37   39 1    
    76   37  160 1    
    77   38  161 1    
    78   38  162 1    
    79   38  163 1    
    80   39   40 am   BACKBONE|DICT|INTERRES
    81   39  164 1    
    82   40   41 2    
    83   40   42 1    
    84   42   43 1    
    85   42   44 1    
    86   42  165 1    
    87   43  166 1    
    88   43  167 1    
    89   43  168 1    
    90   44   45 am   BACKBONE|DICT|INTERRES
    91   44  169 1    
    92   45   46 2    
    93   45   47 1    
    94   47   48 1    
    95   47   49 1    
    96   47  170 1    
    97   48  171 1    
    98   48  172 1    
    99   48  173 1    
   100   49   50 am   BACKBONE|DICT|INTERRES
   101   49  174 1    
   102   50   51 2    
   103   50   52 1    
   104   52   53 1    
   105   52   54 1    
   106   52  175 1    
   107   53  176 1    
   108   53  177 1    
   109   53  178 1    
   110   54   55 am   BACKBONE|DICT|INTERRES
   111   54  179 1    
   112   55   56 2    
   113   55   57 1    
   114   57   58 1    
   115   57   59 1    
   116   57  180 1    
   117   58  181 1    
   118   58  182 1    
   119   58  183 1    
   120   59   60 am   BACKBONE|DICT|INTERRES
   121   59  184 1    
   122   60   61 2    
   123   60   62 1    
   124   62   63 1    
   125   62   64 1    
   126   62  185 1    
   127   63  186 1    
   128   63  187 1    
   129   63  188 1    
   130   64   65 am   BACKBONE|DICT|INTERRES
   131   64  189 1    
   132   65   66 2    
   133   67   68 2    
   134   67   69 am   BACKBONE|DICT|INTERRES
   135   69   70 1    
   136   69  190 1    
   137   70   71 1    
   138   70   72 1    
   139   70  191 1    
   140   71  192 1    
   141   71  193 1    
   142   71  194 1    
   143   72   73 2    
   144   72   74 am   BACKBONE|DICT|INTERRES
   145   74   75 1    
   146   74  195 1    
   147   75   76 1    
   148   75   77 1    
   149   75  196 1    
   150   76  197 1    
   151   76  198 1    
   152   76  199 1    
   153   77   78 2    
   154   77   79 am   BACKBONE|DICT|INTERRES
   155   79   80 1    
   156   79  200 1    
   157   80   81 1    
   158   80   82 1    
   159   80  201 1    
   160   81  202 1    
   161   81  203 1    
   162   81  204 1    
   163   82   83 2    
   164   82   84 am   BACKBONE|DICT|INTERRES
   165   84   85 1    
   166   84  205 1    
   167   85   86 1    
   168   85   87 1    
   169   85  206 1    
   170   86  207 1    
   171   86  208 1    
   172   86  209 1    
   173   87   88 2    
   174   87   89 am   BACKBONE|DICT|INTERRES
   175   89   90 1    
   176   89  210 1    
   177   90   91 1    
   178   90   92 1    
   179   90  211 1    
   180   91  212 1    
   181   91  213 1    
   182   91  214 1    
   183   92   93 2    
   184   92   94 am   BACKBONE|DICT|INTERRES
   185   94   95 1    
   186   94  215 1    
   187   95   96 1    
   188   95   97 1    
   189   95  216 1    
   190   96  217 1    
   191   96  218 1    
   192   96  219 1    
   193   97   98 2    
   194   97   99 am   BACKBONE|DICT|INTERRES
   195   99  100 1    
   196   99  220 1    
   197  100  101 1    
   198  100  102 1    
   199  100  221 1    
   200  101  222 1    
   201  101  223 1    
   202  101  224 1    
   203  102  103 2    
   204  102  104 am   BACKBONE|DICT|INTERRES
   205  104  105 1    
   206  104  225 1    
   207  105  106 1    
   208  105  107 1    
   209  105  226 1    
   210  106  227 1    
   211  106  228 1    
   212  106  229 1    
   213  107  108 2    
   214  107  109 am   BACKBONE|DICT|INTERRES
   215  109  110 1    
   216  109  230 1    
   217  110  111 1    
   218  110  112 1    
   219  110  231 1    
   220  111  232 1    
   221  111  233 1    
   222  111  234 1    
   223  112  113 2    
   224  112  114 am   BACKBONE|DICT|INTERRES
   225  114  115 1    
   226  114  235 1    
   227  115  116 1    
   228  115  117 1    
   229  115  236 1    
   230  116  237 1    
   231  116  238 1    
   232  116  239 1    
   233  117  118 2    
   234  117  119 am   BACKBONE|DICT|INTERRES
   235  119  120 1    
   236  119  240 1    
   237  120  121 1    
   238  120  124 1    
   239  120  241 1    
   240  121  122 am   BACKBONE|DICT|INTERRES
   241  121  123 2    
   242  122  242 1    
   243  122  243 1    
   244  124  125 1    
   245  124  244 1    
   246  124  245 1    
   247  125  126 1    
   248  126  246 1    
   249  126  247 1    
@<TRIPOS>SUBSTRUCTURE
     1 UNK         1 GROUP             0       ****    0 ROOT    
