@<TRIPOS>MOLECULE
3R540
247   249    1
SMALL
USER_CHARGES


@<TRIPOS>ATOM
      1 CA         -6.2084  -15.2818  -49.3754 C.3       0 UNK        -0.1800 
      2 C          -4.8981  -14.9230  -48.6878 C.2       0 UNK         0.5000 
      3 O          -4.8755  -14.0142  -47.8574 O.2       0 UNK        -0.5000 
      4 N          -3.8040  -15.6213  -49.0245 N.am      1 UNK        -0.5000 
      5 CA         -2.4494  -15.3116  -48.5429 C.3       1 UNK         0.1400 
      6 C6         -1.3347  -15.8785  -49.4540 C.3       23 UNK        -0.0398 
      7 S7         -1.3149  -17.6963  -49.6353 S.3       23 UNK        -0.2404 
      8 C8          0.4793  -18.0126  -49.6944 C.3       23 UNK        -0.0205 
      9 C9          0.8244  -19.1824  -50.6024 C.ar      23 UNK        -0.0193 
     10 C10         1.3176  -18.9524  -51.8910 C.ar      23 UNK        -0.1150 
     11 C11         1.6691  -20.0237  -52.7178 C.ar      23 UNK        -0.0193 
     12 C12         1.5290  -21.3314  -52.2464 C.ar      23 UNK        -0.1150 
     13 C13         1.0228  -21.5746  -50.9675 C.ar      23 UNK        -0.0193 
     14 C14         0.6703  -20.4955  -50.1505 C.ar      23 UNK        -0.1150 
     15 C15         0.8170  -23.0043  -50.4946 C.3       23 UNK        -0.0205 
     16 S16         2.3041  -23.7265  -49.7228 S.3       23 UNK        -0.2404 
     17 C17         2.4427  -22.8231  -48.1402 C.3       23 UNK        -0.0398 
     18 CA          1.6748  -23.4934  -46.9725 C.3       11 UNK         0.1400 
     19 N           2.1738  -23.0375  -45.6762 N.am      11 UNK        -0.5000 
     20 C           2.5367  -23.8370  -44.6650 C.2       10 UNK         0.5000 
     21 O           2.6186  -25.0626  -44.7521 O.2       10 UNK        -0.5000 
     22 CA          2.8359  -23.1570  -43.3113 C.3       10 UNK         0.1400 
     23 CB          4.3407  -22.8826  -43.1689 C.3       10 UNK        -0.1800 
     24 N           2.1044  -21.9050  -43.0971 N.am      10 UNK        -0.5000 
     25 C           0.7704  -21.7752  -43.1048 C.2       9 UNK         0.5000 
     26 O          -0.0106  -22.7127  -43.2618 O.2       9 UNK        -0.5000 
     27 CA          0.2054  -20.3503  -42.9794 C.3       9 UNK         0.1400 
     28 CB         -0.1148  -20.0344  -41.5116 C.3       9 UNK        -0.1800 
     29 N           1.0408  -19.2795  -43.5406 N.am      9 UNK        -0.5000 
     30 C           1.5560  -19.2279  -44.7797 C.2       8 UNK         0.5000 
     31 O           1.5204  -20.1662  -45.5771 O.2       8 UNK        -0.5000 
     32 CA          2.2071  -17.9110  -45.2221 C.3       8 UNK         0.1400 
     33 CB          1.1334  -16.9690  -45.7801 C.3       8 UNK        -0.1800 
     34 N           2.9057  -17.2354  -44.1293 N.am      8 UNK        -0.5000 
     35 C           4.2146  -16.9475  -44.1190 C.2       7 UNK         0.5000 
     36 O           4.9891  -17.2480  -45.0284 O.2       7 UNK        -0.5000 
     37 CA          4.7639  -16.1837  -42.8956 C.3       7 UNK         0.1400 
     38 CB          4.8634  -14.6823  -43.2065 C.3       7 UNK        -0.1800 
     39 N           3.9615  -16.3603  -41.6855 N.am      7 UNK        -0.5000 
     40 C           3.8456  -17.5080  -41.0040 C.2       6 UNK         0.5000 
     41 O           4.4732  -18.5310  -41.2796 O.2       6 UNK        -0.5000 
     42 CA          2.8394  -17.5342  -39.8351 C.3       6 UNK         0.1400 
     43 CB          3.5750  -17.3767  -38.4957 C.3       6 UNK        -0.1800 
     44 N           1.7627  -16.5374  -39.9012 N.am      6 UNK        -0.5000 
     45 C           0.9007  -16.3568  -40.9118 C.2       5 UNK         0.5000 
     46 O           0.9712  -16.9655  -41.9816 O.2       5 UNK        -0.5000 
     47 CA         -0.2354  -15.3365  -40.7078 C.3       5 UNK         0.1400 
     48 CB         -0.1107  -14.4797  -39.4273 C.3       5 UNK        -0.1800 
     49 N          -0.4152  -14.4919  -41.8889 N.am      5 UNK        -0.5000 
     50 C           0.4589  -13.6158  -42.4088 C.2       4 UNK         0.5000 
     51 O           1.5771  -13.4098  -41.9340 O.2       4 UNK        -0.5000 
     52 CA          0.0255  -12.8320  -43.6696 C.3       4 UNK         0.1400 
     53 CB          0.9700  -13.1234  -44.8455 C.3       4 UNK        -0.1800 
     54 N          -1.3523  -13.1077  -44.0884 N.am      4 UNK        -0.5000 
     55 C          -2.4487  -12.6194  -43.4866 C.2       3 UNK         0.5000 
     56 O          -2.4084  -11.7913  -42.5763 O.2       3 UNK        -0.5000 
     57 CA         -3.8200  -13.1679  -43.9410 C.3       3 UNK         0.1400 
     58 CB         -4.5166  -12.1646  -44.8723 C.3       3 UNK        -0.1800 
     59 N          -3.7537  -14.4671  -44.6152 N.am      3 UNK        -0.5000 
     60 C          -3.2790  -15.6051  -44.0853 C.2       2 UNK         0.5000 
     61 O          -2.9266  -15.7085  -42.9105 O.2       2 UNK        -0.5000 
     62 CA         -3.1168  -16.8151  -45.0315 C.3       2 UNK         0.1400 
     63 CB         -4.2296  -17.8414  -44.7715 C.3       2 UNK        -0.1800 
     64 N          -3.0997  -16.4688  -46.4588 N.am      2 UNK        -0.5000 
     65 C          -2.2237  -15.6419  -47.0523 C.2       1 UNK         0.5000 
     66 O          -1.3031  -15.0888  -46.4504 O.2       1 UNK        -0.5000 
     67 C           0.1642  -23.2092  -47.0636 C.2       11 UNK         0.5000 
     68 O          -0.6023  -24.0844  -47.4686 O.2       11 UNK        -0.5000 
     69 N          -0.2447  -21.9825  -46.7064 N.am      12 UNK        -0.5000 
     70 CA         -1.5801  -21.4408  -46.9568 C.3       12 UNK         0.1400 
     71 CB         -1.6042  -19.9437  -46.6225 C.3       12 UNK        -0.1800 
     72 C          -2.7234  -22.1900  -46.2534 C.2       12 UNK         0.5000 
     73 O          -3.8392  -22.1745  -46.7702 O.2       12 UNK        -0.5000 
     74 N          -2.4402  -22.8721  -45.1342 N.am      13 UNK        -0.5000 
     75 CA         -3.4024  -23.7432  -44.4546 C.3       13 UNK         0.1400 
     76 CB         -2.8481  -24.1591  -43.0847 C.3       13 UNK        -0.1800 
     77 C          -3.7806  -24.9874  -45.2836 C.2       13 UNK         0.5000 
     78 O          -4.9235  -25.4377  -45.2029 O.2       13 UNK        -0.5000 
     79 N          -2.8352  -25.5039  -46.0830 N.am      14 UNK        -0.5000 
     80 CA         -3.0518  -26.6341  -46.9885 C.3       14 UNK         0.1400 
     81 CB         -1.7097  -27.3191  -47.2894 C.3       14 UNK        -0.1800 
     82 C          -3.7472  -26.1980  -48.2903 C.2       14 UNK         0.5000 
     83 O          -4.5566  -26.9537  -48.8286 O.2       14 UNK        -0.5000 
     84 N          -3.4421  -24.9787  -48.7577 N.am      15 UNK        -0.5000 
     85 CA         -4.0636  -24.3575  -49.9321 C.3       15 UNK         0.1400 
     86 CB         -3.1499  -23.2345  -50.4473 C.3       15 UNK        -0.1800 
     87 C          -5.4808  -23.8090  -49.6647 C.2       15 UNK         0.5000 
     88 O          -6.1738  -23.4587  -50.6200 O.2       15 UNK        -0.5000 
     89 N          -5.8704  -23.7197  -48.3833 N.am      16 UNK        -0.5000 
     90 CA         -7.0969  -23.1060  -47.8633 C.3       16 UNK         0.1400 
     91 CB         -8.3493  -23.8824  -48.3205 C.3       16 UNK        -0.1800 
     92 C          -7.1565  -21.5982  -48.1842 C.2       16 UNK         0.5000 
     93 O          -8.1822  -21.0935  -48.6443 O.2       16 UNK        -0.5000 
     94 N          -6.0204  -20.9208  -47.9655 N.am      17 UNK        -0.5000 
     95 CA         -5.7073  -19.5042  -48.1834 C.3       17 UNK         0.1400 
     96 CB         -6.6340  -18.5968  -47.3553 C.3       17 UNK        -0.1800 
     97 C          -5.6716  -19.0649  -49.6595 C.2       17 UNK         0.5000 
     98 O          -4.8039  -18.2728  -50.0300 O.2       17 UNK        -0.5000 
     99 N          -6.5970  -19.5765  -50.4765 N.am      18 UNK        -0.5000 
    100 CA        -6.7738  -19.2766  -51.8955 C.3       18 UNK         0.1400 
    101 CB        -8.2212  -19.6238  -52.2871 C.3       18 UNK        -0.1800 
    102 C         -5.7309  -19.9822  -52.7883 C.2       18 UNK         0.5000 
    103 O         -6.0922  -20.7538  -53.6799 O.2       18 UNK        -0.5000 
    104 N         -4.4471  -19.6966  -52.5441 N.am      19 UNK        -0.5000 
    105 CA        -3.3129  -20.1409  -53.3512 C.3       19 UNK         0.1400 
    106 CB        -2.0376  -20.0542  -52.5027 C.3       19 UNK        -0.1800 
    107 C         -3.2199  -19.3041  -54.6429 C.2       19 UNK         0.5000 
    108 O         -2.4517  -18.3429  -54.7161 O.2       19 UNK        -0.5000 
    109 N         -4.0679  -19.6492  -55.6175 N.am      20 UNK        -0.5000 
    110 CA        -4.1831  -18.9851  -56.9137 C.3       20 UNK         0.1400 
    111 CB        -5.4385  -19.5174  -57.6227 C.3       20 UNK        -0.1800 
    112 C         -2.9398  -19.1793  -57.8033 C.2       20 UNK         0.5000 
    113 O         -2.2119  -20.1635  -57.6521 O.2       20 UNK        -0.5000 
    114 N         -2.7523  -18.2400  -58.7398 N.am      21 UNK        -0.5000 
    115 CA        -1.7389  -18.1749  -59.8025 C.3       21 UNK         0.1400 
    116 CB        -1.8220  -19.3977  -60.7368 C.3       21 UNK        -0.1800 
    117 C         -0.2912  -17.9371  -59.3284 C.2       21 UNK         0.5000 
    118 O          0.4213  -17.1629  -59.9692 O.2       21 UNK        -0.5000 
    119 N          0.1272  -18.5858  -58.2359 N.am      22 UNK        -0.5000 
    120 CA         1.4796  -18.4716  -57.6645 C.3       22 UNK         0.1400 
    121 C          1.7497  -17.1730  -56.8467 C.2       22 UNK         0.5000 
    122 N          0.7466  -16.3620  -56.5331 N.am      22 UNK        -0.7600 
    123 O          2.8947  -16.8891  -56.5054 O.2       22 UNK        -0.5000 
    124 C124        1.8926  -19.7554  -56.9009 C.3       23 UNK        -0.0398 
    125 S125        0.9287  -20.0813  -55.3830 S.3       23 UNK        -0.2404 
    126 C126        2.2028  -19.7763  -54.1186 C.3       23 UNK        -0.0205 
    127 H127       -6.9013  -15.7334  -48.6667 H         1 UNK         0.0600 
    128 H128       -6.6750  -14.3820  -49.7760 H         1 UNK         0.0600 
    129 H129       -6.0578  -15.9731  -50.2037 H         1 UNK         0.0600 
    130 H130       -3.8866  -16.4161  -49.6512 H         1 UNK         0.3000 
    131 H131       -2.3485  -14.2254  -48.6026 H         1 UNK         0.0600 
    132 H132       -1.4361  -15.4526  -50.4530 H         1 UNK         0.0800 
    133 H133       -0.3642  -15.5357  -49.0907 H         1 UNK         0.0800 
    134 H134        0.8466  -18.2116  -48.6879 H         1 UNK         0.0800 
    135 H135        1.0065  -17.1224  -50.0401 H         1 UNK         0.0800 
    136 H136        1.4272  -17.9393  -52.2514 H         1 UNK         0.1150 
    137 H137        1.7959  -22.1615  -52.8854 H         1 UNK         0.1150 
    138 H138        0.2715  -20.6719  -49.1631 H         1 UNK         0.1150 
    139 H139       -0.0303  -23.0525  -49.8146 H         1 UNK         0.0800 
    140 H140        0.5391  -23.6271  -51.3461 H         1 UNK         0.0800 
    141 H141        2.1715  -21.7747  -48.2615 H         1 UNK         0.0800 
    142 H142        3.5068  -22.8108  -47.9004 H         1 UNK         0.0800 
    143 H143        1.8055  -24.5743  -47.0579 H         1 UNK         0.0600 
    144 H144        2.1166  -22.0394  -45.5012 H         1 UNK         0.3000 
    145 H145        2.5362  -23.8517  -42.5241 H         1 UNK         0.0600 
    146 H146        4.5780  -22.4829  -42.1827 H         1 UNK         0.0600 
    147 H147        4.9192  -23.7988  -43.2949 H         1 UNK         0.0600 
    148 H148        4.6906  -22.1675  -43.9146 H         1 UNK         0.0600 
    149 H149        2.6600  -21.0702  -42.9792 H         1 UNK         0.3000 
    150 H150       -0.7372  -20.3404  -43.5265 H         1 UNK         0.0600 
    151 H151       -0.7358  -20.8140  -41.0679 H         1 UNK         0.0600 
    152 H152       -0.6640  -19.0974  -41.4201 H         1 UNK         0.0600 
    153 H153        0.7921  -19.9562  -40.9124 H         1 UNK         0.0600 
    154 H154        1.0943  -18.4389  -42.9695 H         1 UNK         0.3000 
    155 H155        2.8954  -18.1563  -46.0333 H         1 UNK         0.0600 
    156 H156        0.4777  -16.5980  -44.9911 H         1 UNK         0.0600 
    157 H157        0.5025  -17.4676  -46.5150 H         1 UNK         0.0600 
    158 H158        1.5866  -16.1112  -46.2760 H         1 UNK         0.0600 
    159 H159        2.3420  -16.9728  -43.3265 H         1 UNK         0.3000 
    160 H160        5.7692  -16.5603  -42.6953 H         1 UNK         0.0600 
    161 H161        5.3121  -14.1355  -42.3770 H         1 UNK         0.0600 
    162 H162        3.8825  -14.2479  -43.4036 H         1 UNK         0.0600 
    163 H163        5.4838  -14.5046  -44.0858 H         1 UNK         0.0600 
    164 H164        3.3958  -15.5737  -41.3983 H         1 UNK         0.3000 
    165 H165        2.3676  -18.5178  -39.8466 H         1 UNK         0.0600 
    166 H166        2.8961  -17.5101  -37.6532 H         1 UNK         0.0600 
    167 H167        4.3664  -18.1206  -38.3923 H         1 UNK         0.0600 
    168 H168        4.0359  -16.3923  -38.4047 H         1 UNK         0.0600 
    169 H169        1.6379  -15.9722  -39.0740 H         1 UNK         0.3000 
    170 H170       -1.1495  -15.9250  -40.6201 H         1 UNK         0.0600 
    171 H171       -0.1445  -15.0997  -38.5307 H         1 UNK         0.0600 
    172 H172        0.8162  -13.9056  -39.4024 H         1 UNK         0.0600 
    173 H173       -0.9369  -13.7723  -39.3530 H         1 UNK         0.0600 
    174 H174       -1.2871  -14.6469  -42.3832 H         1 UNK         0.3000 
    175 H175        0.1078  -11.7700  -43.4299 H         1 UNK         0.0600 
    176 H176        0.9619  -14.1797  -45.1073 H         1 UNK         0.0600 
    177 H177        0.6862  -12.5561  -45.7320 H         1 UNK         0.0600 
    178 H178        1.9982  -12.8535  -44.6019 H         1 UNK         0.0600 
    179 H179       -1.4629  -13.7804  -44.8404 H         1 UNK         0.3000 
    180 H180       -4.4334  -13.2911  -43.0463 H         1 UNK         0.0600 
    181 H181       -3.9571  -12.0223  -45.7979 H         1 UNK         0.0600 
    182 H182       -4.6171  -11.1892  -44.3944 H         1 UNK         0.0600 
    183 H183       -5.5193  -12.5013  -45.1367 H         1 UNK         0.0600 
    184 H184       -4.0190  -14.4728  -45.5913 H         1 UNK         0.3000 
    185 H185       -2.1572  -17.2806  -44.7970 H         1 UNK         0.0600 
    186 H186       -4.2208  -18.1690  -43.7310 H         1 UNK         0.0600 
    187 H187       -5.2149  -17.4193  -44.9710 H         1 UNK         0.0600 
    188 H188       -4.1116  -18.7318  -45.3873 H         1 UNK         0.0600 
    189 H189       -3.8366  -16.8517  -47.0308 H         1 UNK         0.3000 
    190 H190        0.4383  -21.3197  -46.3442 H         1 UNK         0.3000 
    191 H191       -1.7552  -21.5330  -48.0293 H         1 UNK         0.0600 
    192 H192       -1.5366  -19.7602  -45.5520 H         1 UNK         0.0600 
    193 H193       -2.5234  -19.4820  -46.9789 H         1 UNK         0.0600 
    194 H194       -0.7815  -19.4195  -47.1065 H         1 UNK         0.0600 
    195 H195       -1.5019  -22.8424  -44.7507 H         1 UNK         0.3000 
    196 H196       -4.3163  -23.1689  -44.2876 H         1 UNK         0.0600 
    197 H197       -3.5616  -24.7850  -42.5473 H         1 UNK         0.0600 
    198 H198       -2.6458  -23.2884  -42.4606 H         1 UNK         0.0600 
    199 H199       -1.9212  -24.7258  -43.1816 H         1 UNK         0.0600 
    200 H200       -1.9369  -25.0398  -46.1501 H         1 UNK         0.3000 
    201 H201       -3.6954  -27.3644  -46.4932 H         1 UNK         0.0600 
    202 H202       -1.0259  -26.6601  -47.8247 H         1 UNK         0.0600 
    203 H203       -1.2163  -27.6407  -46.3721 H         1 UNK         0.0600 
    204 H204       -1.8572  -28.2057  -47.9072 H         1 UNK         0.0600 
    205 H205       -2.7328  -24.4439  -48.2734 H         1 UNK         0.3000 
    206 H206       -4.1496  -25.1102  -50.7186 H         1 UNK         0.0600 
    207 H207       -3.0384  -22.4375  -49.7131 H         1 UNK         0.0600 
    208 H208       -2.1600  -23.6150  -50.6951 H         1 UNK         0.0600 
    209 H209       -3.5577  -22.7849  -51.3538 H         1 UNK         0.0600 
    210 H210       -5.1964  -23.9949  -47.6824 H         1 UNK         0.3000 
    211 H211       -7.0399  -23.1848  -46.7766 H         1 UNK         0.0600 
    212 H212       -8.5119  -23.8005  -49.3954 H         1 UNK         0.0600 
    213 H213       -9.2439  -23.5012  -47.8268 H         1 UNK         0.0600 
    214 H214       -8.2680  -24.9408  -48.0730 H         1 UNK         0.0600 
    215 H215       -5.2390  -21.4603  -47.5931 H         1 UNK         0.3000 
    216 H216       -4.6955  -19.3740  -47.8005 H         1 UNK         0.0600 
    217 H217       -7.6478  -18.5750  -47.7564 H         1 UNK         0.0600 
    218 H218       -6.2635  -17.5726  -47.3431 H         1 UNK         0.0600 
    219 H219       -6.6928  -18.9322  -46.3200 H         1 UNK         0.0600 
    220 H220       -7.2650  -20.2212  -50.0639 H         1 UNK         0.3000 
    221 H221       -6.6417  -18.2022  -52.0395 H         1 UNK         0.0600 
    222 H222       -8.4290  -20.6861  -52.1508 H         1 UNK         0.0600 
    223 H223       -8.9372  -19.0635  -51.6855 H         1 UNK         0.0600 
    224 H224       -8.4156  -19.3796  -53.3322 H         1 UNK         0.0600 
    225 H225       -4.2431  -19.0584  -51.7817 H         1 UNK         0.3000 
    226 H226       -3.4572  -21.1877  -53.6269 H         1 UNK         0.0600 
    227 H227       -2.1225  -20.6379  -51.5865 H         1 UNK         0.0600 
    228 H228       -1.1833  -20.4407  -53.0576 H         1 UNK         0.0600 
    229 H229       -1.8078  -19.0263  -52.2230 H         1 UNK         0.0600 
    230 H230       -4.7033  -20.4172  -55.4437 H         1 UNK         0.3000 
    231 H231       -4.3130  -17.9164  -56.7304 H         1 UNK         0.0600 
    232 H232       -6.3332  -19.3462  -57.0234 H         1 UNK         0.0600 
    233 H233       -5.3653  -20.5882  -57.8177 H         1 UNK         0.0600 
    234 H234       -5.5915  -19.0196  -58.5811 H         1 UNK         0.0600 
    235 H235       -3.4029  -17.4664  -58.7487 H         1 UNK         0.3000 
    236 H236       -2.0092  -17.3014  -60.3982 H         1 UNK         0.0600 
    237 H237       -1.1518  -19.2805  -61.5893 H         1 UNK         0.0600 
    238 H238       -1.5405  -20.3206  -60.2291 H         1 UNK         0.0600 
    239 H239       -2.8299  -19.5251  -61.1315 H         1 UNK         0.0600 
    240 H240       -0.5201  -19.2138  -57.7682 H         1 UNK         0.3000 
    241 H241        2.1661  -18.4050  -58.5110 H         1 UNK         0.0600 
    242 H242       -0.1985  -16.6003  -56.7873 H         1 UNK         0.3800 
    243 H243        0.9308  -15.5213  -56.0091 H         1 UNK         0.3800 
    244 H244        2.9567  -19.7199  -56.6617 H         1 UNK         0.0800 
    245 H245        1.7770  -20.6188  -57.5573 H         1 UNK         0.0800 
    246 H246        3.0589  -20.4284  -54.2985 H         1 UNK         0.0800 
    247 H247        2.5674  -18.7520  -54.2119 H         1 UNK         0.0800 
@<TRIPOS>BOND
     1    1    2 1    
     2    1  127 1    
     3    1  128 1    
     4    1  129 1    
     5    2    3 2    
     6    2    4 am   BACKBONE|DICT|INTERRES
     7    4    5 1    
     8    4  130 1    
     9    5    6 1    
    10    5   65 1    
    11    5  131 1    
    12    6    7 1    
    13    6  132 1    
    14    6  133 1    
    15    7    8 1    
    16    8    9 1    
    17    8  134 1    
    18    8  135 1    
    19    9   10 ar   
    20    9   14 ar   
    21   10   11 ar   
    22   10  136 1    
    23   11   12 ar   
    24   11  126 1    
    25   12   13 ar   
    26   12  137 1    
    27   13   14 ar   
    28   13   15 1    
    29   14  138 1    
    30   15   16 1    
    31   15  139 1    
    32   15  140 1    
    33   16   17 1    
    34   17   18 1    
    35   17  141 1    
    36   17  142 1    
    37   18   19 1    
    38   18   67 1    
    39   18  143 1    
    40   19   20 am   BACKBONE|DICT|INTERRES
    41   19  144 1    
    42   20   21 2    
    43   20   22 1    
    44   22   23 1    
    45   22   24 1    
    46   22  145 1    
    47   23  146 1    
    48   23  147 1    
    49   23  148 1    
    50   24   25 am   BACKBONE|DICT|INTERRES
    51   24  149 1    
    52   25   26 2    
    53   25   27 1    
    54   27   28 1    
    55   27   29 1    
    56   27  150 1    
    57   28  151 1    
    58   28  152 1    
    59   28  153 1    
    60   29   30 am   BACKBONE|DICT|INTERRES
    61   29  154 1    
    62   30   31 2    
    63   30   32 1    
    64   32   33 1    
    65   32   34 1    
    66   32  155 1    
    67   33  156 1    
    68   33  157 1    
    69   33  158 1    
    70   34   35 am   BACKBONE|DICT|INTERRES
    71   34  159 1    
    72   35   36 2    
    73   35   37 1    
    74   37   38 1    
    75   37   39 1    
    76   37  160 1    
    77   38  161 1    
    78   38  162 1    
    79   38  163 1    
    80   39   40 am   BACKBONE|DICT|INTERRES
    81   39  164 1    
    82   40   41 2    
    83   40   42 1    
    84   42   43 1    
    85   42   44 1    
    86   42  165 1    
    87   43  166 1    
    88   43  167 1    
    89   43  168 1    
    90   44   45 am   BACKBONE|DICT|INTERRES
    91   44  169 1    
    92   45   46 2    
    93   45   47 1    
    94   47   48 1    
    95   47   49 1    
    96   47  170 1    
    97   48  171 1    
    98   48  172 1    
    99   48  173 1    
   100   49   50 am   BACKBONE|DICT|INTERRES
   101   49  174 1    
   102   50   51 2    
   103   50   52 1    
   104   52   53 1    
   105   52   54 1    
   106   52  175 1    
   107   53  176 1    
   108   53  177 1    
   109   53  178 1    
   110   54   55 am   BACKBONE|DICT|INTERRES
   111   54  179 1    
   112   55   56 2    
   113   55   57 1    
   114   57   58 1    
   115   57   59 1    
   116   57  180 1    
   117   58  181 1    
   118   58  182 1    
   119   58  183 1    
   120   59   60 am   BACKBONE|DICT|INTERRES
   121   59  184 1    
   122   60   61 2    
   123   60   62 1    
   124   62   63 1    
   125   62   64 1    
   126   62  185 1    
   127   63  186 1    
   128   63  187 1    
   129   63  188 1    
   130   64   65 am   BACKBONE|DICT|INTERRES
   131   64  189 1    
   132   65   66 2    
   133   67   68 2    
   134   67   69 am   BACKBONE|DICT|INTERRES
   135   69   70 1    
   136   69  190 1    
   137   70   71 1    
   138   70   72 1    
   139   70  191 1    
   140   71  192 1    
   141   71  193 1    
   142   71  194 1    
   143   72   73 2    
   144   72   74 am   BACKBONE|DICT|INTERRES
   145   74   75 1    
   146   74  195 1    
   147   75   76 1    
   148   75   77 1    
   149   75  196 1    
   150   76  197 1    
   151   76  198 1    
   152   76  199 1    
   153   77   78 2    
   154   77   79 am   BACKBONE|DICT|INTERRES
   155   79   80 1    
   156   79  200 1    
   157   80   81 1    
   158   80   82 1    
   159   80  201 1    
   160   81  202 1    
   161   81  203 1    
   162   81  204 1    
   163   82   83 2    
   164   82   84 am   BACKBONE|DICT|INTERRES
   165   84   85 1    
   166   84  205 1    
   167   85   86 1    
   168   85   87 1    
   169   85  206 1    
   170   86  207 1    
   171   86  208 1    
   172   86  209 1    
   173   87   88 2    
   174   87   89 am   BACKBONE|DICT|INTERRES
   175   89   90 1    
   176   89  210 1    
   177   90   91 1    
   178   90   92 1    
   179   90  211 1    
   180   91  212 1    
   181   91  213 1    
   182   91  214 1    
   183   92   93 2    
   184   92   94 am   BACKBONE|DICT|INTERRES
   185   94   95 1    
   186   94  215 1    
   187   95   96 1    
   188   95   97 1    
   189   95  216 1    
   190   96  217 1    
   191   96  218 1    
   192   96  219 1    
   193   97   98 2    
   194   97   99 am   BACKBONE|DICT|INTERRES
   195   99  100 1    
   196   99  220 1    
   197  100  101 1    
   198  100  102 1    
   199  100  221 1    
   200  101  222 1    
   201  101  223 1    
   202  101  224 1    
   203  102  103 2    
   204  102  104 am   BACKBONE|DICT|INTERRES
   205  104  105 1    
   206  104  225 1    
   207  105  106 1    
   208  105  107 1    
   209  105  226 1    
   210  106  227 1    
   211  106  228 1    
   212  106  229 1    
   213  107  108 2    
   214  107  109 am   BACKBONE|DICT|INTERRES
   215  109  110 1    
   216  109  230 1    
   217  110  111 1    
   218  110  112 1    
   219  110  231 1    
   220  111  232 1    
   221  111  233 1    
   222  111  234 1    
   223  112  113 2    
   224  112  114 am   BACKBONE|DICT|INTERRES
   225  114  115 1    
   226  114  235 1    
   227  115  116 1    
   228  115  117 1    
   229  115  236 1    
   230  116  237 1    
   231  116  238 1    
   232  116  239 1    
   233  117  118 2    
   234  117  119 am   BACKBONE|DICT|INTERRES
   235  119  120 1    
   236  119  240 1    
   237  120  121 1    
   238  120  124 1    
   239  120  241 1    
   240  121  122 am   BACKBONE|DICT|INTERRES
   241  121  123 2    
   242  122  242 1    
   243  122  243 1    
   244  124  125 1    
   245  124  244 1    
   246  124  245 1    
   247  125  126 1    
   248  126  246 1    
   249  126  247 1    
@<TRIPOS>SUBSTRUCTURE
     1 UNK         1 GROUP             0       ****    0 ROOT    
