@<TRIPOS>MOLECULE
3R540
247   249    1
SMALL
USER_CHARGES


@<TRIPOS>ATOM
      1 CA          2.3376  -12.7786  -47.8473 C.3       0 UNK        -0.1800 
      2 C           1.2719  -13.8500  -47.6643 C.2       0 UNK         0.5000 
      3 O           0.1455  -13.5334  -47.2833 O.2       0 UNK        -0.5000 
      4 N           1.6258  -15.1102  -47.9508 N.am      1 UNK        -0.5000 
      5 CA          0.7592  -16.2943  -47.8762 C.3       1 UNK         0.1400 
      6 C6         -0.4437  -16.2413  -48.8671 C.3       23 UNK        -0.0398 
      7 S7          0.0385  -15.8660  -50.5922 S.3       23 UNK        -0.2404 
      8 C8         -0.6174  -17.2928  -51.5137 C.3       23 UNK        -0.0205 
      9 C9          0.4174  -18.3937  -51.6921 C.ar      23 UNK        -0.0193 
     10 C10         0.9756  -18.6272  -52.9500 C.ar      23 UNK        -0.1150 
     11 C11         1.8746  -19.6767  -53.1448 C.ar      23 UNK        -0.0193 
     12 C12         2.2254  -20.4903  -52.0653 C.ar      23 UNK        -0.1150 
     13 C13         1.6905  -20.2651  -50.7927 C.ar      23 UNK        -0.0193 
     14 C14         0.7879  -19.2056  -50.6174 C.ar      23 UNK        -0.1150 
     15 C15         2.0990  -21.2183  -49.6668 C.3       23 UNK        -0.0205 
     16 S16         1.7899  -20.6439  -47.9619 S.3       23 UNK        -0.2404 
     17 C17         0.0057  -20.9722  -47.7779 C.3       23 UNK        -0.0398 
     18 CA         -0.3195  -22.4018  -47.2938 C.3       11 UNK         0.1400 
     19 N           0.3518  -22.7551  -46.0411 N.am      11 UNK        -0.5000 
     20 C           0.4841  -24.0105  -45.5875 C.2       10 UNK         0.5000 
     21 O           0.0574  -24.9936  -46.1899 O.2       10 UNK        -0.5000 
     22 CA          1.1492  -24.2068  -44.2102 C.3       10 UNK         0.1400 
     23 CB          2.6645  -24.3936  -44.3720 C.3       10 UNK        -0.1800 
     24 N           0.8991  -23.1042  -43.2827 N.am      10 UNK        -0.5000 
     25 C          -0.3104  -22.6702  -42.9018 C.2       9 UNK         0.5000 
     26 O          -1.3612  -23.2347  -43.2089 O.2       9 UNK        -0.5000 
     27 CA         -0.3581  -21.3436  -42.1160 C.3       9 UNK         0.1400 
     28 CB         -0.5025  -21.6148  -40.6120 C.3       9 UNK        -0.1800 
     29 N           0.7988  -20.4652  -42.3373 N.am      9 UNK        -0.5000 
     30 C           1.2069  -19.9900  -43.5221 C.2       8 UNK         0.5000 
     31 O           0.6440  -20.2499  -44.5862 O.2       8 UNK        -0.5000 
     32 CA          2.4342  -19.0625  -43.4988 C.3       8 UNK         0.1400 
     33 CB          3.1467  -18.9952  -44.8605 C.3       8 UNK        -0.1800 
     34 N           2.0425  -17.7159  -43.0931 N.am      8 UNK        -0.5000 
     35 C           1.8208  -17.3340  -41.8280 C.2       7 UNK         0.5000 
     36 O           1.9459  -18.0927  -40.8637 O.2       7 UNK        -0.5000 
     37 CA          1.3851  -15.8697  -41.6107 C.3       7 UNK         0.1400 
     38 CB          1.5551  -15.3947  -40.1528 C.3       7 UNK        -0.1800 
     39 N           2.0177  -14.9272  -42.5380 N.am      7 UNK        -0.5000 
     40 C           3.3275  -14.6739  -42.6795 C.2       6 UNK         0.5000 
     41 O           4.2077  -15.2330  -42.0242 O.2       6 UNK        -0.5000 
     42 CA          3.7372  -13.6070  -43.7086 C.3       6 UNK         0.1400 
     43 CB          4.0831  -14.2508  -45.0603 C.3       6 UNK        -0.1800 
     44 N           2.7187  -12.5657  -43.8830 N.am      6 UNK        -0.5000 
     45 C           2.9934  -11.2668  -44.0746 C.2       5 UNK         0.5000 
     46 O           4.1351  -10.8271  -44.2182 O.2       5 UNK        -0.5000 
     47 CA          1.8085  -10.2749  -44.0960 C.3       5 UNK         0.1400 
     48 CB          1.3908   -9.9542  -45.5394 C.3       5 UNK        -0.1800 
     49 N           0.6321  -10.7407  -43.3625 N.am      5 UNK        -0.5000 
     50 C           0.5776  -10.9802  -42.0459 C.2       4 UNK         0.5000 
     51 O           1.4914  -10.7036  -41.2681 O.2       4 UNK        -0.5000 
     52 CA         -0.6946  -11.6666  -41.4999 C.3       4 UNK         0.1400 
     53 CB         -1.5102  -10.6804  -40.6487 C.3       4 UNK        -0.1800 
     54 N          -1.5908  -12.2755  -42.4948 N.am      4 UNK        -0.5000 
     55 C          -1.2685  -13.2071  -43.4022 C.2       3 UNK         0.5000 
     56 O          -0.1126  -13.5762  -43.6230 O.2       3 UNK        -0.5000 
     57 CA         -2.4336  -13.7910  -44.2214 C.3       3 UNK         0.1400 
     58 CB         -2.8414  -12.8279  -45.3468 C.3       3 UNK        -0.1800 
     59 N          -2.0773  -15.0824  -44.8069 N.am      3 UNK        -0.5000 
     60 C          -1.9245  -16.2192  -44.1130 C.2       2 UNK         0.5000 
     61 O          -2.1780  -16.3214  -42.9122 O.2       2 UNK        -0.5000 
     62 CA         -1.4006  -17.4534  -44.8743 C.3       2 UNK         0.1400 
     63 CB         -2.4990  -18.5171  -45.0207 C.3       2 UNK        -0.1800 
     64 N          -0.8565  -17.1411  -46.1988 N.am      2 UNK        -0.5000 
     65 C           0.3482  -16.5907  -46.4094 C.2       1 UNK         0.5000 
     66 O           1.1295  -16.3299  -45.4906 O.2       1 UNK        -0.5000 
     67 C          -1.8476  -22.5734  -47.2036 C.2       11 UNK         0.5000 
     68 O          -2.4798  -22.8296  -48.2284 O.2       11 UNK        -0.5000 
     69 N          -2.4199  -22.4257  -46.0004 N.am      12 UNK        -0.5000 
     70 CA         -3.8336  -22.6924  -45.7380 C.3       12 UNK         0.1400 
     71 CB         -4.2950  -21.9330  -44.4856 C.3       12 UNK        -0.1800 
     72 C          -4.0914  -24.2015  -45.6038 C.2       12 UNK         0.5000 
     73 O          -5.0907  -24.6889  -46.1300 O.2       12 UNK        -0.5000 
     74 N          -3.1616  -24.9212  -44.9574 N.am      13 UNK        -0.5000 
     75 CA         -3.1790  -26.3811  -44.8246 C.3       13 UNK         0.1400 
     76 CB         -2.0717  -26.8216  -43.8557 C.3       13 UNK        -0.1800 
     77 C          -3.0447  -27.1053  -46.1794 C.2       13 UNK         0.5000 
     78 O          -3.7562  -28.0802  -46.4226 O.2       13 UNK        -0.5000 
     79 N          -2.1689  -26.5869  -47.0521 N.am      14 UNK        -0.5000 
     80 CA         -1.9896  -27.0358  -48.4363 C.3       14 UNK         0.1400 
     81 CB         -0.6336  -26.5233  -48.9483 C.3       14 UNK        -0.1800 
     82 C          -3.1181  -26.5766  -49.3835 C.2       14 UNK         0.5000 
     83 O          -3.1823  -27.0555  -50.5157 O.2       14 UNK        -0.5000 
     84 N          -3.9602  -25.6427  -48.9168 N.am      15 UNK        -0.5000 
     85 CA         -5.0827  -24.9979  -49.6060 C.3       15 UNK         0.1400 
     86 CB         -6.1459  -26.0275  -50.0392 C.3       15 UNK        -0.1800 
     87 C          -4.6710  -24.0577  -50.7577 C.2       15 UNK         0.5000 
     88 O          -5.5412  -23.5949  -51.4947 O.2       15 UNK        -0.5000 
     89 N          -3.3759  -23.7320  -50.8647 N.am      16 UNK        -0.5000 
     90 CA         -2.8240  -22.7786  -51.8279 C.3       16 UNK         0.1400 
     91 CB         -1.2885  -22.8160  -51.7685 C.3       16 UNK        -0.1800 
     92 C          -3.3389  -21.3515  -51.5823 C.2       16 UNK         0.5000 
     93 O          -3.7322  -20.6731  -52.5310 O.2       16 UNK        -0.5000 
     94 N          -3.3796  -20.9476  -50.3045 N.am      17 UNK        -0.5000 
     95 CA         -3.9208  -19.6585  -49.8729 C.3       17 UNK         0.1400 
     96 CB         -3.4379  -19.3487  -48.4482 C.3       17 UNK        -0.1800 
     97 C          -5.4572  -19.6058  -49.9502 C.2       17 UNK         0.5000 
     98 O          -6.0110  -18.5365  -50.2024 O.2       17 UNK        -0.5000 
     99 N          -6.1136  -20.7575  -49.7496 N.am      18 UNK        -0.5000 
    100 CA        -7.5677  -20.9074  -49.8282 C.3       18 UNK         0.1400 
    101 CB        -7.9854  -22.2328  -49.1722 C.3       18 UNK        -0.1800 
    102 C         -8.0787  -20.8222  -51.2776 C.2       18 UNK         0.5000 
    103 O         -9.0732  -20.1432  -51.5350 O.2       18 UNK        -0.5000 
    104 N         -7.3717  -21.4897  -52.1996 N.am      19 UNK        -0.5000 
    105 CA        -7.6422  -21.4627  -53.6378 C.3       19 UNK         0.1400 
    106 CB        -6.9472  -22.6680  -54.2910 C.3       19 UNK        -0.1800 
    107 C         -7.1830  -20.1592  -54.3197 C.2       19 UNK         0.5000 
    108 O         -7.6411  -19.8715  -55.4261 O.2       19 UNK        -0.5000 
    109 N         -6.2722  -19.4216  -53.6654 N.am      20 UNK        -0.5000 
    110 CA        -5.5369  -18.2565  -54.1699 C.3       20 UNK         0.1400 
    111 CB        -6.4821  -17.0662  -54.4342 C.3       20 UNK        -0.1800 
    112 C         -4.6552  -18.6289  -55.3810 C.2       20 UNK         0.5000 
    113 O         -4.6329  -17.9202  -56.3897 O.2       20 UNK        -0.5000 
    114 N         -3.9662  -19.7686  -55.2549 N.am      21 UNK        -0.5000 
    115 CA        -3.0497  -20.3217  -56.2462 C.3       21 UNK         0.1400 
    116 CB        -2.8514  -21.8140  -55.9339 C.3       21 UNK        -0.1800 
    117 C         -1.6962  -19.5898  -56.2345 C.2       21 UNK         0.5000 
    118 O         -1.3667  -18.9348  -55.2441 O.2       21 UNK        -0.5000 
    119 N         -0.9415  -19.7514  -57.3310 N.am      22 UNK        -0.5000 
    120 CA         0.4657  -19.3633  -57.5878 C.3       22 UNK         0.1400 
    121 C          0.9453  -17.9143  -57.2530 C.2       22 UNK         0.5000 
    122 N          0.1789  -17.0837  -56.5653 N.am      22 UNK        -0.7600 
    123 O          2.0314  -17.5207  -57.6701 O.2       22 UNK        -0.5000 
    124 C124        1.4944  -20.4534  -57.1543 C.3       23 UNK        -0.0398 
    125 S125        1.3339  -21.0691  -55.4422 S.3       23 UNK        -0.2404 
    126 C126        2.4343  -19.9459  -54.5307 C.3       23 UNK        -0.0205 
    127 H127        1.9577  -11.9742  -48.4769 H         1 UNK         0.0600 
    128 H128        3.2383  -13.1782  -48.3135 H         1 UNK         0.0600 
    129 H129        2.6143  -12.3558  -46.8834 H         1 UNK         0.0600 
    130 H130        2.5757  -15.2963  -48.2371 H         1 UNK         0.3000 
    131 H131        1.3867  -17.1361  -48.1730 H         1 UNK         0.0600 
    132 H132       -0.9847  -17.1868  -48.8569 H         1 UNK         0.0800 
    133 H133       -1.1621  -15.4801  -48.5586 H         1 UNK         0.0800 
    134 H134       -0.9542  -16.9392  -52.4898 H         1 UNK         0.0800 
    135 H135       -1.5061  -17.6936  -51.0269 H         1 UNK         0.0800 
    136 H136        0.6882  -18.0104  -53.7898 H         1 UNK         0.1150 
    137 H137        2.9099  -21.3125  -52.2218 H         1 UNK         0.1150 
    138 H138        0.3578  -19.0000  -49.6520 H         1 UNK         0.1150 
    139 H139        3.1693  -21.4134  -49.7485 H         1 UNK         0.0800 
    140 H140        1.6038  -22.1780  -49.8189 H         1 UNK         0.0800 
    141 H141       -0.4905  -20.7954  -48.7321 H         1 UNK         0.0800 
    142 H142       -0.3904  -20.2310  -47.0819 H         1 UNK         0.0800 
    143 H143        0.0294  -23.0959  -48.0612 H         1 UNK         0.0600 
    144 H144        0.6872  -21.9745  -45.4838 H         1 UNK         0.3000 
    145 H145        0.7358  -25.1136  -43.7657 H         1 UNK         0.0600 
    146 H146        2.8856  -25.2264  -45.0410 H         1 UNK         0.0600 
    147 H147        3.1404  -24.6117  -43.4157 H         1 UNK         0.0600 
    148 H148        3.1374  -23.5032  -44.7887 H         1 UNK         0.0600 
    149 H149        1.7044  -22.5760  -42.9824 H         1 UNK         0.3000 
    150 H150       -1.2452  -20.8040  -42.4539 H         1 UNK         0.0600 
    151 H151        0.3733  -22.1258  -40.2100 H         1 UNK         0.0600 
    152 H152       -1.3717  -22.2420  -40.4089 H         1 UNK         0.0600 
    153 H153       -0.6357  -20.6871  -40.0549 H         1 UNK         0.0600 
    154 H154        1.2823  -20.1381  -41.5096 H         1 UNK         0.3000 
    155 H155        3.1487  -19.4619  -42.7759 H         1 UNK         0.0600 
    156 H156        3.4872  -19.9841  -45.1698 H         1 UNK         0.0600 
    157 H157        4.0219  -18.3469  -44.8163 H         1 UNK         0.0600 
    158 H158        2.4925  -18.6185  -45.6462 H         1 UNK         0.0600 
    159 H159        1.8643  -17.0562  -43.8466 H         1 UNK         0.3000 
    160 H160        0.3192  -15.8404  -41.8375 H         1 UNK         0.0600 
    161 H161        2.5938  -15.4527  -39.8265 H         1 UNK         0.0600 
    162 H162        0.9632  -16.0059  -39.4707 H         1 UNK         0.0600 
    163 H163        1.2230  -14.3635  -40.0334 H         1 UNK         0.0600 
    164 H164        1.3531  -14.4481  -43.1419 H         1 UNK         0.3000 
    165 H165        4.6471  -13.1505  -43.3127 H         1 UNK         0.0600 
    166 H166        4.8264  -15.0399  -44.9400 H         1 UNK         0.0600 
    167 H167        3.2052  -14.6977  -45.5234 H         1 UNK         0.0600 
    168 H168        4.4977  -13.5184  -45.7526 H         1 UNK         0.0600 
    169 H169        1.7486  -12.8436  -43.7779 H         1 UNK         0.3000 
    170 H170        2.1521   -9.3511  -43.6263 H         1 UNK         0.0600 
    171 H171        0.6657   -9.1406  -45.5663 H         1 UNK         0.0600 
    172 H172        0.9396  -10.8183  -46.0282 H         1 UNK         0.0600 
    173 H173        2.2477   -9.6442  -46.1391 H         1 UNK         0.0600 
    174 H174       -0.1626  -11.0173  -43.9193 H         1 UNK         0.3000 
    175 H175       -0.3528  -12.4728  -40.8481 H         1 UNK         0.0600 
    176 H176       -0.8956  -10.2321  -39.8668 H         1 UNK         0.0600 
    177 H177       -1.9143   -9.8683  -41.2543 H         1 UNK         0.0600 
    178 H178       -2.3439  -11.1795  -40.1544 H         1 UNK         0.0600 
    179 H179       -2.5621  -12.0104  -42.4154 H         1 UNK         0.3000 
    180 H180       -3.2877  -13.9365  -43.5567 H         1 UNK         0.0600 
    181 H181       -2.0116  -12.6234  -46.0237 H         1 UNK         0.0600 
    182 H182       -3.1772  -11.8716  -44.9442 H         1 UNK         0.0600 
    183 H183       -3.6623  -13.2355  -45.9370 H         1 UNK         0.0600 
    184 H184       -1.7722  -15.0645  -45.7683 H         1 UNK         0.3000 
    185 H185       -0.6051  -17.8788  -44.2632 H         1 UNK         0.0600 
    186 H186       -2.8896  -18.8069  -44.0445 H         1 UNK         0.0600 
    187 H187       -3.3378  -18.1537  -45.6147 H         1 UNK         0.0600 
    188 H188       -2.1133  -19.4208  -45.4920 H         1 UNK         0.0600 
    189 H189       -1.4629  -17.3288  -46.9813 H         1 UNK         0.3000 
    190 H190       -1.8324  -22.2543  -45.1957 H         1 UNK         0.3000 
    191 H191       -4.4256  -22.3281  -46.5807 H         1 UNK         0.0600 
    192 H192       -4.1776  -20.8580  -44.6136 H         1 UNK         0.0600 
    193 H193       -5.3510  -22.1198  -44.2868 H         1 UNK         0.0600 
    194 H194       -3.7394  -22.2293  -43.5963 H         1 UNK         0.0600 
    195 H195       -2.3962  -24.4297  -44.5085 H         1 UNK         0.3000 
    196 H196       -4.1407  -26.6622  -44.3905 H         1 UNK         0.0600 
    197 H197       -2.1209  -27.8956  -43.6725 H         1 UNK         0.0600 
    198 H198       -2.1664  -26.3213  -42.8917 H         1 UNK         0.0600 
    199 H199       -1.0801  -26.6038  -44.2511 H         1 UNK         0.0600 
    200 H200       -1.5503  -25.8432  -46.7387 H         1 UNK         0.3000 
    201 H201       -1.9721  -28.1274  -48.4494 H         1 UNK         0.0600 
    202 H202       -0.4390  -26.8700  -49.9639 H         1 UNK         0.0600 
    203 H203        0.1845  -26.8803  -48.3225 H         1 UNK         0.0600 
    204 H204       -0.5951  -25.4333  -48.9600 H         1 UNK         0.0600 
    205 H205       -3.8152  -25.3295  -47.9666 H         1 UNK         0.3000 
    206 H206       -5.5459  -24.3530  -48.8586 H         1 UNK         0.0600 
    207 H207       -6.4367  -26.6670  -49.2057 H         1 UNK         0.0600 
    208 H208       -7.0493  -25.5318  -50.3960 H         1 UNK         0.0600 
    209 H209       -5.7885  -26.6670  -50.8464 H         1 UNK         0.0600 
    210 H210       -2.7458  -24.0813  -50.1567 H         1 UNK         0.3000 
    211 H211       -3.1409  -23.0839  -52.8271 H         1 UNK         0.0600 
    212 H212       -0.9087  -23.8074  -52.0158 H         1 UNK         0.0600 
    213 H213       -0.8520  -22.1135  -52.4807 H         1 UNK         0.0600 
    214 H214       -0.9149  -22.5517  -50.7784 H         1 UNK         0.0600 
    215 H215       -3.0678  -21.5915  -49.5830 H         1 UNK         0.3000 
    216 H216       -3.5351  -18.8834  -50.5379 H         1 UNK         0.0600 
    217 H217       -3.7642  -20.1073  -47.7361 H         1 UNK         0.0600 
    218 H218       -3.8278  -18.3891  -48.1066 H         1 UNK         0.0600 
    219 H219       -2.3520  -19.2892  -48.4057 H         1 UNK         0.0600 
    220 H220       -5.5755  -21.5917  -49.5759 H         1 UNK         0.3000 
    221 H221       -8.0254  -20.0929  -49.2624 H         1 UNK         0.0600 
    222 H222       -7.5935  -23.0947  -49.7117 H         1 UNK         0.0600 
    223 H223       -7.6357  -22.2929  -48.1414 H         1 UNK         0.0600 
    224 H224       -9.0716  -22.3290  -49.1528 H         1 UNK         0.0600 
    225 H225       -6.6050  -22.0873  -51.9001 H         1 UNK         0.3000 
    226 H226       -8.7185  -21.5598  -53.7943 H         1 UNK         0.0600 
    227 H227       -7.2944  -23.6063  -53.8579 H         1 UNK         0.0600 
    228 H228       -7.1522  -22.7078  -55.3616 H         1 UNK         0.0600 
    229 H229       -5.8644  -22.6222  -54.1650 H         1 UNK         0.0600 
    230 H230       -5.9413  -19.7858  -52.7826 H         1 UNK         0.3000 
    231 H231       -4.8519  -17.9615  -53.3735 H         1 UNK         0.0600 
    232 H232       -7.1619  -17.2596  -55.2642 H         1 UNK         0.0600 
    233 H233       -5.9149  -16.1681  -54.6810 H         1 UNK         0.0600 
    234 H234       -7.0830  -16.8390  -53.5536 H         1 UNK         0.0600 
    235 H235       -3.9702  -20.2228  -54.3453 H         1 UNK         0.3000 
    236 H236       -3.4991  -20.2214  -57.2364 H         1 UNK         0.0600 
    237 H237       -2.3740  -21.9582  -54.9637 H         1 UNK         0.0600 
    238 H238       -3.8027  -22.3464  -55.9225 H         1 UNK         0.0600 
    239 H239       -2.2196  -22.2932  -56.6826 H         1 UNK         0.0600 
    240 H240       -1.3541  -20.2809  -58.0853 H         1 UNK         0.3000 
    241 H241        0.5056  -19.3588  -58.6779 H         1 UNK         0.0600 
    242 H242       -0.6395  -17.4656  -56.1000 H         1 UNK         0.3800 
    243 H243        0.4899  -16.1455  -56.3723 H         1 UNK         0.3800 
    244 H244        1.3650  -21.3217  -57.8013 H         1 UNK         0.0800 
    245 H245        2.5218  -20.1287  -57.3287 H         1 UNK         0.0800 
    246 H246        3.4303  -20.3861  -54.4654 H         1 UNK         0.0800 
    247 H247        2.5486  -19.0028  -55.0660 H         1 UNK         0.0800 
@<TRIPOS>BOND
     1    1    2 1    
     2    1  127 1    
     3    1  128 1    
     4    1  129 1    
     5    2    3 2    
     6    2    4 am   BACKBONE|DICT|INTERRES
     7    4    5 1    
     8    4  130 1    
     9    5    6 1    
    10    5   65 1    
    11    5  131 1    
    12    6    7 1    
    13    6  132 1    
    14    6  133 1    
    15    7    8 1    
    16    8    9 1    
    17    8  134 1    
    18    8  135 1    
    19    9   10 ar   
    20    9   14 ar   
    21   10   11 ar   
    22   10  136 1    
    23   11   12 ar   
    24   11  126 1    
    25   12   13 ar   
    26   12  137 1    
    27   13   14 ar   
    28   13   15 1    
    29   14  138 1    
    30   15   16 1    
    31   15  139 1    
    32   15  140 1    
    33   16   17 1    
    34   17   18 1    
    35   17  141 1    
    36   17  142 1    
    37   18   19 1    
    38   18   67 1    
    39   18  143 1    
    40   19   20 am   BACKBONE|DICT|INTERRES
    41   19  144 1    
    42   20   21 2    
    43   20   22 1    
    44   22   23 1    
    45   22   24 1    
    46   22  145 1    
    47   23  146 1    
    48   23  147 1    
    49   23  148 1    
    50   24   25 am   BACKBONE|DICT|INTERRES
    51   24  149 1    
    52   25   26 2    
    53   25   27 1    
    54   27   28 1    
    55   27   29 1    
    56   27  150 1    
    57   28  151 1    
    58   28  152 1    
    59   28  153 1    
    60   29   30 am   BACKBONE|DICT|INTERRES
    61   29  154 1    
    62   30   31 2    
    63   30   32 1    
    64   32   33 1    
    65   32   34 1    
    66   32  155 1    
    67   33  156 1    
    68   33  157 1    
    69   33  158 1    
    70   34   35 am   BACKBONE|DICT|INTERRES
    71   34  159 1    
    72   35   36 2    
    73   35   37 1    
    74   37   38 1    
    75   37   39 1    
    76   37  160 1    
    77   38  161 1    
    78   38  162 1    
    79   38  163 1    
    80   39   40 am   BACKBONE|DICT|INTERRES
    81   39  164 1    
    82   40   41 2    
    83   40   42 1    
    84   42   43 1    
    85   42   44 1    
    86   42  165 1    
    87   43  166 1    
    88   43  167 1    
    89   43  168 1    
    90   44   45 am   BACKBONE|DICT|INTERRES
    91   44  169 1    
    92   45   46 2    
    93   45   47 1    
    94   47   48 1    
    95   47   49 1    
    96   47  170 1    
    97   48  171 1    
    98   48  172 1    
    99   48  173 1    
   100   49   50 am   BACKBONE|DICT|INTERRES
   101   49  174 1    
   102   50   51 2    
   103   50   52 1    
   104   52   53 1    
   105   52   54 1    
   106   52  175 1    
   107   53  176 1    
   108   53  177 1    
   109   53  178 1    
   110   54   55 am   BACKBONE|DICT|INTERRES
   111   54  179 1    
   112   55   56 2    
   113   55   57 1    
   114   57   58 1    
   115   57   59 1    
   116   57  180 1    
   117   58  181 1    
   118   58  182 1    
   119   58  183 1    
   120   59   60 am   BACKBONE|DICT|INTERRES
   121   59  184 1    
   122   60   61 2    
   123   60   62 1    
   124   62   63 1    
   125   62   64 1    
   126   62  185 1    
   127   63  186 1    
   128   63  187 1    
   129   63  188 1    
   130   64   65 am   BACKBONE|DICT|INTERRES
   131   64  189 1    
   132   65   66 2    
   133   67   68 2    
   134   67   69 am   BACKBONE|DICT|INTERRES
   135   69   70 1    
   136   69  190 1    
   137   70   71 1    
   138   70   72 1    
   139   70  191 1    
   140   71  192 1    
   141   71  193 1    
   142   71  194 1    
   143   72   73 2    
   144   72   74 am   BACKBONE|DICT|INTERRES
   145   74   75 1    
   146   74  195 1    
   147   75   76 1    
   148   75   77 1    
   149   75  196 1    
   150   76  197 1    
   151   76  198 1    
   152   76  199 1    
   153   77   78 2    
   154   77   79 am   BACKBONE|DICT|INTERRES
   155   79   80 1    
   156   79  200 1    
   157   80   81 1    
   158   80   82 1    
   159   80  201 1    
   160   81  202 1    
   161   81  203 1    
   162   81  204 1    
   163   82   83 2    
   164   82   84 am   BACKBONE|DICT|INTERRES
   165   84   85 1    
   166   84  205 1    
   167   85   86 1    
   168   85   87 1    
   169   85  206 1    
   170   86  207 1    
   171   86  208 1    
   172   86  209 1    
   173   87   88 2    
   174   87   89 am   BACKBONE|DICT|INTERRES
   175   89   90 1    
   176   89  210 1    
   177   90   91 1    
   178   90   92 1    
   179   90  211 1    
   180   91  212 1    
   181   91  213 1    
   182   91  214 1    
   183   92   93 2    
   184   92   94 am   BACKBONE|DICT|INTERRES
   185   94   95 1    
   186   94  215 1    
   187   95   96 1    
   188   95   97 1    
   189   95  216 1    
   190   96  217 1    
   191   96  218 1    
   192   96  219 1    
   193   97   98 2    
   194   97   99 am   BACKBONE|DICT|INTERRES
   195   99  100 1    
   196   99  220 1    
   197  100  101 1    
   198  100  102 1    
   199  100  221 1    
   200  101  222 1    
   201  101  223 1    
   202  101  224 1    
   203  102  103 2    
   204  102  104 am   BACKBONE|DICT|INTERRES
   205  104  105 1    
   206  104  225 1    
   207  105  106 1    
   208  105  107 1    
   209  105  226 1    
   210  106  227 1    
   211  106  228 1    
   212  106  229 1    
   213  107  108 2    
   214  107  109 am   BACKBONE|DICT|INTERRES
   215  109  110 1    
   216  109  230 1    
   217  110  111 1    
   218  110  112 1    
   219  110  231 1    
   220  111  232 1    
   221  111  233 1    
   222  111  234 1    
   223  112  113 2    
   224  112  114 am   BACKBONE|DICT|INTERRES
   225  114  115 1    
   226  114  235 1    
   227  115  116 1    
   228  115  117 1    
   229  115  236 1    
   230  116  237 1    
   231  116  238 1    
   232  116  239 1    
   233  117  118 2    
   234  117  119 am   BACKBONE|DICT|INTERRES
   235  119  120 1    
   236  119  240 1    
   237  120  121 1    
   238  120  124 1    
   239  120  241 1    
   240  121  122 am   BACKBONE|DICT|INTERRES
   241  121  123 2    
   242  122  242 1    
   243  122  243 1    
   244  124  125 1    
   245  124  244 1    
   246  124  245 1    
   247  125  126 1    
   248  126  246 1    
   249  126  247 1    
@<TRIPOS>SUBSTRUCTURE
     1 UNK         1 GROUP             0       ****    0 ROOT    
