@<TRIPOS>MOLECULE
3R540
247   249    1
SMALL
USER_CHARGES


@<TRIPOS>ATOM
      1 CA          5.5981  -20.1066  -45.2797 C.3       0 UNK        -0.1800 
      2 C           4.9089  -18.7509  -45.2148 C.2       0 UNK         0.5000 
      3 O           4.1908  -18.4787  -44.2548 O.2       0 UNK        -0.5000 
      4 N           5.1174  -17.9149  -46.2390 N.am      1 UNK        -0.5000 
      5 CA          4.5374  -16.5751  -46.3812 C.3       1 UNK         0.1400 
      6 C6          4.7636  -16.0268  -47.8142 C.3       23 UNK        -0.0398 
      7 S7          3.4106  -14.9395  -48.3827 S.3       23 UNK        -0.2404 
      8 C8          3.3443  -15.3254  -50.1628 C.3       23 UNK        -0.0205 
      9 C9          2.4791  -16.5442  -50.4444 C.ar      23 UNK        -0.0193 
     10 C10         1.1265  -16.3872  -50.7605 C.ar      23 UNK        -0.1150 
     11 C11         0.3245  -17.5034  -51.0140 C.ar      23 UNK        -0.0193 
     12 C12         0.8733  -18.7850  -50.9135 C.ar      23 UNK        -0.1150 
     13 C13         2.2249  -18.9536  -50.6018 C.ar      23 UNK        -0.0193 
     14 C14         3.0271  -17.8289  -50.3986 C.ar      23 UNK        -0.1150 
     15 C15         2.8154  -20.3495  -50.4610 C.3       23 UNK        -0.0205 
     16 S16         3.5064  -20.6544  -48.7971 S.3       23 UNK        -0.2404 
     17 C17         2.0997  -20.2448  -47.7060 C.3       23 UNK        -0.0398 
     18 CA          1.2900  -21.4760  -47.2446 C.3       11 UNK         0.1400 
     19 N           0.4550  -21.1532  -46.0871 N.am      11 UNK        -0.5000 
     20 C          -0.2293  -22.0440  -45.3584 C.2       10 UNK         0.5000 
     21 O          -0.1802  -23.2596  -45.5420 O.2       10 UNK        -0.5000 
     22 CA         -1.1622  -21.4764  -44.2739 C.3       10 UNK         0.1400 
     23 CB         -0.3767  -21.1474  -42.9959 C.3       10 UNK        -0.1800 
     24 N          -1.8933  -20.2913  -44.7287 N.am      10 UNK        -0.5000 
     25 C          -2.7957  -20.2965  -45.7206 C.2       9 UNK         0.5000 
     26 O          -3.1445  -21.3153  -46.3156 O.2       9 UNK        -0.5000 
     27 CA         -3.3792  -18.9373  -46.1491 C.3       9 UNK         0.1400 
     28 CB         -4.4846  -18.4913  -45.1811 C.3       9 UNK        -0.1800 
     29 N          -2.3637  -17.8888  -46.2549 N.am      9 UNK        -0.5000 
     30 C          -1.3369  -17.9023  -47.1176 C.2       8 UNK         0.5000 
     31 O          -1.1658  -18.7836  -47.9582 O.2       8 UNK        -0.5000 
     32 CA         -0.2918  -16.7783  -46.9742 C.3       8 UNK         0.1400 
     33 CB         -0.7555  -15.4924  -47.6730 C.3       8 UNK        -0.1800 
     34 N           0.0217  -16.4908  -45.5732 N.am      8 UNK        -0.5000 
     35 C           0.5913  -17.3694  -44.7357 C.2       7 UNK         0.5000 
     36 O           0.9668  -18.4896  -45.0774 O.2       7 UNK        -0.5000 
     37 CA          0.6885  -16.9508  -43.2595 C.3       7 UNK         0.1400 
     38 CB          1.8762  -16.0113  -43.0228 C.3       7 UNK        -0.1800 
     39 N          -0.5396  -16.3007  -42.8045 N.am      7 UNK        -0.5000 
     40 C          -1.6909  -16.9497  -42.5802 C.2       6 UNK         0.5000 
     41 O          -1.8212  -18.1658  -42.7105 O.2       6 UNK        -0.5000 
     42 CA         -2.9104  -16.0999  -42.1742 C.3       6 UNK         0.1400 
     43 CB         -2.9742  -15.9498  -40.6472 C.3       6 UNK        -0.1800 
     44 N          -2.9185  -14.7716  -42.7870 N.am      6 UNK        -0.5000 
     45 C          -2.9898  -14.5316  -44.1041 C.2       5 UNK         0.5000 
     46 O          -3.1043  -15.4149  -44.9529 O.2       5 UNK        -0.5000 
     47 CA         -2.8574  -13.0619  -44.5481 C.3       5 UNK         0.1400 
     48 CB         -4.2439  -12.4199  -44.7020 C.3       5 UNK        -0.1800 
     49 N          -2.0450  -12.2498  -43.6349 N.am      5 UNK        -0.5000 
     50 C          -0.7441  -12.4566  -43.3919 C.2       4 UNK         0.5000 
     51 O          -0.0915  -13.3691  -43.9036 O.2       4 UNK        -0.5000 
     52 CA         -0.0840  -11.5433  -42.3456 C.3       4 UNK         0.1400 
     53 CB          0.0617  -12.2903  -41.0102 C.3       4 UNK        -0.1800 
     54 N           1.2359  -11.1053  -42.7902 N.am      4 UNK        -0.5000 
     55 C           1.4556  -10.1704  -43.7245 C.2       3 UNK         0.5000 
     56 O           0.5600   -9.5090  -44.2517 O.2       3 UNK        -0.5000 
     57 CA          2.9224   -9.9277  -44.1390 C.3       3 UNK         0.1400 
     58 CB          3.5085   -8.7350  -43.3675 C.3       3 UNK        -0.1800 
     59 N           3.7879  -11.0954  -43.9421 N.am      3 UNK        -0.5000 
     60 C           3.6926  -12.2304  -44.6466 C.2       2 UNK         0.5000 
     61 O           2.8896  -12.3921  -45.5700 O.2       2 UNK        -0.5000 
     62 CA          4.6401  -13.3745  -44.2470 C.3       2 UNK         0.1400 
     63 CB          4.5404  -13.7134  -42.7453 C.3       2 UNK        -0.1800 
     64 N           4.2998  -14.5337  -45.0638 N.am      2 UNK        -0.5000 
     65 C           5.0832  -15.5809  -45.3309 C.2       1 UNK         0.5000 
     66 O           6.2031  -15.7435  -44.8385 O.2       1 UNK        -0.5000 
     67 C           0.4601  -22.0964  -48.3902 C.2       11 UNK         0.5000 
     68 O           0.8703  -23.1139  -48.9487 O.2       11 UNK        -0.5000 
     69 N          -0.7124  -21.5141  -48.6855 N.am      12 UNK        -0.5000 
     70 CA         -1.6796  -22.0440  -49.6488 C.3       12 UNK         0.1400 
     71 CB         -2.8514  -21.0665  -49.8144 C.3       12 UNK        -0.1800 
     72 C          -2.1911  -23.4393  -49.2531 C.2       12 UNK         0.5000 
     73 O          -2.1997  -24.3362  -50.0939 O.2       12 UNK        -0.5000 
     74 N          -2.5505  -23.6138  -47.9731 N.am      13 UNK        -0.5000 
     75 CA         -2.9881  -24.8877  -47.4010 C.3       13 UNK         0.1400 
     76 CB         -3.4679  -24.6725  -45.9582 C.3       13 UNK        -0.1800 
     77 C          -1.9036  -25.9791  -47.4668 C.2       13 UNK         0.5000 
     78 O          -2.2147  -27.1171  -47.8183 O.2       13 UNK        -0.5000 
     79 N          -0.6452  -25.6090  -47.1878 N.am      14 UNK        -0.5000 
     80 CA          0.5295  -26.4752  -47.3267 C.3       14 UNK         0.1400 
     81 CB          1.7542  -25.7826  -46.7104 C.3       14 UNK        -0.1800 
     82 C           0.8081  -26.8855  -48.7874 C.2       14 UNK         0.5000 
     83 O           1.2497  -28.0091  -49.0293 O.2       14 UNK        -0.5000 
     84 N           0.5031  -25.9879  -49.7338 N.am      15 UNK        -0.5000 
     85 CA          0.5480  -26.2249  -51.1788 C.3       15 UNK         0.1400 
     86 CB          0.7310  -24.8755  -51.8946 C.3       15 UNK        -0.1800 
     87 C          -0.6894  -26.9791  -51.7196 C.2       15 UNK         0.5000 
     88 O          -0.7440  -27.2492  -52.9202 O.2       15 UNK        -0.5000 
     89 N          -1.6503  -27.3055  -50.8410 N.am      16 UNK        -0.5000 
     90 CA         -2.9189  -27.9943  -51.1004 C.3       16 UNK         0.1400 
     91 CB         -2.6810  -29.4195  -51.6431 C.3       16 UNK        -0.1800 
     92 C          -3.9110  -27.1744  -51.9539 C.2       16 UNK         0.5000 
     93 O          -4.7388  -27.7548  -52.6594 O.2       16 UNK        -0.5000 
     94 N          -3.8335  -25.8433  -51.8541 N.am      17 UNK        -0.5000 
     95 CA         -4.7722  -24.8912  -52.4396 C.3       17 UNK         0.1400 
     96 CB         -3.9680  -23.7683  -53.1183 C.3       17 UNK        -0.1800 
     97 C          -5.6740  -24.3069  -51.3390 C.2       17 UNK         0.5000 
     98 O          -5.3571  -24.4037  -50.1508 O.2       17 UNK        -0.5000 
     99 N          -6.7756  -23.6725  -51.7541 N.am      18 UNK        -0.5000 
    100 CA        -7.5828  -22.8126  -50.8890 C.3       18 UNK         0.1400 
    101 CB        -8.9601  -22.6005  -51.5360 C.3       18 UNK        -0.1800 
    102 C         -6.8734  -21.4623  -50.6873 C.2       18 UNK         0.5000 
    103 O         -6.1581  -21.0139  -51.5859 O.2       18 UNK        -0.5000 
    104 N         -7.1179  -20.8051  -49.5473 N.am      19 UNK        -0.5000 
    105 CA        -6.5268  -19.5064  -49.2019 C.3       19 UNK         0.1400 
    106 CB        -6.9281  -19.1355  -47.7675 C.3       19 UNK        -0.1800 
    107 C         -6.9004  -18.3747  -50.1802 C.2       19 UNK         0.5000 
    108 O         -6.0744  -17.5013  -50.4445 O.2       19 UNK        -0.5000 
    109 N         -8.1252  -18.4343  -50.7209 N.am      20 UNK        -0.5000 
    110 CA        -8.6275  -17.5137  -51.7416 C.3       20 UNK         0.1400 
    111 CB       -10.1618  -17.5905  -51.7691 C.3       20 UNK        -0.1800 
    112 C         -8.0510  -17.7966  -53.1431 C.2       20 UNK         0.5000 
    113 O         -7.9502  -16.8717  -53.9500 O.2       20 UNK        -0.5000 
    114 N         -7.6934  -19.0603  -53.4126 N.am      21 UNK        -0.5000 
    115 CA        -7.0911  -19.4974  -54.6726 C.3       21 UNK         0.1400 
    116 CB        -7.3810  -20.9908  -54.8908 C.3       21 UNK        -0.1800 
    117 C         -5.5771  -19.2327  -54.7019 C.2       21 UNK         0.5000 
    118 O         -5.0458  -18.8766  -55.7546 O.2       21 UNK        -0.5000 
    119 N         -4.9156  -19.4190  -53.5515 N.am      22 UNK        -0.5000 
    120 CA        -3.4783  -19.2418  -53.2888 C.3       22 UNK         0.1400 
    121 C         -2.5655  -20.2884  -53.9990 C.2       22 UNK         0.5000 
    122 N         -2.7896  -20.6005  -55.2680 N.am      22 UNK        -0.7600 
    123 O         -1.6653  -20.8469  -53.3787 O.2       22 UNK        -0.5000 
    124 C124       -3.0317  -17.7607  -53.4769 C.3       23 UNK        -0.0398 
    125 S125       -1.2544  -17.4217  -53.2416 S.3       23 UNK        -0.2404 
    126 C126       -1.1253  -17.3333  -51.4312 C.3       23 UNK        -0.0205 
    127 H127        6.1904  -20.2182  -46.1884 H         1 UNK         0.0600 
    128 H128        4.8549  -20.9039  -45.2608 H         1 UNK         0.0600 
    129 H129        6.2598  -20.2337  -44.4230 H         1 UNK         0.0600 
    130 H130        5.7499  -18.1967  -46.9734 H         1 UNK         0.3000 
    131 H131        3.4639  -16.6901  -46.2108 H         1 UNK         0.0600 
    132 H132        5.7117  -15.4923  -47.9021 H         1 UNK         0.0800 
    133 H133        4.8457  -16.8561  -48.5116 H         1 UNK         0.0800 
    134 H134        4.3524  -15.4735  -50.5530 H         1 UNK         0.0800 
    135 H135        2.9424  -14.4593  -50.6906 H         1 UNK         0.0800 
    136 H136        0.7013  -15.3954  -50.8231 H         1 UNK         0.1150 
    137 H137        0.2469  -19.6484  -51.0922 H         1 UNK         0.1150 
    138 H138        4.0754  -17.9677  -50.1834 H         1 UNK         0.1150 
    139 H139        2.0675  -21.1119  -50.6836 H         1 UNK         0.0800 
    140 H140        3.6075  -20.4754  -51.2001 H         1 UNK         0.0800 
    141 H141        1.4495  -19.4959  -48.1567 H         1 UNK         0.0800 
    142 H142        2.5337  -19.7544  -46.8344 H         1 UNK         0.0800 
    143 H143        1.9998  -22.2360  -46.9108 H         1 UNK         0.0600 
    144 H144        0.4034  -20.1720  -45.8264 H         1 UNK         0.3000 
    145 H145       -1.8956  -22.2476  -44.0304 H         1 UNK         0.0600 
    146 H146       -1.0435  -20.8240  -42.1966 H         1 UNK         0.0600 
    147 H147        0.1642  -22.0226  -42.6340 H         1 UNK         0.0600 
    148 H148        0.3537  -20.3555  -43.1628 H         1 UNK         0.0600 
    149 H149       -1.7017  -19.4231  -44.2387 H         1 UNK         0.3000 
    150 H150       -3.8247  -19.0653  -47.1377 H         1 UNK         0.0600 
    151 H151       -5.2692  -19.2449  -45.1081 H         1 UNK         0.0600 
    152 H152       -4.9505  -17.5634  -45.5129 H         1 UNK         0.0600 
    153 H153       -4.0980  -18.3298  -44.1759 H         1 UNK         0.0600 
    154 H154       -2.4699  -17.0887  -45.6375 H         1 UNK         0.3000 
    155 H155        0.6257  -17.1146  -47.4627 H         1 UNK         0.0600 
    156 H156       -1.6469  -15.0742  -47.2057 H         1 UNK         0.0600 
    157 H157       -0.9941  -15.6829  -48.7193 H         1 UNK         0.0600 
    158 H158        0.0249  -14.7313  -47.6516 H         1 UNK         0.0600 
    159 H159       -0.2730  -15.5948  -45.2096 H         1 UNK         0.3000 
    160 H160        0.8465  -17.8513  -42.6620 H         1 UNK         0.0600 
    161 H161        1.8129  -15.1159  -43.6403 H         1 UNK         0.0600 
    162 H162        2.8177  -16.5040  -43.2611 H         1 UNK         0.0600 
    163 H163        1.9302  -15.6997  -41.9798 H         1 UNK         0.0600 
    164 H164       -0.5219  -15.2917  -42.7418 H         1 UNK         0.3000 
    165 H165       -3.8082  -16.6259  -42.5037 H         1 UNK         0.0600 
    166 H166       -3.8757  -15.4195  -40.3398 H         1 UNK         0.0600 
    167 H167       -2.9908  -16.9256  -40.1597 H         1 UNK         0.0600 
    168 H168       -2.1133  -15.4035  -40.2593 H         1 UNK         0.0600 
    169 H169       -2.8315  -13.9833  -42.1634 H         1 UNK         0.3000 
    170 H170       -2.3680  -13.0589  -45.5243 H         1 UNK         0.0600 
    171 H171       -4.8636  -12.9913  -45.3945 H         1 UNK         0.0600 
    172 H172       -4.7741  -12.3719  -43.7500 H         1 UNK         0.0600 
    173 H173       -4.1681  -11.4066  -45.0968 H         1 UNK         0.0600 
    174 H174       -2.5171  -11.4868  -43.1711 H         1 UNK         0.3000 
    175 H175       -0.7112  -10.6637  -42.1853 H         1 UNK         0.0600 
    176 H176        0.6893  -13.1773  -41.1096 H         1 UNK         0.0600 
    177 H177        0.5052  -11.6503  -40.2472 H         1 UNK         0.0600 
    178 H178       -0.9094  -12.6158  -40.6351 H         1 UNK         0.0600 
    179 H179        2.0262  -11.6237  -42.4390 H         1 UNK         0.3000 
    180 H180        2.9244   -9.6790  -45.2025 H         1 UNK         0.0600 
    181 H181        3.5505   -8.9303  -42.2953 H         1 UNK         0.0600 
    182 H182        2.9034   -7.8393  -43.5144 H         1 UNK         0.0600 
    183 H183        4.5178   -8.5022  -43.7074 H         1 UNK         0.0600 
    184 H184        4.4774  -11.0264  -43.2076 H         1 UNK         0.3000 
    185 H185        5.6599  -13.0659  -44.4851 H         1 UNK         0.0600 
    186 H186        5.0700  -14.6347  -42.5028 H         1 UNK         0.0600 
    187 H187        4.9823  -12.9245  -42.1364 H         1 UNK         0.0600 
    188 H188        3.5058  -13.8279  -42.4239 H         1 UNK         0.0600 
    189 H189        3.4361  -14.4082  -45.5807 H         1 UNK         0.3000 
    190 H190       -0.9609  -20.6421  -48.2247 H         1 UNK         0.3000 
    191 H191       -1.1722  -22.1302  -50.6120 H         1 UNK         0.0600 
    192 H192       -3.4318  -20.9693  -48.8981 H         1 UNK         0.0600 
    193 H193       -3.5314  -21.4056  -50.5967 H         1 UNK         0.0600 
    194 H194       -2.4992  -20.0750  -50.0905 H         1 UNK         0.0600 
    195 H195       -2.5568  -22.8085  -47.3527 H         1 UNK         0.3000 
    196 H196       -3.8389  -25.2348  -47.9905 H         1 UNK         0.0600 
    197 H197       -3.8347  -25.6042  -45.5262 H         1 UNK         0.0600 
    198 H198       -4.2845  -23.9513  -45.9189 H         1 UNK         0.0600 
    199 H199       -2.6672  -24.3057  -45.3164 H         1 UNK         0.0600 
    200 H200       -0.4778  -24.6650  -46.8499 H         1 UNK         0.3000 
    201 H201        0.3367  -27.3883  -46.7600 H         1 UNK         0.0600 
    202 H202        1.5882  -25.5515  -45.6580 H         1 UNK         0.0600 
    203 H203        1.9916  -24.8506  -47.2233 H         1 UNK         0.0600 
    204 H204        2.6353  -26.4228  -46.7684 H         1 UNK         0.0600 
    205 H205        0.1928  -25.0670  -49.4425 H         1 UNK         0.3000 
    206 H206        1.4206  -26.8419  -51.4018 H         1 UNK         0.0600 
    207 H207        1.6167  -24.3532  -51.5320 H         1 UNK         0.0600 
    208 H208        0.8537  -25.0141  -52.9693 H         1 UNK         0.0600 
    209 H209       -0.1263  -24.2192  -51.7464 H         1 UNK         0.0600 
    210 H210       -1.5202  -27.0114  -49.8809 H         1 UNK         0.3000 
    211 H211       -3.3967  -28.1002  -50.1258 H         1 UNK         0.0600 
    212 H212       -2.2820  -29.4075  -52.6576 H         1 UNK         0.0600 
    213 H213       -3.6109  -29.9887  -51.6667 H         1 UNK         0.0600 
    214 H214       -1.9822  -29.9697  -51.0129 H         1 UNK         0.0600 
    215 H215       -3.1685  -25.4368  -51.1975 H         1 UNK         0.3000 
    216 H216       -5.4028  -25.3760  -53.1874 H         1 UNK         0.0600 
    217 H217       -4.6254  -23.0337  -53.5853 H         1 UNK         0.0600 
    218 H218       -3.3189  -24.1652  -53.8989 H         1 UNK         0.0600 
    219 H219       -3.3394  -23.2338  -52.4051 H         1 UNK         0.0600 
    220 H220       -6.9593  -23.6089  -52.7441 H         1 UNK         0.3000 
    221 H221       -7.7187  -23.2956  -49.9189 H         1 UNK         0.0600 
    222 H222       -8.8835  -22.1054  -52.5044 H         1 UNK         0.0600 
    223 H223       -9.4735  -23.5503  -51.6866 H         1 UNK         0.0600 
    224 H224       -9.6001  -21.9847  -50.9029 H         1 UNK         0.0600 
    225 H225       -7.7250  -21.2230  -48.8568 H         1 UNK         0.3000 
    226 H226       -5.4413  -19.6161  -49.2339 H         1 UNK         0.0600 
    227 H227       -6.5907  -19.8912  -47.0583 H         1 UNK         0.0600 
    228 H228       -6.4819  -18.1855  -47.4709 H         1 UNK         0.0600 
    229 H229       -8.0093  -19.0365  -47.6640 H         1 UNK         0.0600 
    230 H230       -8.7429  -19.1788  -50.4333 H         1 UNK         0.3000 
    231 H231       -8.3425  -16.4964  -51.4647 H         1 UNK         0.0600 
    232 H232      -10.5874  -17.3276  -50.8005 H         1 UNK         0.0600 
    233 H233      -10.5111  -18.5903  -52.0302 H         1 UNK         0.0600 
    234 H234      -10.5744  -16.8967  -52.5029 H         1 UNK         0.0600 
    235 H235       -7.7477  -19.7466  -52.6747 H         1 UNK         0.3000 
    236 H236       -7.5460  -18.9435  -55.4968 H         1 UNK         0.0600 
    237 H237       -6.9809  -21.3275  -55.8480 H         1 UNK         0.0600 
    238 H238       -6.9309  -21.6098  -54.1148 H         1 UNK         0.0600 
    239 H239       -8.4531  -21.1874  -54.9005 H         1 UNK         0.0600 
    240 H240       -5.4368  -19.8229  -52.7767 H         1 UNK         0.3000 
    241 H241       -3.3801  -19.4548  -52.2252 H         1 UNK         0.0600 
    242 H242       -3.5294  -20.1216  -55.7698 H         1 UNK         0.3800 
    243 H243       -2.2117  -21.2827  -55.7314 H         1 UNK         0.3800 
    244 H244       -3.6026  -17.1171  -52.8059 H         1 UNK         0.0800 
    245 H245       -3.2745  -17.4241  -54.4849 H         1 UNK         0.0800 
    246 H246       -1.7314  -18.1118  -50.9696 H         1 UNK         0.0800 
    247 H247       -1.5236  -16.3796  -51.0824 H         1 UNK         0.0800 
@<TRIPOS>BOND
     1    1    2 1    
     2    1  127 1    
     3    1  128 1    
     4    1  129 1    
     5    2    3 2    
     6    2    4 am   BACKBONE|DICT|INTERRES
     7    4    5 1    
     8    4  130 1    
     9    5    6 1    
    10    5   65 1    
    11    5  131 1    
    12    6    7 1    
    13    6  132 1    
    14    6  133 1    
    15    7    8 1    
    16    8    9 1    
    17    8  134 1    
    18    8  135 1    
    19    9   10 ar   
    20    9   14 ar   
    21   10   11 ar   
    22   10  136 1    
    23   11   12 ar   
    24   11  126 1    
    25   12   13 ar   
    26   12  137 1    
    27   13   14 ar   
    28   13   15 1    
    29   14  138 1    
    30   15   16 1    
    31   15  139 1    
    32   15  140 1    
    33   16   17 1    
    34   17   18 1    
    35   17  141 1    
    36   17  142 1    
    37   18   19 1    
    38   18   67 1    
    39   18  143 1    
    40   19   20 am   BACKBONE|DICT|INTERRES
    41   19  144 1    
    42   20   21 2    
    43   20   22 1    
    44   22   23 1    
    45   22   24 1    
    46   22  145 1    
    47   23  146 1    
    48   23  147 1    
    49   23  148 1    
    50   24   25 am   BACKBONE|DICT|INTERRES
    51   24  149 1    
    52   25   26 2    
    53   25   27 1    
    54   27   28 1    
    55   27   29 1    
    56   27  150 1    
    57   28  151 1    
    58   28  152 1    
    59   28  153 1    
    60   29   30 am   BACKBONE|DICT|INTERRES
    61   29  154 1    
    62   30   31 2    
    63   30   32 1    
    64   32   33 1    
    65   32   34 1    
    66   32  155 1    
    67   33  156 1    
    68   33  157 1    
    69   33  158 1    
    70   34   35 am   BACKBONE|DICT|INTERRES
    71   34  159 1    
    72   35   36 2    
    73   35   37 1    
    74   37   38 1    
    75   37   39 1    
    76   37  160 1    
    77   38  161 1    
    78   38  162 1    
    79   38  163 1    
    80   39   40 am   BACKBONE|DICT|INTERRES
    81   39  164 1    
    82   40   41 2    
    83   40   42 1    
    84   42   43 1    
    85   42   44 1    
    86   42  165 1    
    87   43  166 1    
    88   43  167 1    
    89   43  168 1    
    90   44   45 am   BACKBONE|DICT|INTERRES
    91   44  169 1    
    92   45   46 2    
    93   45   47 1    
    94   47   48 1    
    95   47   49 1    
    96   47  170 1    
    97   48  171 1    
    98   48  172 1    
    99   48  173 1    
   100   49   50 am   BACKBONE|DICT|INTERRES
   101   49  174 1    
   102   50   51 2    
   103   50   52 1    
   104   52   53 1    
   105   52   54 1    
   106   52  175 1    
   107   53  176 1    
   108   53  177 1    
   109   53  178 1    
   110   54   55 am   BACKBONE|DICT|INTERRES
   111   54  179 1    
   112   55   56 2    
   113   55   57 1    
   114   57   58 1    
   115   57   59 1    
   116   57  180 1    
   117   58  181 1    
   118   58  182 1    
   119   58  183 1    
   120   59   60 am   BACKBONE|DICT|INTERRES
   121   59  184 1    
   122   60   61 2    
   123   60   62 1    
   124   62   63 1    
   125   62   64 1    
   126   62  185 1    
   127   63  186 1    
   128   63  187 1    
   129   63  188 1    
   130   64   65 am   BACKBONE|DICT|INTERRES
   131   64  189 1    
   132   65   66 2    
   133   67   68 2    
   134   67   69 am   BACKBONE|DICT|INTERRES
   135   69   70 1    
   136   69  190 1    
   137   70   71 1    
   138   70   72 1    
   139   70  191 1    
   140   71  192 1    
   141   71  193 1    
   142   71  194 1    
   143   72   73 2    
   144   72   74 am   BACKBONE|DICT|INTERRES
   145   74   75 1    
   146   74  195 1    
   147   75   76 1    
   148   75   77 1    
   149   75  196 1    
   150   76  197 1    
   151   76  198 1    
   152   76  199 1    
   153   77   78 2    
   154   77   79 am   BACKBONE|DICT|INTERRES
   155   79   80 1    
   156   79  200 1    
   157   80   81 1    
   158   80   82 1    
   159   80  201 1    
   160   81  202 1    
   161   81  203 1    
   162   81  204 1    
   163   82   83 2    
   164   82   84 am   BACKBONE|DICT|INTERRES
   165   84   85 1    
   166   84  205 1    
   167   85   86 1    
   168   85   87 1    
   169   85  206 1    
   170   86  207 1    
   171   86  208 1    
   172   86  209 1    
   173   87   88 2    
   174   87   89 am   BACKBONE|DICT|INTERRES
   175   89   90 1    
   176   89  210 1    
   177   90   91 1    
   178   90   92 1    
   179   90  211 1    
   180   91  212 1    
   181   91  213 1    
   182   91  214 1    
   183   92   93 2    
   184   92   94 am   BACKBONE|DICT|INTERRES
   185   94   95 1    
   186   94  215 1    
   187   95   96 1    
   188   95   97 1    
   189   95  216 1    
   190   96  217 1    
   191   96  218 1    
   192   96  219 1    
   193   97   98 2    
   194   97   99 am   BACKBONE|DICT|INTERRES
   195   99  100 1    
   196   99  220 1    
   197  100  101 1    
   198  100  102 1    
   199  100  221 1    
   200  101  222 1    
   201  101  223 1    
   202  101  224 1    
   203  102  103 2    
   204  102  104 am   BACKBONE|DICT|INTERRES
   205  104  105 1    
   206  104  225 1    
   207  105  106 1    
   208  105  107 1    
   209  105  226 1    
   210  106  227 1    
   211  106  228 1    
   212  106  229 1    
   213  107  108 2    
   214  107  109 am   BACKBONE|DICT|INTERRES
   215  109  110 1    
   216  109  230 1    
   217  110  111 1    
   218  110  112 1    
   219  110  231 1    
   220  111  232 1    
   221  111  233 1    
   222  111  234 1    
   223  112  113 2    
   224  112  114 am   BACKBONE|DICT|INTERRES
   225  114  115 1    
   226  114  235 1    
   227  115  116 1    
   228  115  117 1    
   229  115  236 1    
   230  116  237 1    
   231  116  238 1    
   232  116  239 1    
   233  117  118 2    
   234  117  119 am   BACKBONE|DICT|INTERRES
   235  119  120 1    
   236  119  240 1    
   237  120  121 1    
   238  120  124 1    
   239  120  241 1    
   240  121  122 am   BACKBONE|DICT|INTERRES
   241  121  123 2    
   242  122  242 1    
   243  122  243 1    
   244  124  125 1    
   245  124  244 1    
   246  124  245 1    
   247  125  126 1    
   248  126  246 1    
   249  126  247 1    
@<TRIPOS>SUBSTRUCTURE
     1 UNK         1 GROUP             0       ****    0 ROOT    
