@<TRIPOS>MOLECULE
3R540
247   249    1
SMALL
USER_CHARGES


@<TRIPOS>ATOM
      1 CA          3.8315  -16.4177  -48.1927 C.3       0 UNK        -0.1800 
      2 C           2.5923  -15.7381  -47.6306 C.2       0 UNK         0.5000 
      3 O           2.6689  -15.0773  -46.5964 O.2       0 UNK        -0.5000 
      4 N           1.4515  -15.8839  -48.3160 N.am      1 UNK        -0.5000 
      5 CA          0.1295  -15.4015  -47.8957 C.3       1 UNK         0.1400 
      6 C6         -0.9892  -15.9442  -48.8205 C.3       23 UNK        -0.0398 
      7 S7         -1.0082  -15.2545  -50.5183 S.3       23 UNK        -0.2404 
      8 C8          0.1458  -16.3230  -51.4510 C.3       23 UNK        -0.0205 
      9 C9         -0.1334  -17.8162  -51.3200 C.ar      23 UNK        -0.0193 
     10 C10        -1.4357  -18.3169  -51.4176 C.ar      23 UNK        -0.1150 
     11 C11        -1.6842  -19.6824  -51.2675 C.ar      23 UNK        -0.0193 
     12 C12        -0.6225  -20.5564  -51.0327 C.ar      23 UNK        -0.1150 
     13 C13         0.6820  -20.0719  -50.9343 C.ar      23 UNK        -0.0193 
     14 C14         0.9235  -18.7036  -51.0924 C.ar      23 UNK        -0.1150 
     15 C15         1.8170  -21.0299  -50.6095 C.3       23 UNK        -0.0205 
     16 S16         2.5961  -20.6601  -49.0050 S.3       23 UNK        -0.2404 
     17 C17         1.1812  -20.6371  -47.8487 C.3       23 UNK        -0.0398 
     18 CA          1.0088  -21.9727  -47.0796 C.3       11 UNK         0.1400 
     19 N           0.8684  -21.7621  -45.6343 N.am      11 UNK        -0.5000 
     20 C           0.9761  -22.7266  -44.7107 C.2       10 UNK         0.5000 
     21 O           1.2214  -23.9001  -44.9824 O.2       10 UNK        -0.5000 
     22 CA          0.7204  -22.3298  -43.2450 C.3       10 UNK         0.1400 
     23 CB          1.9593  -21.6662  -42.6259 C.3       10 UNK        -0.1800 
     24 N          -0.4420  -21.4534  -43.0994 N.am      10 UNK        -0.5000 
     25 C          -1.6994  -21.8253  -43.3781 C.2       9 UNK         0.5000 
     26 O          -2.0102  -22.9663  -43.7209 O.2       9 UNK        -0.5000 
     27 CA         -2.7833  -20.7327  -43.3129 C.3       9 UNK         0.1400 
     28 CB         -3.2690  -20.5276  -41.8706 C.3       9 UNK        -0.1800 
     29 N          -2.3390  -19.4537  -43.8701 N.am      9 UNK        -0.5000 
     30 C          -1.9702  -19.2671  -45.1456 C.2       8 UNK         0.5000 
     31 O          -1.9937  -20.1492  -46.0006 O.2       8 UNK        -0.5000 
     32 CA         -1.4198  -17.8807  -45.5172 C.3       8 UNK         0.1400 
     33 CB         -2.5615  -16.8659  -45.6905 C.3       8 UNK        -0.1800 
     34 N          -0.4474  -17.3870  -44.5399 N.am      8 UNK        -0.5000 
     35 C           0.7103  -17.9981  -44.2448 C.2       7 UNK         0.5000 
     36 O           1.1135  -19.0070  -44.8191 O.2       7 UNK        -0.5000 
     37 CA          1.5201  -17.4373  -43.0641 C.3       7 UNK         0.1400 
     38 CB          2.4095  -16.2645  -43.4989 C.3       7 UNK        -0.1800 
     39 N           0.6508  -17.0276  -41.9626 N.am      7 UNK        -0.5000 
     40 C          -0.0328  -17.8826  -41.1880 C.2       6 UNK         0.5000 
     41 O           0.0463  -19.1069  -41.2871 O.2       6 UNK        -0.5000 
     42 CA         -1.0001  -17.2612  -40.1634 C.3       6 UNK         0.1400 
     43 CB         -0.2550  -16.8862  -38.8738 C.3       6 UNK        -0.1800 
     44 N          -1.6824  -16.0781  -40.6908 N.am      6 UNK        -0.5000 
     45 C          -2.5753  -16.1021  -41.6911 C.2       5 UNK         0.5000 
     46 O          -2.9719  -17.1383  -42.2225 O.2       5 UNK        -0.5000 
     47 CA         -3.0610  -14.7380  -42.2210 C.3       5 UNK         0.1400 
     48 CB         -4.3016  -14.2686  -41.4473 C.3       5 UNK        -0.1800 
     49 N          -2.0239  -13.7029  -42.1554 N.am      5 UNK        -0.5000 
     50 C          -0.8831  -13.7341  -42.8565 C.2       4 UNK         0.5000 
     51 O          -0.6105  -14.6124  -43.6782 O.2       4 UNK        -0.5000 
     52 CA          0.1574  -12.6615  -42.5122 C.3       4 UNK         0.1400 
     53 CB          0.8615  -13.0362  -41.1895 C.3       4 UNK        -0.1800 
     54 N           1.1280  -12.5654  -43.6000 N.am      4 UNK        -0.5000 
     55 C           2.1001  -11.6506  -43.7027 C.2       3 UNK         0.5000 
     56 O           2.2643  -10.7303  -42.9006 O.2       3 UNK        -0.5000 
     57 CA          3.0517  -11.7770  -44.9048 C.3       3 UNK         0.1400 
     58 CB          4.1367  -12.8301  -44.6315 C.3       3 UNK        -0.1800 
     59 N           2.3559  -12.0950  -46.1524 N.am      3 UNK        -0.5000 
     60 C           1.6264  -11.2058  -46.8450 C.2       2 UNK         0.5000 
     61 O           1.4431  -10.0453  -46.4746 O.2       2 UNK        -0.5000 
     62 CA          1.0185  -11.6585  -48.1882 C.3       2 UNK         0.1400 
     63 CB          1.8470  -11.1148  -49.3626 C.3       2 UNK        -0.1800 
     64 N           0.9165  -13.1091  -48.3232 N.am      2 UNK        -0.5000 
     65 C           0.0230  -13.8741  -47.6839 C.2       1 UNK         0.5000 
     66 O          -0.8486  -13.4239  -46.9402 O.2       1 UNK        -0.5000 
     67 C          -0.1380  -22.8333  -47.6600 C.2       11 UNK         0.5000 
     68 O           0.1022  -23.6533  -48.5493 O.2       11 UNK        -0.5000 
     69 N          -1.3548  -22.6686  -47.1197 N.am      12 UNK        -0.5000 
     70 CA         -2.5260  -23.4925  -47.4190 C.3       12 UNK         0.1400 
     71 CB         -3.7837  -22.8795  -46.7833 C.3       12 UNK        -0.1800 
     72 C          -2.3459  -24.9499  -46.9602 C.2       12 UNK         0.5000 
     73 O          -2.6843  -25.8687  -47.7046 O.2       12 UNK        -0.5000 
     74 N          -1.7909  -25.1398  -45.7557 N.am      13 UNK        -0.5000 
     75 CA         -1.4459  -26.4541  -45.2137 C.3       13 UNK         0.1400 
     76 CB         -1.0957  -26.3200  -43.7239 C.3       13 UNK        -0.1800 
     77 C          -0.3008  -27.1303  -45.9921 C.2       13 UNK         0.5000 
     78 O          -0.3469  -28.3421  -46.2079 O.2       13 UNK        -0.5000 
     79 N           0.6973  -26.3361  -46.4026 N.am      14 UNK        -0.5000 
     80 CA          1.8636  -26.7866  -47.1577 C.3       14 UNK         0.1400 
     81 CB          2.9428  -25.6933  -47.1416 C.3       14 UNK        -0.1800 
     82 C           1.5408  -27.1946  -48.6055 C.2       14 UNK         0.5000 
     83 O           2.0942  -28.1902  -49.0760 O.2       14 UNK        -0.5000 
     84 N           0.6827  -26.4269  -49.2931 N.am      15 UNK        -0.5000 
     85 CA          0.3904  -26.6321  -50.7121 C.3       15 UNK         0.1400 
     86 CB          1.4712  -25.9520  -51.5740 C.3       15 UNK        -0.1800 
     87 C          -1.0099  -26.1598  -51.1277 C.2       15 UNK         0.5000 
     88 O          -1.7123  -26.9186  -51.7980 O.2       15 UNK        -0.5000 
     89 N          -1.3718  -24.9165  -50.7711 N.am      16 UNK        -0.5000 
     90 CA         -2.5258  -24.1670  -51.2979 C.3       16 UNK         0.1400 
     91 CB         -3.8605  -24.8365  -50.8942 C.3       16 UNK        -0.1800 
     92 C          -2.4225  -23.9217  -52.8251 C.2       16 UNK         0.5000 
     93 O          -1.3284  -24.0167  -53.3861 O.2       16 UNK        -0.5000 
     94 N          -3.5604  -23.6069  -53.4654 N.am      17 UNK        -0.5000 
     95 CA         -3.7663  -23.5257  -54.9169 C.3       17 UNK         0.1400 
     96 CB         -3.7175  -24.9401  -55.5326 C.3       17 UNK        -0.1800 
     97 C          -2.8344  -22.5255  -55.6355 C.2       17 UNK         0.5000 
     98 O          -2.1969  -22.8771  -56.6309 O.2       17 UNK        -0.5000 
     99 N          -2.7805  -21.2929  -55.1189 N.am      18 UNK        -0.5000 
    100 CA        -2.0200  -20.1853  -55.6927 C.3       18 UNK         0.1400 
    101 CB        -0.7084  -19.9879  -54.9071 C.3       18 UNK        -0.1800 
    102 C         -2.9326  -18.9501  -55.7546 C.2       18 UNK         0.5000 
    103 O         -3.9010  -18.9664  -56.5169 O.2       18 UNK        -0.5000 
    104 N         -2.6230  -17.9075  -54.9721 N.am      19 UNK        -0.5000 
    105 CA        -3.4011  -16.6694  -54.8801 C.3       19 UNK         0.1400 
    106 CB        -2.5835  -15.6262  -54.1033 C.3       19 UNK        -0.1800 
    107 C         -4.7798  -16.8805  -54.2230 C.2       19 UNK         0.5000 
    108 O         -5.0192  -17.9159  -53.5963 O.2       19 UNK        -0.5000 
    109 N         -5.6519  -15.8707  -54.3448 N.am      20 UNK        -0.5000 
    110 CA        -7.0625  -15.8651  -53.9272 C.3       20 UNK         0.1400 
    111 CB        -7.6658  -14.4938  -54.2717 C.3       20 UNK        -0.1800 
    112 C         -7.3507  -16.2218  -52.4511 C.2       20 UNK         0.5000 
    113 O         -8.4999  -16.5161  -52.1196 O.2       20 UNK        -0.5000 
    114 N         -6.3174  -16.2104  -51.5989 N.am      21 UNK        -0.5000 
    115 CA        -6.3531  -16.6895  -50.2182 C.3       21 UNK         0.1400 
    116 CB        -5.0082  -16.3631  -49.5464 C.3       21 UNK        -0.1800 
    117 C         -6.6529  -18.1987  -50.0936 C.2       21 UNK         0.5000 
    118 O         -7.2667  -18.6027  -49.1048 O.2       21 UNK        -0.5000 
    119 N         -6.2145  -19.0002  -51.0753 N.am      22 UNK        -0.5000 
    120 CA        -6.2937  -20.4727  -51.0434 C.3       22 UNK         0.1400 
    121 C         -6.1084  -21.1929  -52.4121 C.2       22 UNK         0.5000 
    122 N         -5.8918  -20.5063  -53.5256 N.am      22 UNK        -0.7600 
    123 O         -6.1673  -22.4176  -52.4749 O.2       22 UNK        -0.5000 
    124 C124       -5.4455  -21.1110  -49.8997 C.3       23 UNK        -0.0398 
    125 S125       -3.7370  -20.4975  -49.6602 S.3       23 UNK        -0.2404 
    126 C126       -3.1007  -20.2103  -51.3362 C.3       23 UNK        -0.0205 
    127 H127        4.2386  -17.1142  -47.4597 H         1 UNK         0.0600 
    128 H128        3.6112  -16.9750  -49.1037 H         1 UNK         0.0600 
    129 H129        4.5957  -15.6751  -48.4214 H         1 UNK         0.0600 
    130 H130        1.4586  -16.4286  -49.1648 H         1 UNK         0.3000 
    131 H131       -0.0283  -15.8297  -46.9063 H         1 UNK         0.0600 
    132 H132       -0.9429  -17.0325  -48.8620 H         1 UNK         0.0800 
    133 H133       -1.9627  -15.7229  -48.3808 H         1 UNK         0.0800 
    134 H134        0.0879  -16.0546  -52.5063 H         1 UNK         0.0800 
    135 H135        1.1648  -16.0909  -51.1404 H         1 UNK         0.0800 
    136 H136       -2.2627  -17.6431  -51.5850 H         1 UNK         0.1150 
    137 H137       -0.8139  -21.6104  -50.8990 H         1 UNK         0.1150 
    138 H138        1.9356  -18.3327  -51.0117 H         1 UNK         0.1150 
    139 H139        1.4657  -22.0632  -50.5991 H         1 UNK         0.0800 
    140 H140        2.5717  -20.9695  -51.3945 H         1 UNK         0.0800 
    141 H141        0.2601  -20.3214  -48.3400 H         1 UNK         0.0800 
    142 H142        1.4048  -19.8257  -47.1590 H         1 UNK         0.0800 
    143 H143        1.9221  -22.5578  -47.2011 H         1 UNK         0.0600 
    144 H144        0.7113  -20.8065  -45.3249 H         1 UNK         0.3000 
    145 H145        0.5173  -23.2456  -42.6859 H         1 UNK         0.0600 
    146 H146        1.7963  -21.4319  -41.5737 H         1 UNK         0.0600 
    147 H147        2.8238  -22.3286  -42.6822 H         1 UNK         0.0600 
    148 H148        2.2229  -20.7407  -43.1368 H         1 UNK         0.0600 
    149 H149       -0.2692  -20.5097  -42.7703 H         1 UNK         0.3000 
    150 H150       -3.6313  -21.0740  -43.9099 H         1 UNK         0.0600 
    151 H151       -3.6365  -21.4626  -41.4460 H         1 UNK         0.0600 
    152 H152       -4.0864  -19.8074  -41.8290 H         1 UNK         0.0600 
    153 H153       -2.4708  -20.1642  -41.2235 H         1 UNK         0.0600 
    154 H154       -2.3397  -18.6565  -43.2400 H         1 UNK         0.3000 
    155 H155       -0.9012  -17.9818  -46.4723 H         1 UNK         0.0600 
    156 H156       -2.1853  -15.8589  -45.8694 H         1 UNK         0.0600 
    157 H157       -3.2048  -16.8233  -44.8127 H         1 UNK         0.0600 
    158 H158       -3.1917  -17.1377  -46.5380 H         1 UNK         0.0600 
    159 H159       -0.6736  -16.5208  -44.0606 H         1 UNK         0.3000 
    160 H160        2.1738  -18.2328  -42.7002 H         1 UNK         0.0600 
    161 H161        1.8291  -15.4488  -43.9273 H         1 UNK         0.0600 
    162 H162        3.1243  -16.5842  -44.2581 H         1 UNK         0.0600 
    163 H163        2.9819  -15.8667  -42.6611 H         1 UNK         0.0600 
    164 H164        0.4933  -16.0383  -41.8523 H         1 UNK         0.3000 
    165 H165       -1.7550  -18.0113  -39.9181 H         1 UNK         0.0600 
    166 H166        0.5002  -16.1193  -39.0511 H         1 UNK         0.0600 
    167 H167       -0.9432  -16.5112  -38.1160 H         1 UNK         0.0600 
    168 H168        0.2515  -17.7544  -38.4501 H         1 UNK         0.0600 
    169 H169       -1.4234  -15.1866  -40.2963 H         1 UNK         0.3000 
    170 H170       -3.3408  -14.8694  -43.2682 H         1 UNK         0.0600 
    171 H171       -5.0974  -15.0131  -41.4984 H         1 UNK         0.0600 
    172 H172       -4.0796  -14.0970  -40.3933 H         1 UNK         0.0600 
    173 H173       -4.6982  -13.3422  -41.8629 H         1 UNK         0.0600 
    174 H174       -2.1773  -12.9528  -41.4966 H         1 UNK         0.3000 
    175 H175       -0.3519  -11.7017  -42.4067 H         1 UNK         0.0600 
    176 H176        0.1431  -13.1806  -40.3819 H         1 UNK         0.0600 
    177 H177        1.5456  -12.2546  -40.8605 H         1 UNK         0.0600 
    178 H178        1.4357  -13.9581  -41.2882 H         1 UNK         0.0600 
    179 H179        1.0222  -13.2728  -44.3172 H         1 UNK         0.3000 
    180 H180        3.5535  -10.8152  -45.0317 H         1 UNK         0.0600 
    181 H181        3.7093  -13.8194  -44.4703 H         1 UNK         0.0600 
    182 H182        4.7115  -12.5744  -43.7406 H         1 UNK         0.0600 
    183 H183        4.8379  -12.9003  -45.4631 H         1 UNK         0.0600 
    184 H184        2.4426  -13.0474  -46.4924 H         1 UNK         0.3000 
    185 H185        0.0145  -11.2340  -48.2540 H         1 UNK         0.0600 
    186 H186        1.3914  -11.3715  -50.3192 H         1 UNK         0.0600 
    187 H187        1.9193  -10.0272  -49.3203 H         1 UNK         0.0600 
    188 H188        2.8630  -11.5118  -49.3560 H         1 UNK         0.0600 
    189 H189        1.5987  -13.5627  -48.9126 H         1 UNK         0.3000 
    190 H190       -1.4973  -21.9027  -46.4659 H         1 UNK         0.3000 
    191 H191       -2.6611  -23.4868  -48.4993 H         1 UNK         0.0600 
    192 H192       -3.9090  -21.8361  -47.0688 H         1 UNK         0.0600 
    193 H193       -4.6783  -23.4141  -47.1042 H         1 UNK         0.0600 
    194 H194       -3.7516  -22.9207  -45.6954 H         1 UNK         0.0600 
    195 H195       -1.5932  -24.3337  -45.1714 H         1 UNK         0.3000 
    196 H196       -2.3268  -27.0942  -45.2961 H         1 UNK         0.0600 
    197 H197       -0.8685  -27.2934  -43.2876 H         1 UNK         0.0600 
    198 H198       -1.9275  -25.8963  -43.1607 H         1 UNK         0.0600 
    199 H199       -0.2276  -25.6797  -43.5677 H         1 UNK         0.0600 
    200 H200        0.6980  -25.3654  -46.1025 H         1 UNK         0.3000 
    201 H201        2.2702  -27.6635  -46.6496 H         1 UNK         0.0600 
    202 H202        3.2338  -25.4386  -46.1224 H         1 UNK         0.0600 
    203 H203        2.5985  -24.7828  -47.6317 H         1 UNK         0.0600 
    204 H204        3.8419  -26.0248  -47.6625 H         1 UNK         0.0600 
    205 H205        0.2758  -25.6098  -48.8489 H         1 UNK         0.3000 
    206 H206        0.4183  -27.7032  -50.9251 H         1 UNK         0.0600 
    207 H207        2.4518  -26.3972  -51.4058 H         1 UNK         0.0600 
    208 H208        1.2468  -26.0540  -52.6367 H         1 UNK         0.0600 
    209 H209        1.5453  -24.8860  -51.3551 H         1 UNK         0.0600 
    210 H210       -0.7264  -24.3791  -50.2017 H         1 UNK         0.3000 
    211 H211       -2.4911  -23.1879  -50.8232 H         1 UNK         0.0600 
    212 H212       -4.0387  -25.7582  -51.4484 H         1 UNK         0.0600 
    213 H213       -4.7093  -24.1807  -51.0800 H         1 UNK         0.0600 
    214 H214       -3.8840  -25.0811  -49.8349 H         1 UNK         0.0600 
    215 H215       -4.4067  -23.4874  -52.9185 H         1 UNK         0.3000 
    216 H216       -4.7797  -23.1479  -55.0587 H         1 UNK         0.0600 
    217 H217       -4.4267  -25.6073  -55.0427 H         1 UNK         0.0600 
    218 H218       -2.7254  -25.3847  -55.4454 H         1 UNK         0.0600 
    219 H219       -3.9752  -24.9165  -56.5921 H         1 UNK         0.0600 
    220 H220       -3.3644  -21.0676  -54.3268 H         1 UNK         0.3000 
    221 H221       -1.7537  -20.4044  -56.7288 H         1 UNK         0.0600 
    222 H222       -0.8886  -19.7783  -53.8558 H         1 UNK         0.0600 
    223 H223       -0.0888  -20.8834  -54.9577 H         1 UNK         0.0600 
    224 H224       -0.1197  -19.1668  -55.3179 H         1 UNK         0.0600 
    225 H225       -1.8278  -17.9867  -54.3565 H         1 UNK         0.3000 
    226 H226       -3.5637  -16.2992  -55.8944 H         1 UNK         0.0600 
    227 H227       -1.5912  -15.4962  -54.5355 H         1 UNK         0.0600 
    228 H228       -3.0700  -14.6503  -54.1192 H         1 UNK         0.0600 
    229 H229       -2.4615  -15.9086  -53.0592 H         1 UNK         0.0600 
    230 H230       -5.3509  -15.0470  -54.8454 H         1 UNK         0.3000 
    231 H231       -7.5719  -16.6193  -54.5301 H         1 UNK         0.0600 
    232 H232       -8.7258  -14.4538  -54.0169 H         1 UNK         0.0600 
    233 H233       -7.5842  -14.2817  -55.3379 H         1 UNK         0.0600 
    234 H234       -7.1674  -13.6897  -53.7287 H         1 UNK         0.0600 
    235 H235       -5.4116  -15.9628  -51.9673 H         1 UNK         0.3000 
    236 H236       -7.1428  -16.1475  -49.6940 H         1 UNK         0.0600 
    237 H237       -5.0075  -16.6763  -48.5016 H         1 UNK         0.0600 
    238 H238       -4.1780  -16.8714  -50.0391 H         1 UNK         0.0600 
    239 H239       -4.8042  -15.2923  -49.5641 H         1 UNK         0.0600 
    240 H240       -5.7458  -18.5868  -51.8733 H         1 UNK         0.3000 
    241 H241       -7.3358  -20.6966  -50.8083 H         1 UNK         0.0600 
    242 H242       -5.7529  -19.4978  -53.5330 H         1 UNK         0.3800 
    243 H243       -5.8692  -21.0014  -54.4005 H         1 UNK         0.3800 
    244 H244       -5.9585  -20.9419  -48.9526 H         1 UNK         0.0800 
    245 H245       -5.4085  -22.1965  -49.9910 H         1 UNK         0.0800 
    246 H246       -3.7245  -19.4909  -51.8623 H         1 UNK         0.0800 
    247 H247       -3.1277  -21.1331  -51.9130 H         1 UNK         0.0800 
@<TRIPOS>BOND
     1    1    2 1    
     2    1  127 1    
     3    1  128 1    
     4    1  129 1    
     5    2    3 2    
     6    2    4 am   BACKBONE|DICT|INTERRES
     7    4    5 1    
     8    4  130 1    
     9    5    6 1    
    10    5   65 1    
    11    5  131 1    
    12    6    7 1    
    13    6  132 1    
    14    6  133 1    
    15    7    8 1    
    16    8    9 1    
    17    8  134 1    
    18    8  135 1    
    19    9   10 ar   
    20    9   14 ar   
    21   10   11 ar   
    22   10  136 1    
    23   11   12 ar   
    24   11  126 1    
    25   12   13 ar   
    26   12  137 1    
    27   13   14 ar   
    28   13   15 1    
    29   14  138 1    
    30   15   16 1    
    31   15  139 1    
    32   15  140 1    
    33   16   17 1    
    34   17   18 1    
    35   17  141 1    
    36   17  142 1    
    37   18   19 1    
    38   18   67 1    
    39   18  143 1    
    40   19   20 am   BACKBONE|DICT|INTERRES
    41   19  144 1    
    42   20   21 2    
    43   20   22 1    
    44   22   23 1    
    45   22   24 1    
    46   22  145 1    
    47   23  146 1    
    48   23  147 1    
    49   23  148 1    
    50   24   25 am   BACKBONE|DICT|INTERRES
    51   24  149 1    
    52   25   26 2    
    53   25   27 1    
    54   27   28 1    
    55   27   29 1    
    56   27  150 1    
    57   28  151 1    
    58   28  152 1    
    59   28  153 1    
    60   29   30 am   BACKBONE|DICT|INTERRES
    61   29  154 1    
    62   30   31 2    
    63   30   32 1    
    64   32   33 1    
    65   32   34 1    
    66   32  155 1    
    67   33  156 1    
    68   33  157 1    
    69   33  158 1    
    70   34   35 am   BACKBONE|DICT|INTERRES
    71   34  159 1    
    72   35   36 2    
    73   35   37 1    
    74   37   38 1    
    75   37   39 1    
    76   37  160 1    
    77   38  161 1    
    78   38  162 1    
    79   38  163 1    
    80   39   40 am   BACKBONE|DICT|INTERRES
    81   39  164 1    
    82   40   41 2    
    83   40   42 1    
    84   42   43 1    
    85   42   44 1    
    86   42  165 1    
    87   43  166 1    
    88   43  167 1    
    89   43  168 1    
    90   44   45 am   BACKBONE|DICT|INTERRES
    91   44  169 1    
    92   45   46 2    
    93   45   47 1    
    94   47   48 1    
    95   47   49 1    
    96   47  170 1    
    97   48  171 1    
    98   48  172 1    
    99   48  173 1    
   100   49   50 am   BACKBONE|DICT|INTERRES
   101   49  174 1    
   102   50   51 2    
   103   50   52 1    
   104   52   53 1    
   105   52   54 1    
   106   52  175 1    
   107   53  176 1    
   108   53  177 1    
   109   53  178 1    
   110   54   55 am   BACKBONE|DICT|INTERRES
   111   54  179 1    
   112   55   56 2    
   113   55   57 1    
   114   57   58 1    
   115   57   59 1    
   116   57  180 1    
   117   58  181 1    
   118   58  182 1    
   119   58  183 1    
   120   59   60 am   BACKBONE|DICT|INTERRES
   121   59  184 1    
   122   60   61 2    
   123   60   62 1    
   124   62   63 1    
   125   62   64 1    
   126   62  185 1    
   127   63  186 1    
   128   63  187 1    
   129   63  188 1    
   130   64   65 am   BACKBONE|DICT|INTERRES
   131   64  189 1    
   132   65   66 2    
   133   67   68 2    
   134   67   69 am   BACKBONE|DICT|INTERRES
   135   69   70 1    
   136   69  190 1    
   137   70   71 1    
   138   70   72 1    
   139   70  191 1    
   140   71  192 1    
   141   71  193 1    
   142   71  194 1    
   143   72   73 2    
   144   72   74 am   BACKBONE|DICT|INTERRES
   145   74   75 1    
   146   74  195 1    
   147   75   76 1    
   148   75   77 1    
   149   75  196 1    
   150   76  197 1    
   151   76  198 1    
   152   76  199 1    
   153   77   78 2    
   154   77   79 am   BACKBONE|DICT|INTERRES
   155   79   80 1    
   156   79  200 1    
   157   80   81 1    
   158   80   82 1    
   159   80  201 1    
   160   81  202 1    
   161   81  203 1    
   162   81  204 1    
   163   82   83 2    
   164   82   84 am   BACKBONE|DICT|INTERRES
   165   84   85 1    
   166   84  205 1    
   167   85   86 1    
   168   85   87 1    
   169   85  206 1    
   170   86  207 1    
   171   86  208 1    
   172   86  209 1    
   173   87   88 2    
   174   87   89 am   BACKBONE|DICT|INTERRES
   175   89   90 1    
   176   89  210 1    
   177   90   91 1    
   178   90   92 1    
   179   90  211 1    
   180   91  212 1    
   181   91  213 1    
   182   91  214 1    
   183   92   93 2    
   184   92   94 am   BACKBONE|DICT|INTERRES
   185   94   95 1    
   186   94  215 1    
   187   95   96 1    
   188   95   97 1    
   189   95  216 1    
   190   96  217 1    
   191   96  218 1    
   192   96  219 1    
   193   97   98 2    
   194   97   99 am   BACKBONE|DICT|INTERRES
   195   99  100 1    
   196   99  220 1    
   197  100  101 1    
   198  100  102 1    
   199  100  221 1    
   200  101  222 1    
   201  101  223 1    
   202  101  224 1    
   203  102  103 2    
   204  102  104 am   BACKBONE|DICT|INTERRES
   205  104  105 1    
   206  104  225 1    
   207  105  106 1    
   208  105  107 1    
   209  105  226 1    
   210  106  227 1    
   211  106  228 1    
   212  106  229 1    
   213  107  108 2    
   214  107  109 am   BACKBONE|DICT|INTERRES
   215  109  110 1    
   216  109  230 1    
   217  110  111 1    
   218  110  112 1    
   219  110  231 1    
   220  111  232 1    
   221  111  233 1    
   222  111  234 1    
   223  112  113 2    
   224  112  114 am   BACKBONE|DICT|INTERRES
   225  114  115 1    
   226  114  235 1    
   227  115  116 1    
   228  115  117 1    
   229  115  236 1    
   230  116  237 1    
   231  116  238 1    
   232  116  239 1    
   233  117  118 2    
   234  117  119 am   BACKBONE|DICT|INTERRES
   235  119  120 1    
   236  119  240 1    
   237  120  121 1    
   238  120  124 1    
   239  120  241 1    
   240  121  122 am   BACKBONE|DICT|INTERRES
   241  121  123 2    
   242  122  242 1    
   243  122  243 1    
   244  124  125 1    
   245  124  244 1    
   246  124  245 1    
   247  125  126 1    
   248  126  246 1    
   249  126  247 1    
@<TRIPOS>SUBSTRUCTURE
     1 UNK         1 GROUP             0       ****    0 ROOT    
