@<TRIPOS>MOLECULE
3R540
247   249    1
SMALL
USER_CHARGES


@<TRIPOS>ATOM
      1 CA          3.7257  -17.0125  -48.4455 C.3       0 UNK        -0.1800 
      2 C           2.2264  -17.2341  -48.3273 C.2       0 UNK         0.5000 
      3 O           1.8010  -18.2314  -47.7480 O.2       0 UNK        -0.5000 
      4 N           1.4248  -16.3189  -48.8862 N.am      1 UNK        -0.5000 
      5 CA         -0.0473  -16.3185  -48.8516 C.3       1 UNK         0.1400 
      6 C6         -0.7008  -15.8099  -50.1685 C.3       23 UNK        -0.0398 
      7 S7          0.2308  -14.4921  -51.0250 S.3       23 UNK        -0.2404 
      8 C8         -0.1116  -14.8955  -52.7745 C.3       23 UNK        -0.0205 
      9 C9          0.5267  -16.1697  -53.3404 C.ar      23 UNK        -0.0193 
     10 C10         0.3312  -16.4396  -54.6979 C.ar      23 UNK        -0.1150 
     11 C11         0.8763  -17.5788  -55.2955 C.ar      23 UNK        -0.0193 
     12 C12         1.6087  -18.4766  -54.5141 C.ar      23 UNK        -0.1150 
     13 C13         1.8021  -18.2372  -53.1509 C.ar      23 UNK        -0.0193 
     14 C14         1.2801  -17.0740  -52.5769 C.ar      23 UNK        -0.1150 
     15 C15         2.5870  -19.2305  -52.3038 C.3       23 UNK        -0.0205 
     16 S16         1.5581  -20.6386  -51.7700 S.3       23 UNK        -0.2404 
     17 C17         0.4931  -19.8661  -50.5080 C.3       23 UNK        -0.0398 
     18 CA          0.0516  -20.8574  -49.4059 C.3       11 UNK         0.1400 
     19 N           1.1610  -21.3621  -48.5919 N.am      11 UNK        -0.5000 
     20 C           1.0987  -22.5169  -47.9147 C.2       10 UNK         0.5000 
     21 O           0.1250  -23.2706  -47.9375 O.2       10 UNK        -0.5000 
     22 CA          2.3161  -22.8868  -47.0495 C.3       10 UNK         0.1400 
     23 CB          3.4734  -23.3862  -47.9285 C.3       10 UNK        -0.1800 
     24 N           2.7979  -21.8117  -46.1776 N.am      10 UNK        -0.5000 
     25 C           2.0711  -21.1825  -45.2438 C.2       9 UNK         0.5000 
     26 O           0.8559  -21.3332  -45.1044 O.2       9 UNK        -0.5000 
     27 CA          2.8522  -20.2378  -44.3075 C.3       9 UNK         0.1400 
     28 CB          3.2156  -18.9185  -44.9998 C.3       9 UNK        -0.1800 
     29 N           2.1346  -19.9397  -43.0668 N.am      9 UNK        -0.5000 
     30 C           1.9538  -20.8134  -42.0673 C.2       8 UNK         0.5000 
     31 O           2.4052  -21.9600  -42.0756 O.2       8 UNK        -0.5000 
     32 CA          1.1737  -20.3276  -40.8299 C.3       8 UNK         0.1400 
     33 CB          2.1407  -20.0011  -39.6805 C.3       8 UNK        -0.1800 
     34 N           0.3319  -19.1546  -41.0698 N.am      8 UNK        -0.5000 
     35 C          -0.8604  -19.1809  -41.6799 C.2       7 UNK         0.5000 
     36 O          -1.3427  -20.1901  -42.1946 O.2       7 UNK        -0.5000 
     37 CA         -1.6484  -17.8528  -41.6590 C.3       7 UNK         0.1400 
     38 CB         -3.0931  -17.9915  -42.1847 C.3       7 UNK        -0.1800 
     39 N          -1.6343  -17.2208  -40.3327 N.am      7 UNK        -0.5000 
     40 C          -2.0924  -17.7436  -39.1806 C.2       6 UNK         0.5000 
     41 O          -2.6457  -18.8405  -39.0976 O.2       6 UNK        -0.5000 
     42 CA         -1.8825  -16.9273  -37.8870 C.3       6 UNK         0.1400 
     43 CB         -0.7713  -17.5626  -37.0351 C.3       6 UNK        -0.1800 
     44 N          -1.5389  -15.5258  -38.1225 N.am      6 UNK        -0.5000 
     45 C          -2.3823  -14.5820  -38.5619 C.2       5 UNK         0.5000 
     46 O          -3.5869  -14.7683  -38.7356 O.2       5 UNK        -0.5000 
     47 CA         -1.7678  -13.2038  -38.8882 C.3       5 UNK         0.1400 
     48 CB         -2.0248  -12.2158  -37.7400 C.3       5 UNK        -0.1800 
     49 N          -0.3264  -13.2403  -39.1725 N.am      5 UNK        -0.5000 
     50 C           0.2390  -13.9040  -40.1893 C.2       4 UNK         0.5000 
     51 O          -0.3965  -14.5904  -40.9942 O.2       4 UNK        -0.5000 
     52 CA          1.7684  -13.8384  -40.2844 C.3       4 UNK         0.1400 
     53 CB          2.4212  -14.8233  -39.2984 C.3       4 UNK        -0.1800 
     54 N           2.1586  -14.1815  -41.6446 N.am      4 UNK        -0.5000 
     55 C           3.2398  -13.7480  -42.2955 C.2       3 UNK         0.5000 
     56 O           4.0936  -13.0206  -41.7864 O.2       3 UNK        -0.5000 
     57 CA          3.3911  -14.1710  -43.7716 C.3       3 UNK         0.1400 
     58 CB          4.0951  -15.5354  -43.8820 C.3       3 UNK        -0.1800 
     59 N           2.1410  -14.1422  -44.5484 N.am      3 UNK        -0.5000 
     60 C           1.0597  -14.9286  -44.4409 C.2       2 UNK         0.5000 
     61 O           0.9618  -15.8711  -43.6551 O.2       2 UNK        -0.5000 
     62 CA         -0.0976  -14.6140  -45.3943 C.3       2 UNK         0.1400 
     63 CB         -0.4438  -13.1141  -45.4584 C.3       2 UNK        -0.1800 
     64 N           0.2536  -15.1176  -46.7163 N.am      2 UNK        -0.5000 
     65 C          -0.6181  -15.6188  -47.5985 C.2       1 UNK         0.5000 
     66 O          -1.8376  -15.5936  -47.4320 O.2       1 UNK        -0.5000 
     67 C          -1.0502  -20.2490  -48.5168 C.2       11 UNK         0.5000 
     68 O          -2.2242  -20.3639  -48.8620 O.2       11 UNK        -0.5000 
     69 N          -0.6730  -19.6321  -47.3880 N.am      12 UNK        -0.5000 
     70 CA         -1.5772  -19.0261  -46.4078 C.3       12 UNK         0.1400 
     71 CB         -0.7588  -18.3322  -45.3096 C.3       12 UNK        -0.1800 
     72 C          -2.5515  -20.0492  -45.8055 C.2       12 UNK         0.5000 
     73 O          -3.7585  -19.8044  -45.7886 O.2       12 UNK        -0.5000 
     74 N          -2.0078  -21.2052  -45.4036 N.am      13 UNK        -0.5000 
     75 CA         -2.7498  -22.3653  -44.9120 C.3       13 UNK         0.1400 
     76 CB         -1.7490  -23.3982  -44.3731 C.3       13 UNK        -0.1800 
     77 C          -3.6636  -23.0022  -45.9788 C.2       13 UNK         0.5000 
     78 O          -4.6642  -23.6257  -45.6250 O.2       13 UNK        -0.5000 
     79 N          -3.3290  -22.8047  -47.2604 N.am      14 UNK        -0.5000 
     80 CA         -4.0929  -23.2416  -48.4264 C.3       14 UNK         0.1400 
     81 CB         -3.1154  -23.7492  -49.4973 C.3       14 UNK        -0.1800 
     82 C          -5.0088  -22.1179  -48.9544 C.2       14 UNK         0.5000 
     83 O          -5.1282  -21.9408  -50.1693 O.2       14 UNK        -0.5000 
     84 N          -5.6466  -21.3860  -48.0294 N.am      15 UNK        -0.5000 
     85 CA         -6.6384  -20.3314  -48.2616 C.3       15 UNK         0.1400 
     86 CB         -7.9307  -20.9352  -48.8528 C.3       15 UNK        -0.1800 
     87 C          -6.0913  -19.1532  -49.0931 C.2       15 UNK         0.5000 
     88 O          -6.7642  -18.6809  -50.0095 O.2       15 UNK        -0.5000 
     89 N          -4.8684  -18.7120  -48.7643 N.am      16 UNK        -0.5000 
     90 CA         -4.1136  -17.6496  -49.4418 C.3       16 UNK         0.1400 
     91 CB         -4.7790  -16.2748  -49.2252 C.3       16 UNK        -0.1800 
     92 C          -3.8576  -17.9809  -50.9273 C.2       16 UNK         0.5000 
     93 O          -4.1670  -17.1831  -51.8121 O.2       16 UNK        -0.5000 
     94 N          -3.3129  -19.1848  -51.1464 N.am      17 UNK        -0.5000 
     95 CA         -2.9619  -19.8385  -52.4120 C.3       17 UNK         0.1400 
     96 CB         -2.1165  -18.9212  -53.3206 C.3       17 UNK        -0.1800 
     97 C          -4.1539  -20.4199  -53.1922 C.2       17 UNK         0.5000 
     98 O          -3.9154  -21.1663  -54.1424 O.2       17 UNK        -0.5000 
     99 N          -5.3949  -20.0934  -52.8064 N.am      18 UNK        -0.5000 
    100 CA        -6.6100  -20.4352  -53.5473 C.3       18 UNK         0.1400 
    101 CB        -7.8019  -19.6593  -52.9693 C.3       18 UNK        -0.1800 
    102 C         -6.9237  -21.9405  -53.5935 C.2       18 UNK         0.5000 
    103 O         -7.4053  -22.4166  -54.6223 O.2       18 UNK        -0.5000 
    104 N         -6.6495  -22.6653  -52.4996 N.am      19 UNK        -0.5000 
    105 CA        -6.8813  -24.1100  -52.4165 C.3       19 UNK         0.1400 
    106 CB        -7.0811  -24.5243  -50.9506 C.3       19 UNK        -0.1800 
    107 C         -5.7366  -24.9136  -53.0577 C.2       19 UNK         0.5000 
    108 O         -5.9777  -26.0057  -53.5733 O.2       19 UNK        -0.5000 
    109 N         -4.5168  -24.3603  -53.0189 N.am      20 UNK        -0.5000 
    110 CA        -3.3247  -24.9504  -53.6288 C.3       20 UNK         0.1400 
    111 CB        -2.0691  -24.3526  -52.9718 C.3       20 UNK        -0.1800 
    112 C         -3.2715  -24.7391  -55.1520 C.2       20 UNK         0.5000 
    113 O         -2.7252  -25.5876  -55.8573 O.2       20 UNK        -0.5000 
    114 N         -3.8157  -23.6016  -55.6120 N.am      21 UNK        -0.5000 
    115 CA        -3.6361  -23.0037  -56.9380 C.3       21 UNK         0.1400 
    116 CB        -4.2160  -23.8970  -58.0550 C.3       21 UNK        -0.1800 
    117 C         -2.1610  -22.6038  -57.1548 C.2       21 UNK         0.5000 
    118 O         -1.5745  -22.9225  -58.1913 O.2       21 UNK        -0.5000 
    119 N         -1.5970  -21.9305  -56.1400 N.am      22 UNK        -0.5000 
    120 CA        -0.1746  -21.5631  -56.0026 C.3       22 UNK         0.1400 
    121 C          0.7716  -22.7908  -55.8070 C.2       22 UNK         0.5000 
    122 N          2.0823  -22.5885  -55.7531 N.am      22 UNK        -0.7600 
    123 O          0.3415  -23.9315  -55.6581 O.2       22 UNK        -0.5000 
    124 C124        0.3125  -20.5966  -57.1216 C.3       23 UNK        -0.0398 
    125 S125       -0.6137  -19.0223  -57.1558 S.3       23 UNK        -0.2404 
    126 C126        0.6949  -17.8087  -56.7896 C.3       23 UNK        -0.0205 
    127 H127        4.1926  -17.8713  -48.9274 H         1 UNK         0.0600 
    128 H128        4.1647  -16.8952  -47.4549 H         1 UNK         0.0600 
    129 H129        3.9597  -16.1235  -49.0316 H         1 UNK         0.0600 
    130 H130        1.8320  -15.5279  -49.3674 H         1 UNK         0.3000 
    131 H131       -0.3748  -17.3513  -48.7470 H         1 UNK         0.0600 
    132 H132       -1.7212  -15.4561  -50.0139 H         1 UNK         0.0800 
    133 H133       -0.8117  -16.6554  -50.8471 H         1 UNK         0.0800 
    134 H134        0.2228  -14.0497  -53.3768 H         1 UNK         0.0800 
    135 H135       -1.1929  -14.9567  -52.9086 H         1 UNK         0.0800 
    136 H136       -0.2433  -15.7483  -55.2988 H         1 UNK         0.1150 
    137 H137        2.0321  -19.3621  -54.9634 H         1 UNK         0.1150 
    138 H138        1.4619  -16.8924  -51.5306 H         1 UNK         0.1150 
    139 H139        3.4276  -19.6137  -52.8840 H         1 UNK         0.0800 
    140 H140        3.0227  -18.7390  -51.4326 H         1 UNK         0.0800 
    141 H141       -0.3749  -19.4559  -51.0195 H         1 UNK         0.0800 
    142 H142        1.0147  -19.0170  -50.0772 H         1 UNK         0.0800 
    143 H143       -0.4048  -21.7077  -49.9177 H         1 UNK         0.0600 
    144 H144        1.9766  -20.7727  -48.5032 H         1 UNK         0.3000 
    145 H145        2.0096  -23.7098  -46.4004 H         1 UNK         0.0600 
    146 H146        4.2932  -23.7706  -47.3215 H         1 UNK         0.0600 
    147 H147        3.1469  -24.1974  -48.5809 H         1 UNK         0.0600 
    148 H148        3.8690  -22.5932  -48.5645 H         1 UNK         0.0600 
    149 H149        3.7852  -21.6093  -46.2345 H         1 UNK         0.3000 
    150 H150        3.7838  -20.7431  -44.0439 H         1 UNK         0.0600 
    151 H151        3.6623  -19.0905  -45.9794 H         1 UNK         0.0600 
    152 H152        3.9485  -18.3688  -44.4115 H         1 UNK         0.0600 
    153 H153        2.3445  -18.2778  -45.1369 H         1 UNK         0.0600 
    154 H154        1.7065  -19.0292  -42.9936 H         1 UNK         0.3000 
    155 H155        0.5321  -21.1509  -40.5083 H         1 UNK         0.0600 
    156 H156        2.8026  -19.1721  -39.9346 H         1 UNK         0.0600 
    157 H157        2.7683  -20.8604  -39.4402 H         1 UNK         0.0600 
    158 H158        1.5990  -19.7334  -38.7729 H         1 UNK         0.0600 
    159 H159        0.6487  -18.2825  -40.6732 H         1 UNK         0.3000 
    160 H160       -1.1187  -17.1717  -42.3263 H         1 UNK         0.0600 
    161 H161       -3.6847  -18.6737  -41.5739 H         1 UNK         0.0600 
    162 H162       -3.1076  -18.3785  -43.2035 H         1 UNK         0.0600 
    163 H163       -3.6003  -17.0269  -42.1970 H         1 UNK         0.0600 
    164 H164       -1.2142  -16.2972  -40.3096 H         1 UNK         0.3000 
    165 H165       -2.8151  -16.9642  -37.3200 H         1 UNK         0.0600 
    166 H166        0.1900  -17.5474  -37.5507 H         1 UNK         0.0600 
    167 H167       -0.6527  -17.0390  -36.0862 H         1 UNK         0.0600 
    168 H168       -1.0016  -18.6032  -36.8027 H         1 UNK         0.0600 
    169 H169       -0.5713  -15.2713  -37.9937 H         1 UNK         0.3000 
    170 H170       -2.2725  -12.8295  -39.7813 H         1 UNK         0.0600 
    171 H171       -1.5215  -12.5252  -36.8231 H         1 UNK         0.0600 
    172 H172       -1.6762  -11.2147  -37.9945 H         1 UNK         0.0600 
    173 H173       -3.0906  -12.1401  -37.5198 H         1 UNK         0.0600 
    174 H174        0.2639  -12.7122  -38.5456 H         1 UNK         0.3000 
    175 H175        2.0855  -12.8186  -40.0565 H         1 UNK         0.0600 
    176 H176        2.1155  -15.8516  -39.4961 H         1 UNK         0.0600 
    177 H177        3.5087  -14.7814  -39.3619 H         1 UNK         0.0600 
    178 H178        2.1493  -14.5899  -38.2684 H         1 UNK         0.0600 
    179 H179        1.4929  -14.7660  -42.1457 H         1 UNK         0.3000 
    180 H180        4.0418  -13.4320  -44.2419 H         1 UNK         0.0600 
    181 H181        4.2028  -15.8437  -44.9219 H         1 UNK         0.0600 
    182 H182        3.5480  -16.3141  -43.3508 H         1 UNK         0.0600 
    183 H183        5.0949  -15.4916  -43.4486 H         1 UNK         0.0600 
    184 H184        2.0868  -13.3830  -45.2128 H         1 UNK         0.3000 
    185 H185       -0.9710  -15.1497  -45.0152 H         1 UNK         0.0600 
    186 H186       -0.6064  -12.7071  -44.4595 H         1 UNK         0.0600 
    187 H187        0.3434  -12.5285  -45.9340 H         1 UNK         0.0600 
    188 H188       -1.3604  -12.9526  -46.0260 H         1 UNK         0.0600 
    189 H189        1.2405  -15.2191  -46.9066 H         1 UNK         0.3000 
    190 H190        0.3197  -19.5319  -47.2060 H         1 UNK         0.3000 
    191 H191       -2.1643  -18.2674  -46.9255 H         1 UNK         0.0600 
    192 H192       -1.3898  -17.6635  -44.7259 H         1 UNK         0.0600 
    193 H193        0.0474  -17.7329  -45.7261 H         1 UNK         0.0600 
    194 H194       -0.3068  -19.0450  -44.6219 H         1 UNK         0.0600 
    195 H195       -0.9929  -21.2916  -45.4177 H         1 UNK         0.3000 
    196 H196       -3.3820  -22.0327  -44.0864 H         1 UNK         0.0600 
    197 H197       -1.0693  -23.7418  -45.1545 H         1 UNK         0.0600 
    198 H198       -1.1456  -22.9761  -43.5686 H         1 UNK         0.0600 
    199 H199       -2.2631  -24.2724  -43.9721 H         1 UNK         0.0600 
    200 H200       -2.5160  -22.2368  -47.4568 H         1 UNK         0.3000 
    201 H201       -4.7398  -24.0761  -48.1493 H         1 UNK         0.0600 
    202 H202       -2.5163  -22.9402  -49.9153 H         1 UNK         0.0600 
    203 H203       -3.6581  -24.2190  -50.3165 H         1 UNK         0.0600 
    204 H204       -2.4333  -24.4962  -49.0911 H         1 UNK         0.0600 
    205 H205       -5.4414  -21.5831  -47.0597 H         1 UNK         0.3000 
    206 H206       -6.8846  -19.9208  -47.2814 H         1 UNK         0.0600 
    207 H207       -8.3104  -21.7430  -48.2273 H         1 UNK         0.0600 
    208 H208       -8.7178  -20.1837  -48.9236 H         1 UNK         0.0600 
    209 H209       -7.7707  -21.3355  -49.8542 H         1 UNK         0.0600 
    210 H210       -4.3807  -19.2007  -48.0238 H         1 UNK         0.3000 
    211 H211       -3.1333  -17.6134  -48.9673 H         1 UNK         0.0600 
    212 H212       -4.1699  -15.4753  -49.6476 H         1 UNK         0.0600 
    213 H213       -4.8986  -16.0610  -48.1631 H         1 UNK         0.0600 
    214 H214       -5.7619  -16.2165  -49.6934 H         1 UNK         0.0600 
    215 H215       -3.1332  -19.7527  -50.3197 H         1 UNK         0.3000 
    216 H216       -2.3398  -20.6901  -52.1326 H         1 UNK         0.0600 
    217 H217       -2.7178  -18.1357  -53.7789 H         1 UNK         0.0600 
    218 H218       -1.6647  -19.4870  -54.1345 H         1 UNK         0.0600 
    219 H219       -1.3081  -18.4378  -52.7771 H         1 UNK         0.0600 
    220 H220       -5.5098  -19.5057  -51.9916 H         1 UNK         0.3000 
    221 H221       -6.4639  -20.1018  -54.5770 H         1 UNK         0.0600 
    222 H222       -7.6045  -18.5873  -52.9453 H         1 UNK         0.0600 
    223 H223       -8.0358  -19.9808  -51.9543 H         1 UNK         0.0600 
    224 H224       -8.6966  -19.8130  -53.5737 H         1 UNK         0.0600 
    225 H225       -6.2130  -22.2197  -51.6952 H         1 UNK         0.3000 
    226 H226       -7.8011  -24.3517  -52.9537 H         1 UNK         0.0600 
    227 H227       -6.1607  -24.4378  -50.3757 H         1 UNK         0.0600 
    228 H228       -7.8430  -23.9147  -50.4645 H         1 UNK         0.0600 
    229 H229       -7.4044  -25.5637  -50.8851 H         1 UNK         0.0600 
    230 H230       -4.4155  -23.4550  -52.5841 H         1 UNK         0.3000 
    231 H231       -3.3251  -26.0265  -53.4422 H         1 UNK         0.0600 
    232 H232       -2.0590  -23.2635  -53.0287 H         1 UNK         0.0600 
    233 H233       -1.1636  -24.7129  -53.4616 H         1 UNK         0.0600 
    234 H234       -1.9938  -24.6406  -51.9249 H         1 UNK         0.0600 
    235 H235       -4.1966  -22.9617  -54.9232 H         1 UNK         0.3000 
    236 H236       -4.2086  -22.0749  -56.9326 H         1 UNK         0.0600 
    237 H237       -5.2505  -24.1680  -57.8444 H         1 UNK         0.0600 
    238 H238       -4.2049  -23.3739  -59.0117 H         1 UNK         0.0600 
    239 H239       -3.6465  -24.8174  -58.1835 H         1 UNK         0.0600 
    240 H240       -2.1845  -21.7167  -55.3438 H         1 UNK         0.3000 
    241 H241       -0.1125  -21.0274  -55.0552 H         1 UNK         0.0600 
    242 H242        2.6837  -23.3849  -55.6095 H         1 UNK         0.3800 
    243 H243        2.4938  -21.6740  -55.8382 H         1 UNK         0.3800 
    244 H244        1.3721  -20.3723  -57.0089 H         1 UNK         0.0800 
    245 H245        0.2258  -21.0653  -58.1020 H         1 UNK         0.0800 
    246 H246        1.6402  -18.1122  -57.2411 H         1 UNK         0.0800 
    247 H247        0.4287  -16.8697  -57.2772 H         1 UNK         0.0800 
@<TRIPOS>BOND
     1    1    2 1    
     2    1  127 1    
     3    1  128 1    
     4    1  129 1    
     5    2    3 2    
     6    2    4 am   BACKBONE|DICT|INTERRES
     7    4    5 1    
     8    4  130 1    
     9    5    6 1    
    10    5   65 1    
    11    5  131 1    
    12    6    7 1    
    13    6  132 1    
    14    6  133 1    
    15    7    8 1    
    16    8    9 1    
    17    8  134 1    
    18    8  135 1    
    19    9   10 ar   
    20    9   14 ar   
    21   10   11 ar   
    22   10  136 1    
    23   11   12 ar   
    24   11  126 1    
    25   12   13 ar   
    26   12  137 1    
    27   13   14 ar   
    28   13   15 1    
    29   14  138 1    
    30   15   16 1    
    31   15  139 1    
    32   15  140 1    
    33   16   17 1    
    34   17   18 1    
    35   17  141 1    
    36   17  142 1    
    37   18   19 1    
    38   18   67 1    
    39   18  143 1    
    40   19   20 am   BACKBONE|DICT|INTERRES
    41   19  144 1    
    42   20   21 2    
    43   20   22 1    
    44   22   23 1    
    45   22   24 1    
    46   22  145 1    
    47   23  146 1    
    48   23  147 1    
    49   23  148 1    
    50   24   25 am   BACKBONE|DICT|INTERRES
    51   24  149 1    
    52   25   26 2    
    53   25   27 1    
    54   27   28 1    
    55   27   29 1    
    56   27  150 1    
    57   28  151 1    
    58   28  152 1    
    59   28  153 1    
    60   29   30 am   BACKBONE|DICT|INTERRES
    61   29  154 1    
    62   30   31 2    
    63   30   32 1    
    64   32   33 1    
    65   32   34 1    
    66   32  155 1    
    67   33  156 1    
    68   33  157 1    
    69   33  158 1    
    70   34   35 am   BACKBONE|DICT|INTERRES
    71   34  159 1    
    72   35   36 2    
    73   35   37 1    
    74   37   38 1    
    75   37   39 1    
    76   37  160 1    
    77   38  161 1    
    78   38  162 1    
    79   38  163 1    
    80   39   40 am   BACKBONE|DICT|INTERRES
    81   39  164 1    
    82   40   41 2    
    83   40   42 1    
    84   42   43 1    
    85   42   44 1    
    86   42  165 1    
    87   43  166 1    
    88   43  167 1    
    89   43  168 1    
    90   44   45 am   BACKBONE|DICT|INTERRES
    91   44  169 1    
    92   45   46 2    
    93   45   47 1    
    94   47   48 1    
    95   47   49 1    
    96   47  170 1    
    97   48  171 1    
    98   48  172 1    
    99   48  173 1    
   100   49   50 am   BACKBONE|DICT|INTERRES
   101   49  174 1    
   102   50   51 2    
   103   50   52 1    
   104   52   53 1    
   105   52   54 1    
   106   52  175 1    
   107   53  176 1    
   108   53  177 1    
   109   53  178 1    
   110   54   55 am   BACKBONE|DICT|INTERRES
   111   54  179 1    
   112   55   56 2    
   113   55   57 1    
   114   57   58 1    
   115   57   59 1    
   116   57  180 1    
   117   58  181 1    
   118   58  182 1    
   119   58  183 1    
   120   59   60 am   BACKBONE|DICT|INTERRES
   121   59  184 1    
   122   60   61 2    
   123   60   62 1    
   124   62   63 1    
   125   62   64 1    
   126   62  185 1    
   127   63  186 1    
   128   63  187 1    
   129   63  188 1    
   130   64   65 am   BACKBONE|DICT|INTERRES
   131   64  189 1    
   132   65   66 2    
   133   67   68 2    
   134   67   69 am   BACKBONE|DICT|INTERRES
   135   69   70 1    
   136   69  190 1    
   137   70   71 1    
   138   70   72 1    
   139   70  191 1    
   140   71  192 1    
   141   71  193 1    
   142   71  194 1    
   143   72   73 2    
   144   72   74 am   BACKBONE|DICT|INTERRES
   145   74   75 1    
   146   74  195 1    
   147   75   76 1    
   148   75   77 1    
   149   75  196 1    
   150   76  197 1    
   151   76  198 1    
   152   76  199 1    
   153   77   78 2    
   154   77   79 am   BACKBONE|DICT|INTERRES
   155   79   80 1    
   156   79  200 1    
   157   80   81 1    
   158   80   82 1    
   159   80  201 1    
   160   81  202 1    
   161   81  203 1    
   162   81  204 1    
   163   82   83 2    
   164   82   84 am   BACKBONE|DICT|INTERRES
   165   84   85 1    
   166   84  205 1    
   167   85   86 1    
   168   85   87 1    
   169   85  206 1    
   170   86  207 1    
   171   86  208 1    
   172   86  209 1    
   173   87   88 2    
   174   87   89 am   BACKBONE|DICT|INTERRES
   175   89   90 1    
   176   89  210 1    
   177   90   91 1    
   178   90   92 1    
   179   90  211 1    
   180   91  212 1    
   181   91  213 1    
   182   91  214 1    
   183   92   93 2    
   184   92   94 am   BACKBONE|DICT|INTERRES
   185   94   95 1    
   186   94  215 1    
   187   95   96 1    
   188   95   97 1    
   189   95  216 1    
   190   96  217 1    
   191   96  218 1    
   192   96  219 1    
   193   97   98 2    
   194   97   99 am   BACKBONE|DICT|INTERRES
   195   99  100 1    
   196   99  220 1    
   197  100  101 1    
   198  100  102 1    
   199  100  221 1    
   200  101  222 1    
   201  101  223 1    
   202  101  224 1    
   203  102  103 2    
   204  102  104 am   BACKBONE|DICT|INTERRES
   205  104  105 1    
   206  104  225 1    
   207  105  106 1    
   208  105  107 1    
   209  105  226 1    
   210  106  227 1    
   211  106  228 1    
   212  106  229 1    
   213  107  108 2    
   214  107  109 am   BACKBONE|DICT|INTERRES
   215  109  110 1    
   216  109  230 1    
   217  110  111 1    
   218  110  112 1    
   219  110  231 1    
   220  111  232 1    
   221  111  233 1    
   222  111  234 1    
   223  112  113 2    
   224  112  114 am   BACKBONE|DICT|INTERRES
   225  114  115 1    
   226  114  235 1    
   227  115  116 1    
   228  115  117 1    
   229  115  236 1    
   230  116  237 1    
   231  116  238 1    
   232  116  239 1    
   233  117  118 2    
   234  117  119 am   BACKBONE|DICT|INTERRES
   235  119  120 1    
   236  119  240 1    
   237  120  121 1    
   238  120  124 1    
   239  120  241 1    
   240  121  122 am   BACKBONE|DICT|INTERRES
   241  121  123 2    
   242  122  242 1    
   243  122  243 1    
   244  124  125 1    
   245  124  244 1    
   246  124  245 1    
   247  125  126 1    
   248  126  246 1    
   249  126  247 1    
@<TRIPOS>SUBSTRUCTURE
     1 UNK         1 GROUP             0       ****    0 ROOT    
