@<TRIPOS>MOLECULE
3R540
247   249    1
SMALL
USER_CHARGES


@<TRIPOS>ATOM
      1 CA          5.8958  -13.2818  -50.4397 C.3       0 UNK        -0.1800 
      2 C           5.0310  -12.7645  -49.2988 C.2       0 UNK         0.5000 
      3 O           4.9063  -11.5515  -49.1308 O.2       0 UNK        -0.5000 
      4 N           4.4421  -13.6825  -48.5186 N.am      1 UNK        -0.5000 
      5 CA          3.5566  -13.4198  -47.3726 C.3       1 UNK         0.1400 
      6 C6          2.2132  -12.7344  -47.7538 C.3       23 UNK        -0.0398 
      7 S7          1.2851  -13.6628  -49.0212 S.3       23 UNK        -0.2404 
      8 C8          0.2299  -14.7057  -47.9688 C.3       23 UNK        -0.0205 
      9 C9         -0.3690  -15.8682  -48.7467 C.ar      23 UNK        -0.0193 
     10 C10        -1.7539  -15.9889  -48.9038 C.ar      23 UNK        -0.1150 
     11 C11        -2.2994  -17.1018  -49.5534 C.ar      23 UNK        -0.0193 
     12 C12        -1.4472  -18.0718  -50.0873 C.ar      23 UNK        -0.1150 
     13 C13        -0.0615  -17.9608  -49.9399 C.ar      23 UNK        -0.0193 
     14 C14         0.4687  -16.8615  -49.2608 C.ar      23 UNK        -0.1150 
     15 C15         0.8701  -19.0331  -50.4899 C.3       23 UNK        -0.0205 
     16 S16         0.4410  -20.7151  -49.9316 S.3       23 UNK        -0.2404 
     17 C17         0.3306  -20.4722  -48.1261 C.3       23 UNK        -0.0398 
     18 CA          0.0687  -21.7761  -47.3426 C.3       11 UNK         0.1400 
     19 N           0.2450  -21.5720  -45.9068 N.am      11 UNK        -0.5000 
     20 C           0.3148  -22.5530  -44.9985 C.2       10 UNK         0.5000 
     21 O           0.2792  -23.7513  -45.2796 O.2       10 UNK        -0.5000 
     22 CA          0.3996  -22.1163  -43.5250 C.3       10 UNK         0.1400 
     23 CB          1.8349  -21.7099  -43.1594 C.3       10 UNK        -0.1800 
     24 N          -0.5175  -21.0196  -43.2067 N.am      10 UNK        -0.5000 
     25 C          -1.8536  -21.1070  -43.2866 C.2       9 UNK         0.5000 
     26 O          -2.4545  -22.1282  -43.6197 O.2       9 UNK        -0.5000 
     27 CA         -2.6552  -19.8297  -42.9840 C.3       9 UNK         0.1400 
     28 CB         -2.7308  -19.5808  -41.4703 C.3       9 UNK        -0.1800 
     29 N          -2.1172  -18.6465  -43.6555 N.am      9 UNK        -0.5000 
     30 C          -2.0283  -18.5001  -44.9853 C.2       8 UNK         0.5000 
     31 O          -2.4006  -19.3456  -45.7952 O.2       8 UNK        -0.5000 
     32 CA         -1.3601  -17.2187  -45.5048 C.3       8 UNK         0.1400 
     33 CB         -2.3121  -16.0183  -45.3971 C.3       8 UNK        -0.1800 
     34 N          -0.1027  -16.9248  -44.8216 N.am      8 UNK        -0.5000 
     35 C           0.9650  -17.7362  -44.8173 C.2       7 UNK         0.5000 
     36 O           1.0236  -18.8056  -45.4236 O.2       7 UNK        -0.5000 
     37 CA          2.1470  -17.3014  -43.9386 C.3       7 UNK         0.1400 
     38 CB          3.0008  -16.2428  -44.6557 C.3       7 UNK        -0.1800 
     39 N           1.6925  -16.8027  -42.6393 N.am      7 UNK        -0.5000 
     40 C           1.1189  -17.5724  -41.7013 C.2       6 UNK         0.5000 
     41 O           0.9786  -18.7913  -41.8060 O.2       6 UNK        -0.5000 
     42 CA          0.5562  -16.8514  -40.4645 C.3       6 UNK         0.1400 
     43 CB          1.6458  -16.6386  -39.4048 C.3       6 UNK        -0.1800 
     44 N          -0.0626  -15.5704  -40.8103 N.am      6 UNK        -0.5000 
     45 C          -1.2307  -15.4690  -41.4618 C.2       5 UNK         0.5000 
     46 O          -1.8990  -16.4413  -41.8094 O.2       5 UNK        -0.5000 
     47 CA         -1.7283  -14.0571  -41.8204 C.3       5 UNK         0.1400 
     48 CB         -2.6115  -13.4979  -40.6955 C.3       5 UNK        -0.1800 
     49 N          -0.6551  -13.1065  -42.1061 N.am      5 UNK        -0.5000 
     50 C           0.2451  -13.2239  -43.0909 C.2       4 UNK         0.5000 
     51 O           0.2795  -14.1742  -43.8753 O.2       4 UNK        -0.5000 
     52 CA          1.3050  -12.1103  -43.2093 C.3       4 UNK         0.1400 
     53 CB          1.0354  -10.8792  -42.3152 C.3       4 UNK        -0.1800 
     54 N           2.6616  -12.6101  -42.9738 N.am      4 UNK        -0.5000 
     55 C           3.1163  -13.2728  -41.8978 C.2       3 UNK         0.5000 
     56 O           2.3975  -13.6102  -40.9557 O.2       3 UNK        -0.5000 
     57 CA          4.6187  -13.6280  -41.8662 C.3       3 UNK         0.1400 
     58 CB          4.8640  -15.0518  -41.3364 C.3       3 UNK        -0.1800 
     59 N           5.2486  -13.4883  -43.1829 N.am      3 UNK        -0.5000 
     60 C           5.9942  -12.4446  -43.5693 C.2       2 UNK         0.5000 
     61 O           6.2838  -11.4979  -42.8370 O.2       2 UNK        -0.5000 
     62 CA          6.4763  -12.4417  -45.0339 C.3       2 UNK         0.1400 
     63 CB          7.8535  -13.1128  -45.1465 C.3       2 UNK        -0.1800 
     64 N           5.5556  -13.0790  -45.9829 N.am      2 UNK        -0.5000 
     65 C           4.2958  -12.6868  -46.2286 C.2       1 UNK         0.5000 
     66 O           3.7308  -11.7949  -45.5945 O.2       1 UNK        -0.5000 
     67 C          -1.3126  -22.3853  -47.6618 C.2       11 UNK         0.5000 
     68 O          -1.3808  -23.3565  -48.4171 O.2       11 UNK        -0.5000 
     69 N          -2.3850  -21.8391  -47.0707 N.am      12 UNK        -0.5000 
     70 CA         -3.7623  -22.3080  -47.2432 C.3       12 UNK         0.1400 
     71 CB         -4.7387  -21.3260  -46.5806 C.3       12 UNK        -0.1800 
     72 C          -3.9906  -23.7376  -46.7259 C.2       12 UNK         0.5000 
     73 O          -4.7306  -24.4946  -47.3545 O.2       12 UNK        -0.5000 
     74 N          -3.3236  -24.0933  -45.6191 N.am      13 UNK        -0.5000 
     75 CA         -3.3026  -25.4473  -45.0656 C.3       13 UNK         0.1400 
     76 CB         -2.6411  -25.4231  -43.6794 C.3       13 UNK        -0.1800 
     77 C          -2.5973  -26.4625  -45.9860 C.2       13 UNK         0.5000 
     78 O          -2.9773  -27.6341  -45.9889 O.2       13 UNK        -0.5000 
     79 N          -1.5981  -26.0012  -46.7519 N.am      14 UNK        -0.5000 
     80 CA         -0.8945  -26.7985  -47.7518 C.3       14 UNK         0.1400 
     81 CB          0.4876  -26.1882  -48.0402 C.3       14 UNK        -0.1800 
     82 C          -1.7302  -26.9596  -49.0342 C.2       14 UNK         0.5000 
     83 O          -2.0337  -28.0933  -49.4091 O.2       14 UNK        -0.5000 
     84 N          -2.0933  -25.8377  -49.6754 N.am      15 UNK        -0.5000 
     85 CA         -2.8404  -25.8152  -50.9416 C.3       15 UNK         0.1400 
     86 CB         -1.9763  -26.3929  -52.0859 C.3       15 UNK        -0.1800 
     87 C          -3.3461  -24.4238  -51.3680 C.2       15 UNK         0.5000 
     88 O          -4.1336  -24.3551  -52.3117 O.2       15 UNK        -0.5000 
     89 N          -2.8606  -23.3398  -50.7446 N.am      16 UNK        -0.5000 
     90 CA         -2.9930  -21.9444  -51.1925 C.3       16 UNK         0.1400 
     91 CB         -4.4592  -21.4657  -51.1808 C.3       16 UNK        -0.1800 
     92 C          -2.3071  -21.7225  -52.5587 C.2       16 UNK         0.5000 
     93 O          -2.8618  -21.0573  -53.4346 O.2       16 UNK        -0.5000 
     94 N          -1.1262  -22.3380  -52.7185 N.am      17 UNK        -0.5000 
     95 CA         -0.2100  -22.3337  -53.8669 C.3       17 UNK         0.1400 
     96 CB          0.3074  -20.9139  -54.1619 C.3       17 UNK        -0.1800 
     97 C          -0.7333  -22.9993  -55.1557 C.2       17 UNK         0.5000 
     98 O           0.0505  -23.6578  -55.8408 O.2       17 UNK        -0.5000 
     99 N          -2.0178  -22.8192  -55.4779 N.am      18 UNK        -0.5000 
    100 CA        -2.6300  -23.2468  -56.7344 C.3       18 UNK         0.1400 
    101 CB        -2.5025  -22.1213  -57.7799 C.3       18 UNK        -0.1800 
    102 C         -4.0708  -23.7406  -56.5203 C.2       18 UNK         0.5000 
    103 O         -4.9677  -23.3672  -57.2766 O.2       18 UNK        -0.5000 
    104 N         -4.2496  -24.5982  -55.5048 N.am      19 UNK        -0.5000 
    105 CA        -5.4691  -25.3435  -55.1697 C.3       19 UNK         0.1400 
    106 CB        -5.8141  -26.3531  -56.2851 C.3       19 UNK        -0.1800 
    107 C         -6.6528  -24.4251  -54.8071 C.2       19 UNK         0.5000 
    108 O         -7.6049  -24.2954  -55.5792 O.2       19 UNK        -0.5000 
    109 N         -6.5536  -23.8075  -53.6223 N.am      20 UNK        -0.5000 
    110 CA        -7.5370  -22.9098  -53.0016 C.3       20 UNK         0.1400 
    111 CB        -8.8739  -23.6363  -52.7415 C.3       20 UNK        -0.1800 
    112 C         -7.7126  -21.5783  -53.7628 C.2       20 UNK         0.5000 
    113 O         -8.7912  -20.9830  -53.7237 O.2       20 UNK        -0.5000 
    114 N         -6.6398  -21.1155  -54.4223 N.am      21 UNK        -0.5000 
    115 CA        -6.6084  -19.9105  -55.2592 C.3       21 UNK         0.1400 
    116 CB        -5.2423  -19.8162  -55.9517 C.3       21 UNK        -0.1800 
    117 C         -6.9292  -18.6000  -54.5131 C.2       21 UNK         0.5000 
    118 O         -7.4230  -17.6578  -55.1343 O.2       21 UNK        -0.5000 
    119 N         -6.6729  -18.5725  -53.1996 N.am      22 UNK        -0.5000 
    120 CA        -7.0698  -17.4836  -52.2924 C.3       22 UNK         0.1400 
    121 C         -8.5902  -17.4606  -51.9446 C.2       22 UNK         0.5000 
    122 N         -9.3888  -18.4557  -52.3156 N.am      22 UNK        -0.7600 
    123 O         -9.0608  -16.5085  -51.3280 O.2       22 UNK        -0.5000 
    124 C124       -6.2123  -17.4693  -51.0016 C.3       23 UNK        -0.0398 
    125 S125       -4.4378  -17.2023  -51.3267 S.3       23 UNK        -0.2404 
    126 C126       -3.8065  -17.2952  -49.6240 C.3       23 UNK        -0.0205 
    127 H127        5.9159  -14.3714  -50.4727 H         1 UNK         0.0600 
    128 H128        6.9198  -12.9261  -50.3253 H         1 UNK         0.0600 
    129 H129        5.5125  -12.9203  -51.3939 H         1 UNK         0.0600 
    130 H130        4.5876  -14.6594  -48.7314 H         1 UNK         0.3000 
    131 H131        3.3072  -14.4006  -46.9678 H         1 UNK         0.0600 
    132 H132        2.3910  -11.7269  -48.1325 H         1 UNK         0.0800 
    133 H133        1.5761  -12.6160  -46.8752 H         1 UNK         0.0800 
    134 H134        0.8140  -15.1060  -47.1387 H         1 UNK         0.0800 
    135 H135       -0.5514  -14.0851  -47.5281 H         1 UNK         0.0800 
    136 H136       -2.4082  -15.2369  -48.4860 H         1 UNK         0.1150 
    137 H137       -1.8661  -18.9278  -50.5965 H         1 UNK         0.1150 
    138 H138        1.5378  -16.7747  -49.1271 H         1 UNK         0.1150 
    139 H139        0.8373  -18.9946  -51.5781 H         1 UNK         0.0800 
    140 H140        1.9037  -18.8296  -50.2062 H         1 UNK         0.0800 
    141 H141        1.2748  -20.0325  -47.8018 H         1 UNK         0.0800 
    142 H142       -0.4406  -19.7345  -47.8980 H         1 UNK         0.0800 
    143 H143        0.8210  -22.5045  -47.6533 H         1 UNK         0.0600 
    144 H144        0.3192  -20.6074  -45.5948 H         1 UNK         0.3000 
    145 H145        0.1209  -22.9739  -42.9091 H         1 UNK         0.0600 
    146 H146        1.9217  -21.4876  -42.0957 H         1 UNK         0.0600 
    147 H147        2.5384  -22.5130  -43.3827 H         1 UNK         0.0600 
    148 H148        2.1564  -20.8262  -43.7119 H         1 UNK         0.0600 
    149 H149       -0.0961  -20.1481  -42.9015 H         1 UNK         0.3000 
    150 H150       -3.6715  -19.9836  -43.3522 H         1 UNK         0.0600 
    151 H151       -3.1265  -20.4533  -40.9490 H         1 UNK         0.0600 
    152 H152       -3.3876  -18.7413  -41.2423 H         1 UNK         0.0600 
    153 H153       -1.7494  -19.3614  -41.0485 H         1 UNK         0.0600 
    154 H154       -1.8278  -17.8794  -43.0547 H         1 UNK         0.3000 
    155 H155       -1.1255  -17.3830  -46.5564 H         1 UNK         0.0600 
    156 H156       -3.2045  -16.1779  -46.0034 H         1 UNK         0.0600 
    157 H157       -1.8392  -15.1012  -45.7462 H         1 UNK         0.0600 
    158 H158       -2.6401  -15.8536  -44.3716 H         1 UNK         0.0600 
    159 H159       -0.0451  -16.0401  -44.3257 H         1 UNK         0.3000 
    160 H160        2.7721  -18.1807  -43.7686 H         1 UNK         0.0600 
    161 H161        2.4805  -15.2899  -44.7469 H         1 UNK         0.0600 
    162 H162        3.2605  -16.5727  -45.6625 H         1 UNK         0.0600 
    163 H163        3.9375  -16.0694  -44.1299 H         1 UNK         0.0600 
    164 H164        1.7021  -15.8029  -42.4991 H         1 UNK         0.3000 
    165 H165       -0.2105  -17.4949  -40.0272 H         1 UNK         0.0600 
    166 H166        1.2365  -16.1781  -38.5056 H         1 UNK         0.0600 
    167 H167        2.0931  -17.5886  -39.1098 H         1 UNK         0.0600 
    168 H168        2.4472  -16.0000  -39.7723 H         1 UNK         0.0600 
    169 H169        0.4661  -14.7314  -40.6030 H         1 UNK         0.3000 
    170 H170       -2.3392  -14.1420  -42.7207 H         1 UNK         0.0600 
    171 H171       -3.4382  -14.1747  -40.4752 H         1 UNK         0.0600 
    172 H172       -2.0472  -13.3574  -39.7727 H         1 UNK         0.0600 
    173 H173       -3.0456  -12.5375  -40.9743 H         1 UNK         0.0600 
    174 H174       -0.5878  -12.3071  -41.4933 H         1 UNK         0.3000 
    175 H175        1.2730  -11.7763  -44.2471 H         1 UNK         0.0600 
    176 H176        1.0862  -11.1202  -41.2527 H         1 UNK         0.0600 
    177 H177        1.7692  -10.0962  -42.5071 H         1 UNK         0.0600 
    178 H178        0.0534  -10.4494  -42.5175 H         1 UNK         0.0600 
    179 H179        3.3191  -12.3898  -43.7137 H         1 UNK         0.3000 
    180 H180        5.0828  -12.9376  -41.1593 H         1 UNK         0.0600 
    181 H181        4.2939  -15.8009  -41.8835 H         1 UNK         0.0600 
    182 H182        4.5793  -15.1269  -40.2868 H         1 UNK         0.0600 
    183 H183        5.9187  -15.3203  -41.3987 H         1 UNK         0.0600 
    184 H184        5.0644  -14.2170  -43.8560 H         1 UNK         0.3000 
    185 H185        6.5821  -11.3978  -45.3363 H         1 UNK         0.0600 
    186 H186        8.5727  -12.6461  -44.4719 H         1 UNK         0.0600 
    187 H187        7.8067  -14.1729  -44.8939 H         1 UNK         0.0600 
    188 H188        8.2545  -13.0247  -46.1565 H         1 UNK         0.0600 
    189 H189        5.9449  -13.8120  -46.5581 H         1 UNK         0.3000 
    190 H190       -2.2667  -21.0135  -46.4854 H         1 UNK         0.3000 
    191 H191       -3.9719  -22.3174  -48.3118 H         1 UNK         0.0600 
    192 H192       -4.6625  -20.3345  -47.0274 H         1 UNK         0.0600 
    193 H193       -5.7708  -21.6573  -46.7012 H         1 UNK         0.0600 
    194 H194       -4.5456  -21.2291  -45.5117 H         1 UNK         0.0600 
    195 H195       -2.7927  -23.3878  -45.1167 H         1 UNK         0.3000 
    196 H196       -4.3365  -25.7762  -44.9429 H         1 UNK         0.0600 
    197 H197       -2.6202  -26.4201  -43.2376 H         1 UNK         0.0600 
    198 H198       -3.1877  -24.7756  -42.9936 H         1 UNK         0.0600 
    199 H199       -1.6128  -25.0639  -43.7307 H         1 UNK         0.0600 
    200 H200       -1.3436  -25.0246  -46.6851 H         1 UNK         0.3000 
    201 H201       -0.7250  -27.7955  -47.3389 H         1 UNK         0.0600 
    202 H202        1.0841  -26.1231  -47.1300 H         1 UNK         0.0600 
    203 H203        0.4216  -25.1870  -48.4636 H         1 UNK         0.0600 
    204 H204        1.0419  -26.8044  -48.7490 H         1 UNK         0.0600 
    205 H205       -1.8372  -24.9469  -49.2600 H         1 UNK         0.3000 
    206 H206       -3.7272  -26.4403  -50.8208 H         1 UNK         0.0600 
    207 H207       -1.7257  -27.4402  -51.9217 H         1 UNK         0.0600 
    208 H208       -2.4990  -26.3473  -53.0423 H         1 UNK         0.0600 
    209 H209       -1.0428  -25.8401  -52.1973 H         1 UNK         0.0600 
    210 H210       -2.2427  -23.4628  -49.9467 H         1 UNK         0.3000 
    211 H211       -2.4496  -21.3400  -50.4661 H         1 UNK         0.0600 
    212 H212       -5.0104  -21.8699  -52.0259 H         1 UNK         0.0600 
    213 H213       -4.5075  -20.3791  -51.2558 H         1 UNK         0.0600 
    214 H214       -4.9805  -21.7550  -50.2700 H         1 UNK         0.0600 
    215 H215       -0.7986  -22.8818  -51.9333 H         1 UNK         0.3000 
    216 H216        0.6487  -22.9278  -53.5498 H         1 UNK         0.0600 
    217 H217        1.0117  -20.9193  -54.9948 H         1 UNK         0.0600 
    218 H218        0.8338  -20.5062  -53.3009 H         1 UNK         0.0600 
    219 H219       -0.4993  -20.2285  -54.4229 H         1 UNK         0.0600 
    220 H220       -2.5822  -22.2415  -54.8589 H         1 UNK         0.3000 
    221 H221       -2.0932  -24.1148  -57.1229 H         1 UNK         0.0600 
    222 H222       -2.9686  -22.4012  -58.7253 H         1 UNK         0.0600 
    223 H223       -1.4560  -21.9020  -57.9920 H         1 UNK         0.0600 
    224 H224       -2.9696  -21.1985  -57.4379 H         1 UNK         0.0600 
    225 H225       -3.4574  -24.7805  -54.9048 H         1 UNK         0.3000 
    226 H226       -5.2389  -25.9260  -54.2762 H         1 UNK         0.0600 
    227 H227       -4.9831  -27.0337  -56.4704 H         1 UNK         0.0600 
    228 H228       -6.6752  -26.9609  -56.0050 H         1 UNK         0.0600 
    229 H229       -6.0576  -25.8587  -57.2260 H         1 UNK         0.0600 
    230 H230       -5.7042  -23.9750  -53.0821 H         1 UNK         0.3000 
    231 H231       -7.1345  -22.6468  -52.0237 H         1 UNK         0.0600 
    232 H232       -9.4036  -23.8609  -53.6675 H         1 UNK         0.0600 
    233 H233       -9.5374  -23.0245  -52.1293 H         1 UNK         0.0600 
    234 H234       -8.7163  -24.5736  -52.2079 H         1 UNK         0.0600 
    235 H235       -5.7955  -21.6682  -54.4007 H         1 UNK         0.3000 
    236 H236       -7.3705  -20.0328  -56.0314 H         1 UNK         0.0600 
    237 H237       -5.0716  -20.6845  -56.5859 H         1 UNK         0.0600 
    238 H238       -5.1845  -18.9338  -56.5903 H         1 UNK         0.0600 
    239 H239       -4.4267  -19.7544  -55.2306 H         1 UNK         0.0600 
    240 H240       -6.2510  -19.3836  -52.7751 H         1 UNK         0.3000 
    241 H241       -6.8803  -16.5421  -52.8117 H         1 UNK         0.0600 
    242 H242      -10.3677  -18.4096  -52.0814 H         1 UNK         0.3800 
    243 H243       -9.0429  -19.2545  -52.8379 H         1 UNK         0.3800 
    244 H244       -6.5434  -16.6737  -50.3314 H         1 UNK         0.0800 
    245 H245       -6.3366  -18.4048  -50.4535 H         1 UNK         0.0800 
    246 H246       -4.3165  -16.5495  -49.0120 H         1 UNK         0.0800 
    247 H247       -4.0571  -18.2682  -49.1979 H         1 UNK         0.0800 
@<TRIPOS>BOND
     1    1    2 1    
     2    1  127 1    
     3    1  128 1    
     4    1  129 1    
     5    2    3 2    
     6    2    4 am   BACKBONE|DICT|INTERRES
     7    4    5 1    
     8    4  130 1    
     9    5    6 1    
    10    5   65 1    
    11    5  131 1    
    12    6    7 1    
    13    6  132 1    
    14    6  133 1    
    15    7    8 1    
    16    8    9 1    
    17    8  134 1    
    18    8  135 1    
    19    9   10 ar   
    20    9   14 ar   
    21   10   11 ar   
    22   10  136 1    
    23   11   12 ar   
    24   11  126 1    
    25   12   13 ar   
    26   12  137 1    
    27   13   14 ar   
    28   13   15 1    
    29   14  138 1    
    30   15   16 1    
    31   15  139 1    
    32   15  140 1    
    33   16   17 1    
    34   17   18 1    
    35   17  141 1    
    36   17  142 1    
    37   18   19 1    
    38   18   67 1    
    39   18  143 1    
    40   19   20 am   BACKBONE|DICT|INTERRES
    41   19  144 1    
    42   20   21 2    
    43   20   22 1    
    44   22   23 1    
    45   22   24 1    
    46   22  145 1    
    47   23  146 1    
    48   23  147 1    
    49   23  148 1    
    50   24   25 am   BACKBONE|DICT|INTERRES
    51   24  149 1    
    52   25   26 2    
    53   25   27 1    
    54   27   28 1    
    55   27   29 1    
    56   27  150 1    
    57   28  151 1    
    58   28  152 1    
    59   28  153 1    
    60   29   30 am   BACKBONE|DICT|INTERRES
    61   29  154 1    
    62   30   31 2    
    63   30   32 1    
    64   32   33 1    
    65   32   34 1    
    66   32  155 1    
    67   33  156 1    
    68   33  157 1    
    69   33  158 1    
    70   34   35 am   BACKBONE|DICT|INTERRES
    71   34  159 1    
    72   35   36 2    
    73   35   37 1    
    74   37   38 1    
    75   37   39 1    
    76   37  160 1    
    77   38  161 1    
    78   38  162 1    
    79   38  163 1    
    80   39   40 am   BACKBONE|DICT|INTERRES
    81   39  164 1    
    82   40   41 2    
    83   40   42 1    
    84   42   43 1    
    85   42   44 1    
    86   42  165 1    
    87   43  166 1    
    88   43  167 1    
    89   43  168 1    
    90   44   45 am   BACKBONE|DICT|INTERRES
    91   44  169 1    
    92   45   46 2    
    93   45   47 1    
    94   47   48 1    
    95   47   49 1    
    96   47  170 1    
    97   48  171 1    
    98   48  172 1    
    99   48  173 1    
   100   49   50 am   BACKBONE|DICT|INTERRES
   101   49  174 1    
   102   50   51 2    
   103   50   52 1    
   104   52   53 1    
   105   52   54 1    
   106   52  175 1    
   107   53  176 1    
   108   53  177 1    
   109   53  178 1    
   110   54   55 am   BACKBONE|DICT|INTERRES
   111   54  179 1    
   112   55   56 2    
   113   55   57 1    
   114   57   58 1    
   115   57   59 1    
   116   57  180 1    
   117   58  181 1    
   118   58  182 1    
   119   58  183 1    
   120   59   60 am   BACKBONE|DICT|INTERRES
   121   59  184 1    
   122   60   61 2    
   123   60   62 1    
   124   62   63 1    
   125   62   64 1    
   126   62  185 1    
   127   63  186 1    
   128   63  187 1    
   129   63  188 1    
   130   64   65 am   BACKBONE|DICT|INTERRES
   131   64  189 1    
   132   65   66 2    
   133   67   68 2    
   134   67   69 am   BACKBONE|DICT|INTERRES
   135   69   70 1    
   136   69  190 1    
   137   70   71 1    
   138   70   72 1    
   139   70  191 1    
   140   71  192 1    
   141   71  193 1    
   142   71  194 1    
   143   72   73 2    
   144   72   74 am   BACKBONE|DICT|INTERRES
   145   74   75 1    
   146   74  195 1    
   147   75   76 1    
   148   75   77 1    
   149   75  196 1    
   150   76  197 1    
   151   76  198 1    
   152   76  199 1    
   153   77   78 2    
   154   77   79 am   BACKBONE|DICT|INTERRES
   155   79   80 1    
   156   79  200 1    
   157   80   81 1    
   158   80   82 1    
   159   80  201 1    
   160   81  202 1    
   161   81  203 1    
   162   81  204 1    
   163   82   83 2    
   164   82   84 am   BACKBONE|DICT|INTERRES
   165   84   85 1    
   166   84  205 1    
   167   85   86 1    
   168   85   87 1    
   169   85  206 1    
   170   86  207 1    
   171   86  208 1    
   172   86  209 1    
   173   87   88 2    
   174   87   89 am   BACKBONE|DICT|INTERRES
   175   89   90 1    
   176   89  210 1    
   177   90   91 1    
   178   90   92 1    
   179   90  211 1    
   180   91  212 1    
   181   91  213 1    
   182   91  214 1    
   183   92   93 2    
   184   92   94 am   BACKBONE|DICT|INTERRES
   185   94   95 1    
   186   94  215 1    
   187   95   96 1    
   188   95   97 1    
   189   95  216 1    
   190   96  217 1    
   191   96  218 1    
   192   96  219 1    
   193   97   98 2    
   194   97   99 am   BACKBONE|DICT|INTERRES
   195   99  100 1    
   196   99  220 1    
   197  100  101 1    
   198  100  102 1    
   199  100  221 1    
   200  101  222 1    
   201  101  223 1    
   202  101  224 1    
   203  102  103 2    
   204  102  104 am   BACKBONE|DICT|INTERRES
   205  104  105 1    
   206  104  225 1    
   207  105  106 1    
   208  105  107 1    
   209  105  226 1    
   210  106  227 1    
   211  106  228 1    
   212  106  229 1    
   213  107  108 2    
   214  107  109 am   BACKBONE|DICT|INTERRES
   215  109  110 1    
   216  109  230 1    
   217  110  111 1    
   218  110  112 1    
   219  110  231 1    
   220  111  232 1    
   221  111  233 1    
   222  111  234 1    
   223  112  113 2    
   224  112  114 am   BACKBONE|DICT|INTERRES
   225  114  115 1    
   226  114  235 1    
   227  115  116 1    
   228  115  117 1    
   229  115  236 1    
   230  116  237 1    
   231  116  238 1    
   232  116  239 1    
   233  117  118 2    
   234  117  119 am   BACKBONE|DICT|INTERRES
   235  119  120 1    
   236  119  240 1    
   237  120  121 1    
   238  120  124 1    
   239  120  241 1    
   240  121  122 am   BACKBONE|DICT|INTERRES
   241  121  123 2    
   242  122  242 1    
   243  122  243 1    
   244  124  125 1    
   245  124  244 1    
   246  124  245 1    
   247  125  126 1    
   248  126  246 1    
   249  126  247 1    
@<TRIPOS>SUBSTRUCTURE
     1 UNK         1 GROUP             0       ****    0 ROOT    
