@<TRIPOS>MOLECULE
3R540
247   249    1
SMALL
USER_CHARGES


@<TRIPOS>ATOM
      1 CA          6.3755  -16.6432  -42.0342 C.3       0 UNK        -0.1800 
      2 C           5.3184  -16.0372  -42.9455 C.2       0 UNK         0.5000 
      3 O           4.1636  -15.9021  -42.5429 O.2       0 UNK        -0.5000 
      4 N           5.7079  -15.6503  -44.1660 N.am      1 UNK        -0.5000 
      5 CA          4.8422  -15.0938  -45.2172 C.3       1 UNK         0.1400 
      6 C6          5.3895  -15.3975  -46.6413 C.3       23 UNK        -0.0398 
      7 S7          5.8592  -17.1518  -46.8809 S.3       23 UNK        -0.2404 
      8 C8          5.6621  -17.3828  -48.6760 C.3       23 UNK        -0.0205 
      9 C9          4.3912  -18.1519  -49.0012 C.ar      23 UNK        -0.0193 
     10 C10         3.1738  -17.4769  -49.1137 C.ar      23 UNK        -0.1150 
     11 C11         1.9952  -18.1753  -49.3894 C.ar      23 UNK        -0.0193 
     12 C12         2.0494  -19.5563  -49.5869 C.ar      23 UNK        -0.1150 
     13 C13         3.2589  -20.2486  -49.4722 C.ar      23 UNK        -0.0193 
     14 C14         4.4284  -19.5394  -49.1811 C.ar      23 UNK        -0.1150 
     15 C15         3.2921  -21.7613  -49.6609 C.3       23 UNK        -0.0205 
     16 S16         3.4708  -22.6919  -48.0954 S.3       23 UNK        -0.2404 
     17 C17         2.1063  -22.0507  -47.0611 C.3       23 UNK        -0.0398 
     18 CA          0.7950  -22.8774  -47.0758 C.3       11 UNK         0.1400 
     19 N          -0.1730  -22.3512  -46.1079 N.am      11 UNK        -0.5000 
     20 C          -1.2750  -22.9947  -45.6947 C.2       10 UNK         0.5000 
     21 O          -1.5660  -24.1369  -46.0465 O.2       10 UNK        -0.5000 
     22 CA         -2.2327  -22.2271  -44.7596 C.3       10 UNK         0.1400 
     23 CB         -1.8412  -22.4511  -43.2917 C.3       10 UNK        -0.1800 
     24 N          -2.2846  -20.7884  -45.0280 N.am      10 UNK        -0.5000 
     25 C          -2.7271  -20.2374  -46.1678 C.2       9 UNK         0.5000 
     26 O          -3.1914  -20.8895  -47.1002 O.2       9 UNK        -0.5000 
     27 CA         -2.5449  -18.7125  -46.3269 C.3       9 UNK         0.1400 
     28 CB         -3.8024  -17.9640  -45.8654 C.3       9 UNK        -0.1800 
     29 N          -1.3640  -18.1812  -45.6326 N.am      9 UNK        -0.5000 
     30 C          -0.1102  -18.6045  -45.8594 C.2       8 UNK         0.5000 
     31 O           0.1486  -19.4586  -46.7063 O.2       8 UNK        -0.5000 
     32 CA          1.0222  -18.0438  -44.9789 C.3       8 UNK         0.1400 
     33 CB          2.3456  -17.9014  -45.7461 C.3       8 UNK        -0.1800 
     34 N           0.6679  -16.7557  -44.3878 N.am      8 UNK        -0.5000 
     35 C           0.3641  -16.5511  -43.0982 C.2       7 UNK         0.5000 
     36 O           0.3743  -17.4394  -42.2455 O.2       7 UNK        -0.5000 
     37 CA         -0.0581  -15.1235  -42.6886 C.3       7 UNK         0.1400 
     38 CB          1.0887  -14.4026  -41.9724 C.3       7 UNK        -0.1800 
     39 N          -0.5093  -14.3025  -43.8146 N.am      7 UNK        -0.5000 
     40 C          -1.6377  -14.5341  -44.5001 C.2       6 UNK         0.5000 
     41 O          -2.4306  -15.4307  -44.2126 O.2       6 UNK        -0.5000 
     42 CA         -1.9125  -13.6586  -45.7350 C.3       6 UNK         0.1400 
     43 CB         -2.8780  -12.5174  -45.3826 C.3       6 UNK        -0.1800 
     44 N          -0.7156  -13.0888  -46.3538 N.am      6 UNK        -0.5000 
     45 C           0.2986  -13.7688  -46.9057 C.2       5 UNK         0.5000 
     46 O           0.3959  -14.9945  -46.8443 O.2       5 UNK        -0.5000 
     47 CA          1.4056  -12.9511  -47.6107 C.3       5 UNK         0.1400 
     48 CB          1.6968  -13.4614  -49.0344 C.3       5 UNK        -0.1800 
     49 N           1.1845  -11.4989  -47.6077 N.am      5 UNK        -0.5000 
     50 C           0.2241  -10.7850  -48.2161 C.2       4 UNK         0.5000 
     51 O          -0.6055  -11.2712  -48.9845 O.2       4 UNK        -0.5000 
     52 CA          0.1312   -9.2937  -47.8159 C.3       4 UNK         0.1400 
     53 CB         -1.1774   -8.6330  -48.2861 C.3       4 UNK        -0.1800 
     54 N           0.2422   -9.1328  -46.3611 N.am      4 UNK        -0.5000 
     55 C           1.3940   -9.1141  -45.6794 C.2       3 UNK         0.5000 
     56 O           2.4959   -9.1115  -46.2332 O.2       3 UNK        -0.5000 
     57 CA          1.3244   -9.1672  -44.1388 C.3       3 UNK         0.1400 
     58 CB         -0.0492   -9.6033  -43.5777 C.3       3 UNK        -0.1800 
     59 N           2.4042  -10.0073  -43.6080 N.am      3 UNK        -0.5000 
     60 C           2.5817  -11.3233  -43.8014 C.2       2 UNK         0.5000 
     61 O           1.7586  -12.0649  -44.3487 O.2       2 UNK        -0.5000 
     62 CA          3.9158  -11.8862  -43.2729 C.3       2 UNK         0.1400 
     63 CB          3.9432  -11.8974  -41.7351 C.3       2 UNK        -0.1800 
     64 N           4.1957  -13.2392  -43.7486 N.am      2 UNK        -0.5000 
     65 C           4.5754  -13.5859  -44.9841 C.2       1 UNK         0.5000 
     66 O           4.7486  -12.7732  -45.8937 O.2       1 UNK        -0.5000 
     67 C           0.1563  -22.9529  -48.4766 C.2       11 UNK         0.5000 
     68 O           0.2836  -23.9764  -49.1490 O.2       11 UNK        -0.5000 
     69 N          -0.5642  -21.8906  -48.8681 N.am      12 UNK        -0.5000 
     70 CA         -1.3211  -21.8314  -50.1201 C.3       12 UNK         0.1400 
     71 CB         -1.8561  -20.4110  -50.3510 C.3       12 UNK        -0.1800 
     72 C          -2.4595  -22.8634  -50.1600 C.2       12 UNK         0.5000 
     73 O          -2.6210  -23.5431  -51.1726 O.2       12 UNK        -0.5000 
     74 N          -3.1909  -22.9970  -49.0453 N.am      13 UNK        -0.5000 
     75 CA         -4.2467  -23.9904  -48.8610 C.3       13 UNK         0.1400 
     76 CB         -4.9531  -23.7597  -47.5172 C.3       13 UNK        -0.1800 
     77 C          -3.7320  -25.4366  -48.9676 C.2       13 UNK         0.5000 
     78 O          -4.3457  -26.2496  -49.6590 O.2       13 UNK        -0.5000 
     79 N          -2.5927  -25.7215  -48.3203 N.am      14 UNK        -0.5000 
     80 CA         -1.9090  -27.0139  -48.3785 C.3       14 UNK         0.1400 
     81 CB         -0.7630  -27.0398  -47.3560 C.3       14 UNK        -0.1800 
     82 C          -1.3898  -27.3552  -49.7871 C.2       14 UNK         0.5000 
     83 O          -1.5144  -28.5040  -50.2124 O.2       14 UNK        -0.5000 
     84 N          -0.8401  -26.3544  -50.4896 N.am      15 UNK        -0.5000 
     85 CA         -0.3581  -26.4757  -51.8657 C.3       15 UNK         0.1400 
     86 CB          0.4550  -25.2260  -52.2380 C.3       15 UNK        -0.1800 
     87 C          -1.4959  -26.7115  -52.8766 C.2       15 UNK         0.5000 
     88 O          -1.3532  -27.5532  -53.7646 O.2       15 UNK        -0.5000 
     89 N          -2.6040  -25.9748  -52.7202 N.am      16 UNK        -0.5000 
     90 CA         -3.7967  -26.0851  -53.5611 C.3       16 UNK         0.1400 
     91 CB         -4.6728  -24.8410  -53.3511 C.3       16 UNK        -0.1800 
     92 C          -4.6244  -27.3533  -53.2857 C.2       16 UNK         0.5000 
     93 O          -5.2995  -27.8361  -54.1956 O.2       16 UNK        -0.5000 
     94 N          -4.5826  -27.8378  -52.0350 N.am      17 UNK        -0.5000 
     95 CA         -5.4382  -28.8782  -51.4537 C.3       17 UNK         0.1400 
     96 CB         -5.1925  -30.2477  -52.1203 C.3       17 UNK        -0.1800 
     97 C          -6.9209  -28.4458  -51.4504 C.2       17 UNK         0.5000 
     98 O          -7.8069  -29.2298  -51.7967 O.2       17 UNK        -0.5000 
     99 N          -7.1505  -27.1808  -51.0823 N.am      18 UNK        -0.5000 
    100 CA        -8.4317  -26.4825  -51.1041 C.3       18 UNK         0.1400 
    101 CB        -8.7760  -26.0814  -52.5521 C.3       18 UNK        -0.1800 
    102 C         -8.3249  -25.2455  -50.1996 C.2       18 UNK         0.5000 
    103 O         -7.2351  -24.9340  -49.7171 O.2       18 UNK        -0.5000 
    104 N         -9.4379  -24.5289  -50.0038 N.am      19 UNK        -0.5000 
    105 CA        -9.5242  -23.2987  -49.2060 C.3       19 UNK         0.1400 
    106 CB       -10.9877  -23.0977  -48.7716 C.3       19 UNK        -0.1800 
    107 C         -8.9420  -22.0619  -49.9337 C.2       19 UNK         0.5000 
    108 O         -9.6121  -21.0333  -50.0473 O.2       19 UNK        -0.5000 
    109 N         -7.7095  -22.1925  -50.4347 N.am      20 UNK        -0.5000 
    110 CA        -6.9453  -21.1413  -51.1021 C.3       20 UNK         0.1400 
    111 CB        -5.9442  -21.8033  -52.0626 C.3       20 UNK        -0.1800 
    112 C         -6.2144  -20.2382  -50.0908 C.2       20 UNK         0.5000 
    113 O         -6.1029  -20.5789  -48.9119 O.2       20 UNK        -0.5000 
    114 N         -5.7065  -19.1082  -50.5884 N.am      21 UNK        -0.5000 
    115 CA        -4.8922  -18.1351  -49.8698 C.3       21 UNK         0.1400 
    116 CB        -5.7850  -17.2385  -48.9923 C.3       21 UNK        -0.1800 
    117 C         -4.1273  -17.3021  -50.9100 C.2       21 UNK         0.5000 
    118 O         -4.5447  -17.2531  -52.0710 O.2       21 UNK        -0.5000 
    119 N         -3.0468  -16.6391  -50.4797 N.am      22 UNK        -0.5000 
    120 CA        -2.2975  -15.6753  -51.3095 C.3       22 UNK         0.1400 
    121 C         -3.0002  -14.2925  -51.4737 C.2       22 UNK         0.5000 
    122 N         -4.0492  -13.9771  -50.7228 N.am      22 UNK        -0.7600 
    123 O         -2.5925  -13.4941  -52.3126 O.2       22 UNK        -0.5000 
    124 C124       -0.8394  -15.4889  -50.8179 C.3       23 UNK        -0.0398 
    125 S125        0.2134  -16.9507  -51.1171 S.3       23 UNK        -0.2404 
    126 C126        0.6630  -17.4434  -49.4275 C.3       23 UNK        -0.0205 
    127 H127        6.4798  -16.0432  -41.1302 H         1 UNK         0.0600 
    128 H128        7.3490  -16.6969  -42.5223 H         1 UNK         0.0600 
    129 H129        6.0844  -17.6526  -41.7435 H         1 UNK         0.0600 
    130 H130        6.6748  -15.7724  -44.4313 H         1 UNK         0.3000 
    131 H131        3.8654  -15.5716  -45.1420 H         1 UNK         0.0600 
    132 H132        6.2720  -14.7906  -46.8513 H         1 UNK         0.0800 
    133 H133        4.6426  -15.1236  -47.3882 H         1 UNK         0.0800 
    134 H134        6.5293  -17.9269  -49.0532 H         1 UNK         0.0800 
    135 H135        5.6658  -16.4202  -49.1894 H         1 UNK         0.0800 
    136 H136        3.1434  -16.4096  -48.9588 H         1 UNK         0.1150 
    137 H137        1.1422  -20.0951  -49.8077 H         1 UNK         0.1150 
    138 H138        5.3651  -20.0704  -49.0853 H         1 UNK         0.1150 
    139 H139        2.3946  -22.1006  -50.1800 H         1 UNK         0.0800 
    140 H140        4.1265  -22.0191  -50.3144 H         1 UNK         0.0800 
    141 H141        1.9173  -21.0155  -47.3248 H         1 UNK         0.0800 
    142 H142        2.4854  -22.0145  -46.0392 H         1 UNK         0.0800 
    143 H143        1.0418  -23.8978  -46.7745 H         1 UNK         0.0600 
    144 H144       -0.0521  -21.3810  -45.8473 H         1 UNK         0.3000 
    145 H145       -3.2359  -22.6302  -44.9092 H         1 UNK         0.0600 
    146 H146       -2.5589  -21.9851  -42.6163 H         1 UNK         0.0600 
    147 H147       -1.8157  -23.5152  -43.0528 H         1 UNK         0.0600 
    148 H148       -0.8550  -22.0409  -43.0702 H         1 UNK         0.0600 
    149 H149       -1.9160  -20.1784  -44.3136 H         1 UNK         0.3000 
    150 H150       -2.4088  -18.5176  -47.3922 H         1 UNK         0.0600 
    151 H151       -4.6972  -18.3727  -46.3370 H         1 UNK         0.0600 
    152 H152       -3.7511  -16.9079  -46.1299 H         1 UNK         0.0600 
    153 H153       -3.9385  -18.0341  -44.7856 H         1 UNK         0.0600 
    154 H154       -1.5252  -17.4657  -44.9356 H         1 UNK         0.3000 
    155 H155        1.1829  -18.7896  -44.1985 H         1 UNK         0.0600 
    156 H156        3.1690  -17.7185  -45.0571 H         1 UNK         0.0600 
    157 H157        2.5999  -18.8067  -46.2983 H         1 UNK         0.0600 
    158 H158        2.3073  -17.0789  -46.4599 H         1 UNK         0.0600 
    159 H159        0.5863  -15.9837  -45.0419 H         1 UNK         0.3000 
    160 H160       -0.8881  -15.2183  -41.9854 H         1 UNK         0.0600 
    161 H161        1.9467  -14.2887  -42.6319 H         1 UNK         0.0600 
    162 H162        1.4205  -14.9616  -41.0966 H         1 UNK         0.0600 
    163 H163        0.7858  -13.4112  -41.6354 H         1 UNK         0.0600 
    164 H164        0.1077  -13.5562  -44.1159 H         1 UNK         0.3000 
    165 H165       -2.3925  -14.2957  -46.4808 H         1 UNK         0.0600 
    166 H166       -3.1469  -11.9397  -46.2673 H         1 UNK         0.0600 
    167 H167       -3.8039  -12.9065  -44.9566 H         1 UNK         0.0600 
    168 H168       -2.4433  -11.8335  -44.6527 H         1 UNK         0.0600 
    169 H169       -0.6873  -12.0844  -46.4309 H         1 UNK         0.3000 
    170 H170        2.3046  -13.1143  -47.0172 H         1 UNK         0.0600 
    171 H171        2.5514  -12.9431  -49.4689 H         1 UNK         0.0600 
    172 H172        0.8472  -13.3200  -49.7005 H         1 UNK         0.0600 
    173 H173        1.9325  -14.5234  -49.0314 H         1 UNK         0.0600 
    174 H174        1.8043  -10.9827  -46.9934 H         1 UNK         0.3000 
    175 H175        0.9590   -8.7757  -48.3047 H         1 UNK         0.0600 
    176 H176       -2.0528   -9.1207  -47.8553 H         1 UNK         0.0600 
    177 H177       -1.2089   -7.5796  -48.0073 H         1 UNK         0.0600 
    178 H178       -1.2735   -8.6819  -49.3715 H         1 UNK         0.0600 
    179 H179       -0.6238   -9.1441  -45.8420 H         1 UNK         0.3000 
    180 H180        1.5208   -8.1531  -43.7882 H         1 UNK         0.0600 
    181 H181       -0.3670  -10.5707  -43.9674 H         1 UNK         0.0600 
    182 H182       -0.8248   -8.8761  -43.8199 H         1 UNK         0.0600 
    183 H183       -0.0176   -9.6820  -42.4909 H         1 UNK         0.0600 
    184 H184        3.1506   -9.4959  -43.1587 H         1 UNK         0.3000 
    185 H185        4.7161  -11.2337  -43.6281 H         1 UNK         0.0600 
    186 H186        3.8054  -10.8956  -41.3270 H         1 UNK         0.0600 
    187 H187        3.1587  -12.5292  -41.3195 H         1 UNK         0.0600 
    188 H188        4.8991  -12.2659  -41.3621 H         1 UNK         0.0600 
    189 H189        4.0600  -13.9923  -43.0825 H         1 UNK         0.3000 
    190 H190       -0.6372  -21.0982  -48.2433 H         1 UNK         0.3000 
    191 H191       -0.6375  -22.0694  -50.9377 H         1 UNK         0.0600 
    192 H192       -2.3997  -20.0453  -49.4829 H         1 UNK         0.0600 
    193 H193       -2.5347  -20.3775  -51.2046 H         1 UNK         0.0600 
    194 H194       -1.0473  -19.7133  -50.5596 H         1 UNK         0.0600 
    195 H195       -3.0437  -22.3428  -48.2806 H         1 UNK         0.3000 
    196 H196       -4.9691  -23.8342  -49.6611 H         1 UNK         0.0600 
    197 H197       -5.7805  -24.4584  -47.3882 H         1 UNK         0.0600 
    198 H198       -5.3660  -22.7531  -47.4554 H         1 UNK         0.0600 
    199 H199       -4.2742  -23.8964  -46.6763 H         1 UNK         0.0600 
    200 H200       -2.1675  -25.0102  -47.7338 H         1 UNK         0.3000 
    201 H201       -2.6306  -27.7837  -48.0973 H         1 UNK         0.0600 
    202 H202       -1.1374  -26.8980  -46.3421 H         1 UNK         0.0600 
    203 H203       -0.0290  -26.2579  -47.5536 H         1 UNK         0.0600 
    204 H204       -0.2397  -27.9964  -47.3783 H         1 UNK         0.0600 
    205 H205       -0.7225  -25.4492  -50.0444 H         1 UNK         0.3000 
    206 H206        0.3105  -27.3378  -51.9117 H         1 UNK         0.0600 
    207 H207        1.3101  -25.1004  -51.5735 H         1 UNK         0.0600 
    208 H208        0.8409  -25.2993  -53.2554 H         1 UNK         0.0600 
    209 H209       -0.1484  -24.3198  -52.1793 H         1 UNK         0.0600 
    210 H210       -2.6192  -25.2542  -52.0022 H         1 UNK         0.3000 
    211 H211       -3.4821  -26.1098  -54.6065 H         1 UNK         0.0600 
    212 H212       -5.0165  -24.7659  -52.3183 H         1 UNK         0.0600 
    213 H213       -5.5564  -24.8697  -53.9898 H         1 UNK         0.0600 
    214 H214       -4.1273  -23.9280  -53.5904 H         1 UNK         0.0600 
    215 H215       -4.0459  -27.3111  -51.3538 H         1 UNK         0.3000 
    216 H216       -5.1420  -28.9646  -50.4073 H         1 UNK         0.0600 
    217 H217       -5.7274  -31.0376  -51.5919 H         1 UNK         0.0600 
    218 H218       -4.1338  -30.5067  -52.1060 H         1 UNK         0.0600 
    219 H219       -5.5289  -30.2651  -53.1571 H         1 UNK         0.0600 
    220 H220       -6.3815  -26.6209  -50.7258 H         1 UNK         0.3000 
    221 H221       -9.2075  -27.1365  -50.7015 H         1 UNK         0.0600 
    222 H222       -8.0223  -25.4128  -52.9705 H         1 UNK         0.0600 
    223 H223       -8.8424  -26.9541  -53.2019 H         1 UNK         0.0600 
    224 H224       -9.7372  -25.5695  -52.6063 H         1 UNK         0.0600 
    225 H225      -10.2904  -24.8204  -50.4599 H         1 UNK         0.3000 
    226 H226       -8.9311  -23.4337  -48.2988 H         1 UNK         0.0600 
    227 H227      -11.3542  -23.9575  -48.2105 H         1 UNK         0.0600 
    228 H228      -11.0891  -22.2252  -48.1248 H         1 UNK         0.0600 
    229 H229      -11.6453  -22.9508  -49.6292 H         1 UNK         0.0600 
    230 H230       -7.2267  -23.0658  -50.2505 H         1 UNK         0.3000 
    231 H231       -7.6276  -20.5205  -51.6867 H         1 UNK         0.0600 
    232 H232       -5.3991  -21.0587  -52.6437 H         1 UNK         0.0600 
    233 H233       -6.4525  -22.4564  -52.7721 H         1 UNK         0.0600 
    234 H234       -5.2070  -22.3995  -51.5261 H         1 UNK         0.0600 
    235 H235       -5.8020  -18.8968  -51.5749 H         1 UNK         0.3000 
    236 H236       -4.1761  -18.6612  -49.2380 H         1 UNK         0.0600 
    237 H237       -6.3366  -17.8250  -48.2575 H         1 UNK         0.0600 
    238 H238       -5.1906  -16.5101  -48.4399 H         1 UNK         0.0600 
    239 H239       -6.5113  -16.6875  -49.5911 H         1 UNK         0.0600 
    240 H240       -2.7588  -16.7173  -49.5166 H         1 UNK         0.3000 
    241 H241       -2.2414  -16.0838  -52.3208 H         1 UNK         0.0600 
    242 H242       -4.4072  -14.6180  -50.0353 H         1 UNK         0.3800 
    243 H243       -4.4916  -13.0803  -50.8492 H         1 UNK         0.3800 
    244 H244       -0.3591  -14.6637  -51.3469 H         1 UNK         0.0800 
    245 H245       -0.8295  -15.2111  -49.7630 H         1 UNK         0.0800 
    246 H246        0.7239  -16.5681  -48.7851 H         1 UNK         0.0800 
    247 H247       -0.1265  -18.0691  -49.0107 H         1 UNK         0.0800 
@<TRIPOS>BOND
     1    1    2 1    
     2    1  127 1    
     3    1  128 1    
     4    1  129 1    
     5    2    3 2    
     6    2    4 am   BACKBONE|DICT|INTERRES
     7    4    5 1    
     8    4  130 1    
     9    5    6 1    
    10    5   65 1    
    11    5  131 1    
    12    6    7 1    
    13    6  132 1    
    14    6  133 1    
    15    7    8 1    
    16    8    9 1    
    17    8  134 1    
    18    8  135 1    
    19    9   10 ar   
    20    9   14 ar   
    21   10   11 ar   
    22   10  136 1    
    23   11   12 ar   
    24   11  126 1    
    25   12   13 ar   
    26   12  137 1    
    27   13   14 ar   
    28   13   15 1    
    29   14  138 1    
    30   15   16 1    
    31   15  139 1    
    32   15  140 1    
    33   16   17 1    
    34   17   18 1    
    35   17  141 1    
    36   17  142 1    
    37   18   19 1    
    38   18   67 1    
    39   18  143 1    
    40   19   20 am   BACKBONE|DICT|INTERRES
    41   19  144 1    
    42   20   21 2    
    43   20   22 1    
    44   22   23 1    
    45   22   24 1    
    46   22  145 1    
    47   23  146 1    
    48   23  147 1    
    49   23  148 1    
    50   24   25 am   BACKBONE|DICT|INTERRES
    51   24  149 1    
    52   25   26 2    
    53   25   27 1    
    54   27   28 1    
    55   27   29 1    
    56   27  150 1    
    57   28  151 1    
    58   28  152 1    
    59   28  153 1    
    60   29   30 am   BACKBONE|DICT|INTERRES
    61   29  154 1    
    62   30   31 2    
    63   30   32 1    
    64   32   33 1    
    65   32   34 1    
    66   32  155 1    
    67   33  156 1    
    68   33  157 1    
    69   33  158 1    
    70   34   35 am   BACKBONE|DICT|INTERRES
    71   34  159 1    
    72   35   36 2    
    73   35   37 1    
    74   37   38 1    
    75   37   39 1    
    76   37  160 1    
    77   38  161 1    
    78   38  162 1    
    79   38  163 1    
    80   39   40 am   BACKBONE|DICT|INTERRES
    81   39  164 1    
    82   40   41 2    
    83   40   42 1    
    84   42   43 1    
    85   42   44 1    
    86   42  165 1    
    87   43  166 1    
    88   43  167 1    
    89   43  168 1    
    90   44   45 am   BACKBONE|DICT|INTERRES
    91   44  169 1    
    92   45   46 2    
    93   45   47 1    
    94   47   48 1    
    95   47   49 1    
    96   47  170 1    
    97   48  171 1    
    98   48  172 1    
    99   48  173 1    
   100   49   50 am   BACKBONE|DICT|INTERRES
   101   49  174 1    
   102   50   51 2    
   103   50   52 1    
   104   52   53 1    
   105   52   54 1    
   106   52  175 1    
   107   53  176 1    
   108   53  177 1    
   109   53  178 1    
   110   54   55 am   BACKBONE|DICT|INTERRES
   111   54  179 1    
   112   55   56 2    
   113   55   57 1    
   114   57   58 1    
   115   57   59 1    
   116   57  180 1    
   117   58  181 1    
   118   58  182 1    
   119   58  183 1    
   120   59   60 am   BACKBONE|DICT|INTERRES
   121   59  184 1    
   122   60   61 2    
   123   60   62 1    
   124   62   63 1    
   125   62   64 1    
   126   62  185 1    
   127   63  186 1    
   128   63  187 1    
   129   63  188 1    
   130   64   65 am   BACKBONE|DICT|INTERRES
   131   64  189 1    
   132   65   66 2    
   133   67   68 2    
   134   67   69 am   BACKBONE|DICT|INTERRES
   135   69   70 1    
   136   69  190 1    
   137   70   71 1    
   138   70   72 1    
   139   70  191 1    
   140   71  192 1    
   141   71  193 1    
   142   71  194 1    
   143   72   73 2    
   144   72   74 am   BACKBONE|DICT|INTERRES
   145   74   75 1    
   146   74  195 1    
   147   75   76 1    
   148   75   77 1    
   149   75  196 1    
   150   76  197 1    
   151   76  198 1    
   152   76  199 1    
   153   77   78 2    
   154   77   79 am   BACKBONE|DICT|INTERRES
   155   79   80 1    
   156   79  200 1    
   157   80   81 1    
   158   80   82 1    
   159   80  201 1    
   160   81  202 1    
   161   81  203 1    
   162   81  204 1    
   163   82   83 2    
   164   82   84 am   BACKBONE|DICT|INTERRES
   165   84   85 1    
   166   84  205 1    
   167   85   86 1    
   168   85   87 1    
   169   85  206 1    
   170   86  207 1    
   171   86  208 1    
   172   86  209 1    
   173   87   88 2    
   174   87   89 am   BACKBONE|DICT|INTERRES
   175   89   90 1    
   176   89  210 1    
   177   90   91 1    
   178   90   92 1    
   179   90  211 1    
   180   91  212 1    
   181   91  213 1    
   182   91  214 1    
   183   92   93 2    
   184   92   94 am   BACKBONE|DICT|INTERRES
   185   94   95 1    
   186   94  215 1    
   187   95   96 1    
   188   95   97 1    
   189   95  216 1    
   190   96  217 1    
   191   96  218 1    
   192   96  219 1    
   193   97   98 2    
   194   97   99 am   BACKBONE|DICT|INTERRES
   195   99  100 1    
   196   99  220 1    
   197  100  101 1    
   198  100  102 1    
   199  100  221 1    
   200  101  222 1    
   201  101  223 1    
   202  101  224 1    
   203  102  103 2    
   204  102  104 am   BACKBONE|DICT|INTERRES
   205  104  105 1    
   206  104  225 1    
   207  105  106 1    
   208  105  107 1    
   209  105  226 1    
   210  106  227 1    
   211  106  228 1    
   212  106  229 1    
   213  107  108 2    
   214  107  109 am   BACKBONE|DICT|INTERRES
   215  109  110 1    
   216  109  230 1    
   217  110  111 1    
   218  110  112 1    
   219  110  231 1    
   220  111  232 1    
   221  111  233 1    
   222  111  234 1    
   223  112  113 2    
   224  112  114 am   BACKBONE|DICT|INTERRES
   225  114  115 1    
   226  114  235 1    
   227  115  116 1    
   228  115  117 1    
   229  115  236 1    
   230  116  237 1    
   231  116  238 1    
   232  116  239 1    
   233  117  118 2    
   234  117  119 am   BACKBONE|DICT|INTERRES
   235  119  120 1    
   236  119  240 1    
   237  120  121 1    
   238  120  124 1    
   239  120  241 1    
   240  121  122 am   BACKBONE|DICT|INTERRES
   241  121  123 2    
   242  122  242 1    
   243  122  243 1    
   244  124  125 1    
   245  124  244 1    
   246  124  245 1    
   247  125  126 1    
   248  126  246 1    
   249  126  247 1    
@<TRIPOS>SUBSTRUCTURE
     1 UNK         1 GROUP             0       ****    0 ROOT    
