@<TRIPOS>MOLECULE
3R540
247   249    1
SMALL
USER_CHARGES


@<TRIPOS>ATOM
      1 CA         -5.5829  -17.1691  -49.8704 C.3       0 UNK        -0.1800 
      2 C          -4.8977  -15.9888  -50.5436 C.2       0 UNK         0.5000 
      3 O          -5.4359  -15.4359  -51.5029 O.2       0 UNK        -0.5000 
      4 N          -3.7181  -15.6037  -50.0445 N.am      1 UNK        -0.5000 
      5 CA         -2.9702  -14.4205  -50.4803 C.3       1 UNK         0.1400 
      6 C6         -1.4380  -14.6444  -50.3784 C.3       23 UNK        -0.0398 
      7 S7         -0.8139  -14.9547  -48.6912 S.3       23 UNK        -0.2404 
      8 C8          0.9836  -15.0143  -48.9627 C.3       23 UNK        -0.0205 
      9 C9          1.4481  -16.3529  -49.5215 C.ar      23 UNK        -0.0193 
     10 C10         1.4392  -16.5830  -50.8985 C.ar      23 UNK        -0.1150 
     11 C11         1.9263  -17.7823  -51.4277 C.ar      23 UNK        -0.0193 
     12 C12         2.4171  -18.7634  -50.5611 C.ar      23 UNK        -0.1150 
     13 C13         2.4200  -18.5552  -49.1774 C.ar      23 UNK        -0.0193 
     14 C14         1.9352  -17.3462  -48.6672 C.ar      23 UNK        -0.1150 
     15 C15         2.9968  -19.6071  -48.2356 C.3       23 UNK        -0.0205 
     16 S16         2.2327  -21.2501  -48.4272 S.3       23 UNK        -0.2404 
     17 C17         0.5271  -20.9444  -47.8644 C.3       23 UNK        -0.0398 
     18 CA         -0.0968  -22.1989  -47.2100 C.3       11 UNK         0.1400 
     19 N           0.6125  -22.6154  -45.9978 N.am      11 UNK        -0.5000 
     20 C           0.5302  -23.8440  -45.4702 C.2       10 UNK         0.5000 
     21 O          -0.1721  -24.7421  -45.9346 O.2       10 UNK        -0.5000 
     22 CA          1.3317  -24.0892  -44.1795 C.3       10 UNK         0.1400 
     23 CB          2.7835  -24.4670  -44.5089 C.3       10 UNK        -0.1800 
     24 N           1.3287  -22.9458  -43.2630 N.am      10 UNK        -0.5000 
     25 C           0.2386  -22.4004  -42.7056 C.2       9 UNK         0.5000 
     26 O          -0.9055  -22.7595  -42.9856 O.2       9 UNK        -0.5000 
     27 CA          0.4366  -21.2369  -41.7111 C.3       9 UNK         0.1400 
     28 CB         -0.3476  -21.4654  -40.4040 C.3       9 UNK        -0.1800 
     29 N           1.8353  -20.8791  -41.4349 N.am      9 UNK        -0.5000 
     30 C           2.7755  -21.5956  -40.7963 C.2       8 UNK         0.5000 
     31 O           2.5897  -22.7297  -40.3558 O.2       8 UNK        -0.5000 
     32 CA          4.1754  -20.9592  -40.6542 C.3       8 UNK         0.1400 
     33 CB          5.1469  -21.5855  -41.6675 C.3       8 UNK        -0.1800 
     34 N           4.1815  -19.5065  -40.8387 N.am      8 UNK        -0.5000 
     35 C           3.6812  -18.6185  -39.9682 C.2       7 UNK         0.5000 
     36 O           3.2433  -18.9251  -38.8589 O.2       7 UNK        -0.5000 
     37 CA          3.6372  -17.1420  -40.4187 C.3       7 UNK         0.1400 
     38 CB          4.8146  -16.3633  -39.8119 C.3       7 UNK        -0.1800 
     39 N           3.6290  -16.9322  -41.8738 N.am      7 UNK        -0.5000 
     40 C           2.7070  -17.4038  -42.7241 C.2       6 UNK         0.5000 
     41 O           1.7907  -18.1574  -42.3866 O.2       6 UNK        -0.5000 
     42 CA          2.8746  -17.0148  -44.2059 C.3       6 UNK         0.1400 
     43 CB          4.0096  -17.8276  -44.8496 C.3       6 UNK        -0.1800 
     44 N           1.6437  -17.2561  -44.9591 N.am      6 UNK        -0.5000 
     45 C           0.5342  -16.5148  -44.8551 C.2       5 UNK         0.5000 
     46 O           0.4773  -15.4565  -44.2241 O.2       5 UNK        -0.5000 
     47 CA         -0.7153  -17.0615  -45.5650 C.3       5 UNK         0.1400 
     48 CB         -1.1223  -18.4419  -45.0151 C.3       5 UNK        -0.1800 
     49 N          -1.8055  -16.1028  -45.4156 N.am      5 UNK        -0.5000 
     50 C          -2.9619  -16.0911  -46.0865 C.2       4 UNK         0.5000 
     51 O          -3.2980  -16.9572  -46.8936 O.2       4 UNK        -0.5000 
     52 CA         -3.8777  -14.8722  -45.8767 C.3       4 UNK         0.1400 
     53 CB         -4.5952  -14.9092  -44.5133 C.3       4 UNK        -0.1800 
     54 N          -3.1820  -13.6036  -46.1277 N.am      4 UNK        -0.5000 
     55 C          -2.2509  -12.9855  -45.3845 C.2       3 UNK         0.5000 
     56 O          -1.9431  -13.3462  -44.2488 O.2       3 UNK        -0.5000 
     57 CA         -1.4959  -11.7977  -46.0208 C.3       3 UNK         0.1400 
     58 CB          0.0234  -12.0377  -45.9747 C.3       3 UNK        -0.1800 
     59 N          -1.8770  -11.5659  -47.4156 N.am      3 UNK        -0.5000 
     60 C          -2.8297  -10.7207  -47.8306 C.2       2 UNK         0.5000 
     61 O          -3.4623   -9.9795  -47.0781 O.2       2 UNK        -0.5000 
     62 CA         -3.1510  -10.7259  -49.3419 C.3       2 UNK         0.1400 
     63 CB         -2.3832   -9.6035  -50.0565 C.3       2 UNK        -0.1800 
     64 N          -2.8669  -12.0019  -50.0134 N.am      2 UNK        -0.5000 
     65 C          -3.4495  -13.1702  -49.7072 C.2       1 UNK         0.5000 
     66 O          -4.3027  -13.2756  -48.8220 O.2       1 UNK        -0.5000 
     67 C          -1.6146  -22.0265  -46.9812 C.2       11 UNK         0.5000 
     68 O          -2.3778  -22.1823  -47.9350 O.2       11 UNK        -0.5000 
     69 N          -2.0268  -21.7445  -45.7339 N.am      12 UNK        -0.5000 
     70 CA         -3.4303  -21.7313  -45.3151 C.3       12 UNK         0.1400 
     71 CB         -3.6232  -20.8564  -44.0648 C.3       12 UNK        -0.1800 
     72 C          -3.9409  -23.1563  -45.0575 C.2       12 UNK         0.5000 
     73 O          -5.0409  -23.4906  -45.4968 O.2       12 UNK        -0.5000 
     74 N          -3.1194  -23.9763  -44.3829 N.am      13 UNK        -0.5000 
     75 CA         -3.3926  -25.3819  -44.0678 C.3       13 UNK         0.1400 
     76 CB         -2.2493  -25.9485  -43.2138 C.3       13 UNK        -0.1800 
     77 C          -3.6260  -26.2529  -45.3167 C.2       13 UNK         0.5000 
     78 O          -4.4652  -27.1532  -45.2818 O.2       13 UNK        -0.5000 
     79 N          -2.9470  -25.9184  -46.4220 N.am      14 UNK        -0.5000 
     80 CA         -3.1525  -26.4604  -47.7680 C.3       14 UNK         0.1400 
     81 CB         -1.8890  -26.1733  -48.5977 C.3       14 UNK        -0.1800 
     82 C          -4.4365  -25.9230  -48.4494 C.2       14 UNK         0.5000 
     83 O          -4.4003  -25.5477  -49.6228 O.2       14 UNK        -0.5000 
     84 N          -5.5453  -25.8678  -47.6949 N.am      15 UNK        -0.5000 
     85 CA         -6.8948  -25.4261  -48.0771 C.3       15 UNK         0.1400 
     86 CB         -7.5389  -26.4736  -49.0083 C.3       15 UNK        -0.1800 
     87 C          -6.9575  -23.9998  -48.6710 C.2       15 UNK         0.5000 
     88 O          -7.8406  -23.7127  -49.4805 O.2       15 UNK        -0.5000 
     89 N          -5.9879  -23.1514  -48.2964 N.am      16 UNK        -0.5000 
     90 CA         -5.6777  -21.8210  -48.8385 C.3       16 UNK         0.1400 
     91 CB         -6.8272  -20.8319  -48.5643 C.3       16 UNK        -0.1800 
     92 C          -5.2524  -21.8076  -50.3252 C.2       16 UNK         0.5000 
     93 O          -4.9889  -20.7317  -50.8630 O.2       16 UNK        -0.5000 
     94 N          -5.1661  -22.9787  -50.9716 N.am      17 UNK        -0.5000 
     95 CA         -4.8940  -23.1269  -52.3995 C.3       17 UNK         0.1400 
     96 CB         -5.2334  -24.5587  -52.8391 C.3       17 UNK        -0.1800 
     97 C          -3.4438  -22.7747  -52.7546 C.2       17 UNK         0.5000 
     98 O          -3.2068  -22.1558  -53.7902 O.2       17 UNK        -0.5000 
     99 N          -2.5063  -23.1382  -51.8692 N.am      18 UNK        -0.5000 
    100 CA        -1.0881  -22.8037  -51.9952 C.3       18 UNK         0.1400 
    101 CB        -0.2801  -23.6394  -50.9959 C.3       18 UNK        -0.1800 
    102 C         -0.8157  -21.3013  -51.8001 C.2       18 UNK         0.5000 
    103 O          0.0940  -20.7699  -52.4342 O.2       18 UNK        -0.5000 
    104 N         -1.6230  -20.6411  -50.9567 N.am      19 UNK        -0.5000 
    105 CA        -1.5856  -19.1932  -50.7610 C.3       19 UNK         0.1400 
    106 CB        -2.3096  -18.8230  -49.4586 C.3       19 UNK        -0.1800 
    107 C         -2.1870  -18.4522  -51.9679 C.2       19 UNK         0.5000 
    108 O         -1.5829  -17.5059  -52.4663 O.2       19 UNK        -0.5000 
    109 N         -3.3447  -18.9244  -52.4514 N.am      20 UNK        -0.5000 
    110 CA        -4.0528  -18.3728  -53.6107 C.3       20 UNK         0.1400 
    111 CB        -5.4350  -19.0361  -53.7089 C.3       20 UNK        -0.1800 
    112 C         -3.2934  -18.5137  -54.9477 C.2       20 UNK         0.5000 
    113 O         -3.5955  -17.7842  -55.8926 O.2       20 UNK        -0.5000 
    114 N         -2.3301  -19.4425  -55.0111 N.am      21 UNK        -0.5000 
    115 CA        -1.5036  -19.7368  -56.1822 C.3       21 UNK         0.1400 
    116 CB        -0.7983  -21.0859  -55.9659 C.3       21 UNK        -0.1800 
    117 C         -0.4720  -18.6472  -56.5427 C.2       21 UNK         0.5000 
    118 O          0.1237  -18.7375  -57.6178 O.2       21 UNK        -0.5000 
    119 N         -0.2541  -17.6543  -55.6711 N.am      22 UNK        -0.5000 
    120 CA         0.6994  -16.5574  -55.8882 C.3       22 UNK         0.1400 
    121 C          0.2159  -15.2167  -55.2644 C.2       22 UNK         0.5000 
    122 N          0.9525  -14.1314  -55.4632 N.am      22 UNK        -0.7600 
    123 O         -0.8291  -15.1361  -54.6233 O.2       22 UNK        -0.5000 
    124 C124        2.1652  -16.9811  -55.5527 C.3       23 UNK        -0.0398 
    125 S125        2.7460  -16.6954  -53.8432 S.3       23 UNK        -0.2404 
    126 C126        1.8960  -18.0217  -52.9309 C.3       23 UNK        -0.0205 
    127 H127       -5.1061  -17.4291  -48.9254 H         1 UNK         0.0600 
    128 H128       -5.5519  -18.0419  -50.5214 H         1 UNK         0.0600 
    129 H129       -6.6268  -16.9327  -49.6653 H         1 UNK         0.0600 
    130 H130       -3.3556  -16.0617  -49.2187 H         1 UNK         0.3000 
    131 H131       -3.1921  -14.2373  -51.5337 H         1 UNK         0.0600 
    132 H132       -0.8961  -13.7997  -50.8054 H         1 UNK         0.0800 
    133 H133       -1.1691  -15.4979  -50.9963 H         1 UNK         0.0800 
    134 H134        1.4813  -14.8216  -48.0111 H         1 UNK         0.0800 
    135 H135        1.2854  -14.2034  -49.6272 H         1 UNK         0.0800 
    136 H136        1.0662  -15.8214  -51.5683 H         1 UNK         0.1150 
    137 H137        2.7934  -19.6942  -50.9619 H         1 UNK         0.1150 
    138 H138        1.9632  -17.1612  -47.6052 H         1 UNK         0.1150 
    139 H139        4.0662  -19.6962  -48.4311 H         1 UNK         0.0800 
    140 H140        2.9026  -19.2962  -47.1956 H         1 UNK         0.0800 
    141 H141       -0.0373  -20.6514  -48.7471 H         1 UNK         0.0800 
    142 H142        0.5026  -20.0944  -47.1820 H         1 UNK         0.0800 
    143 H143        0.0062  -23.0174  -47.9228 H         1 UNK         0.0600 
    144 H144        1.2270  -21.9414  -45.5668 H         1 UNK         0.3000 
    145 H145        0.8708  -24.9301  -43.6582 H         1 UNK         0.0600 
    146 H146        3.3376  -24.7272  -43.6068 H         1 UNK         0.0600 
    147 H147        2.8207  -25.3319  -45.1727 H         1 UNK         0.0600 
    148 H148        3.3111  -23.6504  -45.0035 H         1 UNK         0.0600 
    149 H149        2.2284  -22.5972  -42.9698 H         1 UNK         0.3000 
    150 H150        0.0037  -20.3617  -42.1979 H         1 UNK         0.0600 
    151 H151       -1.4146  -21.5749  -40.6020 H         1 UNK         0.0600 
    152 H152       -0.2304  -20.6228  -39.7225 H         1 UNK         0.0600 
    153 H153       -0.0203  -22.3665  -39.8850 H         1 UNK         0.0600 
    154 H154        2.0836  -19.9439  -41.7468 H         1 UNK         0.3000 
    155 H155        4.5370  -21.1818  -39.6481 H         1 UNK         0.0600 
    156 H156        4.8438  -21.3830  -42.6956 H         1 UNK         0.0600 
    157 H157        5.1954  -22.6686  -41.5468 H         1 UNK         0.0600 
    158 H158        6.1582  -21.2009  -41.5336 H         1 UNK         0.0600 
    159 H159        4.5341  -19.1617  -41.7190 H         1 UNK         0.3000 
    160 H160        2.7108  -16.7182  -40.0258 H         1 UNK         0.0600 
    161 H161        5.7716  -16.7186  -40.1961 H         1 UNK         0.0600 
    162 H162        4.8371  -16.4694  -38.7263 H         1 UNK         0.0600 
    163 H163        4.7386  -15.2978  -40.0296 H         1 UNK         0.0600 
    164 H164        4.3629  -16.3407  -42.2366 H         1 UNK         0.3000 
    165 H165        3.1219  -15.9525  -44.2621 H         1 UNK         0.0600 
    166 H166        4.1506  -17.5471  -45.8936 H         1 UNK         0.0600 
    167 H167        4.9586  -17.6520  -44.3417 H         1 UNK         0.0600 
    168 H168        3.8118  -18.8998  -44.8114 H         1 UNK         0.0600 
    169 H169        1.5941  -18.1353  -45.4475 H         1 UNK         0.3000 
    170 H170       -0.4779  -17.1548  -46.6262 H         1 UNK         0.0600 
    171 H171       -0.2920  -19.1476  -45.0168 H         1 UNK         0.0600 
    172 H172       -1.4875  -18.3711  -43.9900 H         1 UNK         0.0600 
    173 H173       -1.9070  -18.8801  -45.6299 H         1 UNK         0.0600 
    174 H174       -1.5871  -15.3177  -44.8062 H         1 UNK         0.3000 
    175 H175       -4.6522  -14.9299  -46.6432 H         1 UNK         0.0600 
    176 H176       -3.8968  -14.9404  -43.6771 H         1 UNK         0.0600 
    177 H177       -5.2390  -14.0395  -44.3829 H         1 UNK         0.0600 
    178 H178       -5.2256  -15.7958  -44.4367 H         1 UNK         0.0600 
    179 H179       -3.3706  -13.2214  -47.0483 H         1 UNK         0.3000 
    180 H180       -1.7186  -10.9117  -45.4229 H         1 UNK         0.0600 
    181 H181        0.5694  -11.2017  -46.4120 H         1 UNK         0.0600 
    182 H182        0.3042  -12.9428  -46.5143 H         1 UNK         0.0600 
    183 H183        0.3735  -12.1498  -44.9477 H         1 UNK         0.0600 
    184 H184       -1.4152  -12.1411  -48.1050 H         1 UNK         0.3000 
    185 H185       -4.2199  -10.5280  -49.4463 H         1 UNK         0.0600 
    186 H186       -2.6700   -9.5343  -51.1060 H         1 UNK         0.0600 
    187 H187       -2.5921   -8.6349  -49.6003 H         1 UNK         0.0600 
    188 H188       -1.3049   -9.7617  -50.0112 H         1 UNK         0.0600 
    189 H189       -2.1820  -11.9690  -50.7546 H         1 UNK         0.3000 
    190 H190       -1.3399  -21.7008  -44.9948 H         1 UNK         0.3000 
    191 H191       -4.0379  -21.2985  -46.1113 H         1 UNK         0.0600 
    192 H192       -4.6294  -20.9728  -43.6597 H         1 UNK         0.0600 
    193 H193       -3.5047  -19.8000  -44.2966 H         1 UNK         0.0600 
    194 H194       -2.9226  -21.1100  -43.2699 H         1 UNK         0.0600 
    195 H195       -2.2541  -23.5942  -44.0105 H         1 UNK         0.3000 
    196 H196       -4.3076  -25.4087  -43.4729 H         1 UNK         0.0600 
    197 H197       -1.3098  -25.9708  -43.7650 H         1 UNK         0.0600 
    198 H198       -2.0960  -25.3548  -42.3122 H         1 UNK         0.0600 
    199 H199       -2.4678  -26.9695  -42.8989 H         1 UNK         0.0600 
    200 H200       -2.2391  -25.1985  -46.3356 H         1 UNK         0.3000 
    201 H201       -3.2641  -27.5435  -47.6912 H         1 UNK         0.0600 
    202 H202       -1.7240  -25.1013  -48.7027 H         1 UNK         0.0600 
    203 H203       -1.9636  -26.5991  -49.5991 H         1 UNK         0.0600 
    204 H204       -1.0030  -26.6020  -48.1289 H         1 UNK         0.0600 
    205 H205       -5.4524  -26.1961  -46.7394 H         1 UNK         0.3000 
    206 H206       -7.4773  -25.3944  -47.1555 H         1 UNK         0.0600 
    207 H207       -7.5035  -27.4693  -48.5660 H         1 UNK         0.0600 
    208 H208       -8.5881  -26.2430  -49.1967 H         1 UNK         0.0600 
    209 H209       -7.0336  -26.5175  -49.9739 H         1 UNK         0.0600 
    210 H210       -5.3548  -23.4800  -47.5758 H         1 UNK         0.3000 
    211 H211       -4.8121  -21.4633  -48.2849 H         1 UNK         0.0600 
    212 H212       -6.5362  -19.8140  -48.8247 H         1 UNK         0.0600 
    213 H213       -7.1011  -20.8290  -47.5094 H         1 UNK         0.0600 
    214 H214       -7.7185  -21.0722  -49.1440 H         1 UNK         0.0600 
    215 H215       -5.3052  -23.8348  -50.4474 H         1 UNK         0.3000 
    216 H216       -5.5482  -22.4412  -52.9418 H         1 UNK         0.0600 
    217 H217       -4.6047  -25.2955  -52.3378 H         1 UNK         0.0600 
    218 H218       -5.0891  -24.6807  -53.9133 H         1 UNK         0.0600 
    219 H219       -6.2733  -24.8020  -52.6198 H         1 UNK         0.0600 
    220 H220       -2.7947  -23.6435  -51.0429 H         1 UNK         0.3000 
    221 H221       -0.7612  -23.0687  -53.0031 H         1 UNK         0.0600 
    222 H222       -0.3712  -24.7052  -51.2062 H         1 UNK         0.0600 
    223 H223       -0.6255  -23.4678  -49.9796 H         1 UNK         0.0600 
    224 H224        0.7804  -23.3861  -51.0337 H         1 UNK         0.0600 
    225 H225       -2.3554  -21.1501  -50.4828 H         1 UNK         0.3000 
    226 H226       -0.5443  -18.8851  -50.6589 H         1 UNK         0.0600 
    227 H227       -3.3707  -19.0658  -49.4973 H         1 UNK         0.0600 
    228 H228       -1.8894  -19.3349  -48.5952 H         1 UNK         0.0600 
    229 H229       -2.2159  -17.7560  -49.2638 H         1 UNK         0.0600 
    230 H230       -3.8064  -19.6882  -51.9647 H         1 UNK         0.3000 
    231 H231       -4.1977  -17.3053  -53.4331 H         1 UNK         0.0600 
    232 H232       -5.3508  -20.1125  -53.8615 H         1 UNK         0.0600 
    233 H233       -6.0076  -18.6289  -54.5431 H         1 UNK         0.0600 
    234 H234       -6.0195  -18.8704  -52.8041 H         1 UNK         0.0600 
    235 H235       -2.1891  -20.0317  -54.2017 H         1 UNK         0.3000 
    236 H236       -2.1692  -19.8397  -57.0415 H         1 UNK         0.0600 
    237 H237       -1.5178  -21.8907  -55.8186 H         1 UNK         0.0600 
    238 H238       -0.1910  -21.3566  -56.8305 H         1 UNK         0.0600 
    239 H239       -0.1381  -21.0591  -55.0990 H         1 UNK         0.0600 
    240 H240       -0.8069  -17.5896  -54.8244 H         1 UNK         0.3000 
    241 H241        0.6739  -16.3471  -56.9594 H         1 UNK         0.0600 
    242 H242        0.6444  -13.2556  -55.0713 H         1 UNK         0.3800 
    243 H243        1.8160  -14.1633  -55.9822 H         1 UNK         0.3800 
    244 H244        2.3355  -18.0273  -55.8102 H         1 UNK         0.0800 
    245 H245        2.8423  -16.4224  -56.1999 H         1 UNK         0.0800 
    246 H246        0.8551  -18.0798  -53.2436 H         1 UNK         0.0800 
    247 H247        2.3493  -18.9807  -53.1859 H         1 UNK         0.0800 
@<TRIPOS>BOND
     1    1    2 1    
     2    1  127 1    
     3    1  128 1    
     4    1  129 1    
     5    2    3 2    
     6    2    4 am   BACKBONE|DICT|INTERRES
     7    4    5 1    
     8    4  130 1    
     9    5    6 1    
    10    5   65 1    
    11    5  131 1    
    12    6    7 1    
    13    6  132 1    
    14    6  133 1    
    15    7    8 1    
    16    8    9 1    
    17    8  134 1    
    18    8  135 1    
    19    9   10 ar   
    20    9   14 ar   
    21   10   11 ar   
    22   10  136 1    
    23   11   12 ar   
    24   11  126 1    
    25   12   13 ar   
    26   12  137 1    
    27   13   14 ar   
    28   13   15 1    
    29   14  138 1    
    30   15   16 1    
    31   15  139 1    
    32   15  140 1    
    33   16   17 1    
    34   17   18 1    
    35   17  141 1    
    36   17  142 1    
    37   18   19 1    
    38   18   67 1    
    39   18  143 1    
    40   19   20 am   BACKBONE|DICT|INTERRES
    41   19  144 1    
    42   20   21 2    
    43   20   22 1    
    44   22   23 1    
    45   22   24 1    
    46   22  145 1    
    47   23  146 1    
    48   23  147 1    
    49   23  148 1    
    50   24   25 am   BACKBONE|DICT|INTERRES
    51   24  149 1    
    52   25   26 2    
    53   25   27 1    
    54   27   28 1    
    55   27   29 1    
    56   27  150 1    
    57   28  151 1    
    58   28  152 1    
    59   28  153 1    
    60   29   30 am   BACKBONE|DICT|INTERRES
    61   29  154 1    
    62   30   31 2    
    63   30   32 1    
    64   32   33 1    
    65   32   34 1    
    66   32  155 1    
    67   33  156 1    
    68   33  157 1    
    69   33  158 1    
    70   34   35 am   BACKBONE|DICT|INTERRES
    71   34  159 1    
    72   35   36 2    
    73   35   37 1    
    74   37   38 1    
    75   37   39 1    
    76   37  160 1    
    77   38  161 1    
    78   38  162 1    
    79   38  163 1    
    80   39   40 am   BACKBONE|DICT|INTERRES
    81   39  164 1    
    82   40   41 2    
    83   40   42 1    
    84   42   43 1    
    85   42   44 1    
    86   42  165 1    
    87   43  166 1    
    88   43  167 1    
    89   43  168 1    
    90   44   45 am   BACKBONE|DICT|INTERRES
    91   44  169 1    
    92   45   46 2    
    93   45   47 1    
    94   47   48 1    
    95   47   49 1    
    96   47  170 1    
    97   48  171 1    
    98   48  172 1    
    99   48  173 1    
   100   49   50 am   BACKBONE|DICT|INTERRES
   101   49  174 1    
   102   50   51 2    
   103   50   52 1    
   104   52   53 1    
   105   52   54 1    
   106   52  175 1    
   107   53  176 1    
   108   53  177 1    
   109   53  178 1    
   110   54   55 am   BACKBONE|DICT|INTERRES
   111   54  179 1    
   112   55   56 2    
   113   55   57 1    
   114   57   58 1    
   115   57   59 1    
   116   57  180 1    
   117   58  181 1    
   118   58  182 1    
   119   58  183 1    
   120   59   60 am   BACKBONE|DICT|INTERRES
   121   59  184 1    
   122   60   61 2    
   123   60   62 1    
   124   62   63 1    
   125   62   64 1    
   126   62  185 1    
   127   63  186 1    
   128   63  187 1    
   129   63  188 1    
   130   64   65 am   BACKBONE|DICT|INTERRES
   131   64  189 1    
   132   65   66 2    
   133   67   68 2    
   134   67   69 am   BACKBONE|DICT|INTERRES
   135   69   70 1    
   136   69  190 1    
   137   70   71 1    
   138   70   72 1    
   139   70  191 1    
   140   71  192 1    
   141   71  193 1    
   142   71  194 1    
   143   72   73 2    
   144   72   74 am   BACKBONE|DICT|INTERRES
   145   74   75 1    
   146   74  195 1    
   147   75   76 1    
   148   75   77 1    
   149   75  196 1    
   150   76  197 1    
   151   76  198 1    
   152   76  199 1    
   153   77   78 2    
   154   77   79 am   BACKBONE|DICT|INTERRES
   155   79   80 1    
   156   79  200 1    
   157   80   81 1    
   158   80   82 1    
   159   80  201 1    
   160   81  202 1    
   161   81  203 1    
   162   81  204 1    
   163   82   83 2    
   164   82   84 am   BACKBONE|DICT|INTERRES
   165   84   85 1    
   166   84  205 1    
   167   85   86 1    
   168   85   87 1    
   169   85  206 1    
   170   86  207 1    
   171   86  208 1    
   172   86  209 1    
   173   87   88 2    
   174   87   89 am   BACKBONE|DICT|INTERRES
   175   89   90 1    
   176   89  210 1    
   177   90   91 1    
   178   90   92 1    
   179   90  211 1    
   180   91  212 1    
   181   91  213 1    
   182   91  214 1    
   183   92   93 2    
   184   92   94 am   BACKBONE|DICT|INTERRES
   185   94   95 1    
   186   94  215 1    
   187   95   96 1    
   188   95   97 1    
   189   95  216 1    
   190   96  217 1    
   191   96  218 1    
   192   96  219 1    
   193   97   98 2    
   194   97   99 am   BACKBONE|DICT|INTERRES
   195   99  100 1    
   196   99  220 1    
   197  100  101 1    
   198  100  102 1    
   199  100  221 1    
   200  101  222 1    
   201  101  223 1    
   202  101  224 1    
   203  102  103 2    
   204  102  104 am   BACKBONE|DICT|INTERRES
   205  104  105 1    
   206  104  225 1    
   207  105  106 1    
   208  105  107 1    
   209  105  226 1    
   210  106  227 1    
   211  106  228 1    
   212  106  229 1    
   213  107  108 2    
   214  107  109 am   BACKBONE|DICT|INTERRES
   215  109  110 1    
   216  109  230 1    
   217  110  111 1    
   218  110  112 1    
   219  110  231 1    
   220  111  232 1    
   221  111  233 1    
   222  111  234 1    
   223  112  113 2    
   224  112  114 am   BACKBONE|DICT|INTERRES
   225  114  115 1    
   226  114  235 1    
   227  115  116 1    
   228  115  117 1    
   229  115  236 1    
   230  116  237 1    
   231  116  238 1    
   232  116  239 1    
   233  117  118 2    
   234  117  119 am   BACKBONE|DICT|INTERRES
   235  119  120 1    
   236  119  240 1    
   237  120  121 1    
   238  120  124 1    
   239  120  241 1    
   240  121  122 am   BACKBONE|DICT|INTERRES
   241  121  123 2    
   242  122  242 1    
   243  122  243 1    
   244  124  125 1    
   245  124  244 1    
   246  124  245 1    
   247  125  126 1    
   248  126  246 1    
   249  126  247 1    
@<TRIPOS>SUBSTRUCTURE
     1 UNK         1 GROUP             0       ****    0 ROOT    
