@<TRIPOS>MOLECULE
3R540
247   249    1
SMALL
USER_CHARGES


@<TRIPOS>ATOM
      1 CA         -2.0036  -12.9685  -45.2995 C.3       0 UNK        -0.1800 
      2 C          -1.2854  -12.4989  -46.5540 C.2       0 UNK         0.5000 
      3 O          -1.9077  -11.8844  -47.4201 O.2       0 UNK        -0.5000 
      4 N           0.0138  -12.7943  -46.6491 N.am      1 UNK        -0.5000 
      5 CA          0.8904  -12.4442  -47.7704 C.3       1 UNK         0.1400 
      6 C6          1.1329  -13.6562  -48.7141 C.3       23 UNK        -0.0398 
      7 S7         -0.3441  -14.0547  -49.7092 S.3       23 UNK        -0.2404 
      8 C8         -0.9860  -15.5307  -48.8655 C.3       23 UNK        -0.0205 
      9 C9         -0.4763  -16.8104  -49.5087 C.ar      23 UNK        -0.0193 
     10 C10        -1.2052  -17.4098  -50.5401 C.ar      23 UNK        -0.1150 
     11 C11        -0.7768  -18.6126  -51.1094 C.ar      23 UNK        -0.0193 
     12 C12         0.3983  -19.2080  -50.6433 C.ar      23 UNK        -0.1150 
     13 C13         1.1452  -18.6121  -49.6234 C.ar      23 UNK        -0.0193 
     14 C14         0.7045  -17.4103  -49.0627 C.ar      23 UNK        -0.1150 
     15 C15         2.4164  -19.2841  -49.1221 C.3       23 UNK        -0.0205 
     16 S16         2.1417  -20.2521  -47.6018 S.3       23 UNK        -0.2404 
     17 C17         0.7181  -21.2910  -48.0813 C.3       23 UNK        -0.0398 
     18 CA          0.3975  -22.3983  -47.0544 C.3       11 UNK         0.1400 
     19 N           0.0758  -21.8721  -45.7239 N.am      11 UNK        -0.5000 
     20 C           0.0391  -22.6256  -44.6168 C.2       10 UNK         0.5000 
     21 O           0.2641  -23.8350  -44.6158 O.2       10 UNK        -0.5000 
     22 CA         -0.3509  -21.9369  -43.2981 C.3       10 UNK         0.1400 
     23 CB          0.8525  -21.2055  -42.6871 C.3       10 UNK        -0.1800 
     24 N          -1.4818  -21.0163  -43.4236 N.am      10 UNK        -0.5000 
     25 C          -2.7251  -21.3855  -43.7643 C.2       9 UNK         0.5000 
     26 O          -3.0261  -22.5267  -44.1136 O.2       9 UNK        -0.5000 
     27 CA         -3.8118  -20.3006  -43.7080 C.3       9 UNK         0.1400 
     28 CB         -4.2058  -19.9970  -42.2538 C.3       9 UNK        -0.1800 
     29 N          -3.3560  -19.0740  -44.3548 N.am      9 UNK        -0.5000 
     30 C          -3.5319  -18.7999  -45.6545 C.2       8 UNK         0.5000 
     31 O          -4.1813  -19.5112  -46.4205 O.2       8 UNK        -0.5000 
     32 CA         -2.8447  -17.5310  -46.2024 C.3       8 UNK         0.1400 
     33 CB         -3.7914  -16.3233  -46.1304 C.3       8 UNK        -0.1800 
     34 N          -1.5954  -17.1933  -45.5175 N.am      8 UNK        -0.5000 
     35 C          -0.5215  -17.9919  -45.4573 C.2       7 UNK         0.5000 
     36 O          -0.4644  -19.0976  -45.9887 O.2       7 UNK        -0.5000 
     37 CA          0.6541  -17.5103  -44.5914 C.3       7 UNK         0.1400 
     38 CB          1.6562  -16.7109  -45.4335 C.3       7 UNK        -0.1800 
     39 N           0.2444  -16.7359  -43.4134 N.am      7 UNK        -0.5000 
     40 C          -0.5307  -17.2132  -42.4234 C.2       6 UNK         0.5000 
     41 O          -1.0731  -18.3187  -42.4696 O.2       6 UNK        -0.5000 
     42 CA         -0.7338  -16.3442  -41.1665 C.3       6 UNK         0.1400 
     43 CB         -0.0786  -17.0162  -39.9494 C.3       6 UNK        -0.1800 
     44 N          -0.1813  -14.9977  -41.3051 N.am      6 UNK        -0.5000 
     45 C          -0.8382  -13.9417  -41.8024 C.2       5 UNK         0.5000 
     46 O          -2.0192  -13.9738  -42.1464 O.2       5 UNK        -0.5000 
     47 CA         -0.0291  -12.6365  -41.9641 C.3       5 UNK         0.1400 
     48 CB         -0.2880  -11.6929  -40.7802 C.3       5 UNK        -0.1800 
     49 N           1.4152  -12.8626  -42.0915 N.am      5 UNK        -0.5000 
     50 C           1.9933  -13.4815  -43.1283 C.2       4 UNK         0.5000 
     51 O           1.3684  -13.8914  -44.1114 O.2       4 UNK        -0.5000 
     52 CA          3.4934  -13.7770  -42.9935 C.3       4 UNK         0.1400 
     53 CB          3.6815  -15.0471  -42.1336 C.3       4 UNK        -0.1800 
     54 N           4.0638  -13.9445  -44.3284 N.am      4 UNK        -0.5000 
     55 C           5.3466  -14.1865  -44.6304 C.2       3 UNK         0.5000 
     56 O           6.2443  -14.2982  -43.7948 O.2       3 UNK        -0.5000 
     57 CA          5.6950  -14.3031  -46.1274 C.3       3 UNK         0.1400 
     58 CB          5.2960  -15.6830  -46.6752 C.3       3 UNK        -0.1800 
     59 N           5.0656  -13.2632  -46.9405 N.am      3 UNK        -0.5000 
     60 C           5.3402  -11.9525  -46.8631 C.2       2 UNK         0.5000 
     61 O           6.2234  -11.4795  -46.1467 O.2       2 UNK        -0.5000 
     62 CA          4.4784  -11.0046  -47.7252 C.3       2 UNK         0.1400 
     63 CB          5.2247  -10.6236  -49.0131 C.3       2 UNK        -0.1800 
     64 N           3.1597  -11.5435  -48.0812 N.am      2 UNK        -0.5000 
     65 C           2.2021  -11.8666  -47.2001 C.2       1 UNK         0.5000 
     66 O           2.3402  -11.7233  -45.9832 O.2       1 UNK        -0.5000 
     67 C          -0.7286  -23.3045  -47.5888 C.2       11 UNK         0.5000 
     68 O          -0.4366  -24.3016  -48.2516 O.2       11 UNK        -0.5000 
     69 N          -1.9864  -22.9597  -47.2735 N.am      12 UNK        -0.5000 
     70 CA         -3.1751  -23.7391  -47.6241 C.3       12 UNK         0.1400 
     71 CB         -4.4338  -22.8845  -47.4144 C.3       12 UNK        -0.1800 
     72 C          -3.2580  -25.0660  -46.8488 C.2       12 UNK         0.5000 
     73 O          -3.6869  -26.0746  -47.4080 O.2       12 UNK        -0.5000 
     74 N          -2.8126  -25.0564  -45.5857 N.am      13 UNK        -0.5000 
     75 CA         -2.6363  -26.2586  -44.7737 C.3       13 UNK         0.1400 
     76 CB         -2.4310  -25.8578  -43.3047 C.3       13 UNK        -0.1800 
     77 C          -1.4697  -27.1323  -45.2754 C.2       13 UNK         0.5000 
     78 O          -1.5783  -28.3588  -45.2474 O.2       13 UNK        -0.5000 
     79 N          -0.3808  -26.4882  -45.7191 N.am      14 UNK        -0.5000 
     80 CA          0.8326  -27.1401  -46.2033 C.3       14 UNK         0.1400 
     81 CB          1.9914  -26.1315  -46.2498 C.3       14 UNK        -0.1800 
     82 C           0.6584  -27.8374  -47.5635 C.2       14 UNK         0.5000 
     83 O           0.9362  -29.0350  -47.6519 O.2       14 UNK        -0.5000 
     84 N           0.2467  -27.0928  -48.6024 N.am      15 UNK        -0.5000 
     85 CA          0.2503  -27.5980  -49.9813 C.3       15 UNK         0.1400 
     86 CB          1.6943  -27.6256  -50.5241 C.3       15 UNK        -0.1800 
     87 C          -0.6573  -26.8449  -50.9694 C.2       15 UNK         0.5000 
     88 O          -1.0610  -27.4531  -51.9628 O.2       15 UNK        -0.5000 
     89 N          -0.9395  -25.5535  -50.7435 N.am      16 UNK        -0.5000 
     90 CA         -1.7420  -24.7371  -51.6620 C.3       16 UNK         0.1400 
     91 CB         -1.5453  -23.2458  -51.3395 C.3       16 UNK        -0.1800 
     92 C          -3.2349  -25.1181  -51.6262 C.2       16 UNK         0.5000 
     93 O          -3.7201  -25.6122  -50.6076 O.2       16 UNK        -0.5000 
     94 N          -3.9445  -24.8654  -52.7342 N.am      17 UNK        -0.5000 
     95 CA         -5.3842  -25.1174  -52.8584 C.3       17 UNK         0.1400 
     96 CB         -5.8022  -24.9725  -54.3304 C.3       17 UNK        -0.1800 
     97 C          -6.2235  -24.1922  -51.9568 C.2       17 UNK         0.5000 
     98 O          -7.1586  -24.6556  -51.3036 O.2       17 UNK        -0.5000 
     99 N          -5.8405  -22.9118  -51.9273 N.am      18 UNK        -0.5000 
    100 CA        -6.3911  -21.8271  -51.1240 C.3       18 UNK         0.1400 
    101 CB        -7.8699  -21.5575  -51.4718 C.3       18 UNK        -0.1800 
    102 C         -5.5480  -20.5784  -51.4114 C.2       18 UNK         0.5000 
    103 O         -4.8703  -20.5206  -52.4445 O.2       18 UNK        -0.5000 
    104 N         -5.6371  -19.5813  -50.5227 N.am      19 UNK        -0.5000 
    105 CA        -4.9586  -18.2912  -50.6638 C.3       19 UNK         0.1400 
    106 CB        -5.1686  -17.4531  -49.3963 C.3       19 UNK        -0.1800 
    107 C         -5.4143  -17.5168  -51.9136 C.2       19 UNK         0.5000 
    108 O         -4.5794  -17.0211  -52.6700 O.2       19 UNK        -0.5000 
    109 N         -6.7358  -17.4804  -52.1294 N.am      20 UNK        -0.5000 
    110 CA        -7.3716  -16.8422  -53.2825 C.3       20 UNK         0.1400 
    111 CB        -8.8706  -16.6715  -52.9910 C.3       20 UNK        -0.1800 
    112 C         -7.1652  -17.6156  -54.5991 C.2       20 UNK         0.5000 
    113 O         -7.2325  -17.0085  -55.6684 O.2       20 UNK        -0.5000 
    114 N         -6.9306  -18.9322  -54.5038 N.am      21 UNK        -0.5000 
    115 CA        -6.6834  -19.8053  -55.6489 C.3       21 UNK         0.1400 
    116 CB        -6.9845  -21.2647  -55.2729 C.3       21 UNK        -0.1800 
    117 C         -5.2483  -19.6560  -56.1764 C.2       21 UNK         0.5000 
    118 O         -5.0668  -19.4835  -57.3827 O.2       21 UNK        -0.5000 
    119 N         -4.2607  -19.7281  -55.2722 N.am      22 UNK        -0.5000 
    120 CA        -2.8343  -19.5943  -55.6138 C.3       22 UNK         0.1400 
    121 C         -2.3775  -18.1159  -55.8067 C.2       22 UNK         0.5000 
    122 N         -2.9984  -17.1355  -55.1602 N.am      22 UNK        -0.7600 
    123 O         -1.4624  -17.8516  -56.5823 O.2       22 UNK        -0.5000 
    124 C124       -1.9379  -20.4838  -54.6897 C.3       23 UNK        -0.0398 
    125 S125       -0.6411  -19.6866  -53.6761 S.3       23 UNK        -0.2404 
    126 C126       -1.6074  -19.2904  -52.1902 C.3       23 UNK        -0.0205 
    127 H127       -2.1128  -12.1436  -44.5960 H         1 UNK         0.0600 
    128 H128       -1.4565  -13.7745  -44.8111 H         1 UNK         0.0600 
    129 H129       -2.9987  -13.3377  -45.5455 H         1 UNK         0.0600 
    130 H130        0.4965  -13.1909  -45.8468 H         1 UNK         0.3000 
    131 H131        0.4449  -11.6323  -48.3490 H         1 UNK         0.0600 
    132 H132        1.9276  -13.4523  -49.4323 H         1 UNK         0.0800 
    133 H133        1.4594  -14.5298  -48.1489 H         1 UNK         0.0800 
    134 H134       -2.0757  -15.5071  -48.9112 H         1 UNK         0.0800 
    135 H135       -0.7317  -15.5047  -47.8051 H         1 UNK         0.0800 
    136 H136       -2.1131  -16.9401  -50.8915 H         1 UNK         0.1150 
    137 H137        0.7273  -20.1439  -51.0726 H         1 UNK         0.1150 
    138 H138        1.2748  -16.9491  -48.2724 H         1 UNK         0.1150 
    139 H139        2.8278  -19.9389  -49.8918 H         1 UNK         0.0800 
    140 H140        3.1783  -18.5281  -48.9271 H         1 UNK         0.0800 
    141 H141        0.9375  -21.7317  -49.0557 H         1 UNK         0.0800 
    142 H142       -0.1518  -20.6460  -48.2181 H         1 UNK         0.0800 
    143 H143        1.2907  -23.0178  -46.9558 H         1 UNK         0.0600 
    144 H144       -0.1237  -20.8744  -45.6730 H         1 UNK         0.3000 
    145 H145       -0.6522  -22.7198  -42.5990 H         1 UNK         0.0600 
    146 H146        0.5871  -20.7154  -41.7501 H         1 UNK         0.0600 
    147 H147        1.6617  -21.9045  -42.4723 H         1 UNK         0.0600 
    148 H148        1.2485  -20.4500  -43.3629 H         1 UNK         0.0600 
    149 H149       -1.3182  -20.0547  -43.1375 H         1 UNK         0.3000 
    150 H150       -4.6976  -20.6844  -44.2191 H         1 UNK         0.0600 
    151 H151       -4.5576  -20.8982  -41.7500 H         1 UNK         0.0600 
    152 H152       -5.0123  -19.2649  -42.2109 H         1 UNK         0.0600 
    153 H153       -3.3679  -19.6045  -41.6767 H         1 UNK         0.0600 
    154 H154       -2.7556  -18.4722  -43.8058 H         1 UNK         0.3000 
    155 H155       -2.6065  -17.7212  -47.2511 H         1 UNK         0.0600 
    156 H156       -3.9674  -16.0114  -45.1002 H         1 UNK         0.0600 
    157 H157       -3.3834  -15.4728  -46.6758 H         1 UNK         0.0600 
    158 H158       -4.7625  -16.5523  -46.5702 H         1 UNK         0.0600 
    159 H159       -1.5696  -16.3194  -45.0142 H         1 UNK         0.3000 
    160 H160        1.1742  -18.3952  -44.2262 H         1 UNK         0.0600 
    161 H161        1.1897  -15.8499  -45.9129 H         1 UNK         0.0600 
    162 H162        2.0842  -17.3393  -46.2143 H         1 UNK         0.0600 
    163 H163        2.4879  -16.3545  -44.8281 H         1 UNK         0.0600 
    164 H164        0.6122  -15.7961  -43.3441 H         1 UNK         0.3000 
    165 H165       -1.8085  -16.2827  -40.9829 H         1 UNK         0.0600 
    166 H166       -0.2528  -16.4404  -39.0402 H         1 UNK         0.0600 
    167 H167       -0.4888  -18.0133  -39.7829 H         1 UNK         0.0600 
    168 H168        0.9993  -17.1224  -40.0789 H         1 UNK         0.0600 
    169 H169        0.7811  -14.8743  -41.0288 H         1 UNK         0.3000 
    170 H170       -0.3739  -12.1438  -42.8749 H         1 UNK         0.0600 
    171 H171       -1.3530  -11.4805  -40.6759 H         1 UNK         0.0600 
    172 H172        0.0546  -12.1239  -39.8387 H         1 UNK         0.0600 
    173 H173        0.2198  -10.7381  -40.9182 H         1 UNK         0.0600 
    174 H174        1.9875  -12.5595  -41.3163 H         1 UNK         0.3000 
    175 H175        3.9794  -12.9259  -42.5131 H         1 UNK         0.0600 
    176 H176        3.2630  -15.9296  -42.6178 H         1 UNK         0.0600 
    177 H177        4.7319  -15.2483  -41.9277 H         1 UNK         0.0600 
    178 H178        3.1923  -14.9443  -41.1645 H         1 UNK         0.0600 
    179 H179        3.3914  -13.8115  -45.0734 H         1 UNK         0.3000 
    180 H180        6.7777  -14.1992  -46.2257 H         1 UNK         0.0600 
    181 H181        4.2151  -15.8242  -46.6690 H         1 UNK         0.0600 
    182 H182        5.7353  -16.4832  -46.0780 H         1 UNK         0.0600 
    183 H183        5.6442  -15.8154  -47.6997 H         1 UNK         0.0600 
    184 H184        4.3411  -13.5592  -47.5758 H         1 UNK         0.3000 
    185 H185        4.3181  -10.0952  -47.1422 H         1 UNK         0.0600 
    186 H186        6.2003  -10.1911  -48.7867 H         1 UNK         0.0600 
    187 H187        5.3912  -11.4910  -49.6531 H         1 UNK         0.0600 
    188 H188        4.6690   -9.8823  -49.5877 H         1 UNK         0.0600 
    189 H189        2.9803  -11.6533  -49.0689 H         1 UNK         0.3000 
    190 H190       -2.1338  -22.1438  -46.6968 H         1 UNK         0.3000 
    191 H191       -3.1153  -23.9871  -48.6826 H         1 UNK         0.0600 
    192 H192       -4.3983  -21.9768  -48.0174 H         1 UNK         0.0600 
    193 H193       -4.5541  -22.5885  -46.3721 H         1 UNK         0.0600 
    194 H194       -5.3295  -23.4342  -47.7064 H         1 UNK         0.0600 
    195 H195       -2.5599  -24.1707  -45.1593 H         1 UNK         0.3000 
    196 H196       -3.5508  -26.8522  -44.8368 H         1 UNK         0.0600 
    197 H197       -2.3296  -26.7393  -42.6706 H         1 UNK         0.0600 
    198 H198       -3.2789  -25.2831  -42.9315 H         1 UNK         0.0600 
    199 H199       -1.5342  -25.2526  -43.1716 H         1 UNK         0.0600 
    200 H200       -0.3481  -25.4783  -45.6334 H         1 UNK         0.3000 
    201 H201        1.1035  -27.9082  -45.4756 H         1 UNK         0.0600 
    202 H202        2.1817  -25.7026  -45.2659 H         1 UNK         0.0600 
    203 H203        1.7898  -25.3136  -46.9400 H         1 UNK         0.0600 
    204 H204        2.9137  -26.6134  -46.5765 H         1 UNK         0.0600 
    205 H205       -0.0025  -26.1186  -48.4532 H         1 UNK         0.3000 
    206 H206       -0.1267  -28.6231  -49.9673 H         1 UNK         0.0600 
    207 H207        2.3282  -28.3006  -49.9494 H         1 UNK         0.0600 
    208 H208        1.7211  -27.9695  -51.5590 H         1 UNK         0.0600 
    209 H209        2.1483  -26.6344  -50.4956 H         1 UNK         0.0600 
    210 H210       -0.6389  -25.1042  -49.8839 H         1 UNK         0.3000 
    211 H211       -1.3723  -24.9094  -52.6753 H         1 UNK         0.0600 
    212 H212       -1.9248  -22.9836  -50.3536 H         1 UNK         0.0600 
    213 H213       -2.0697  -22.6217  -52.0632 H         1 UNK         0.0600 
    214 H214       -0.4919  -22.9675  -51.3771 H         1 UNK         0.0600 
    215 H215       -3.4813  -24.4725  -53.5406 H         1 UNK         0.3000 
    216 H216       -5.5785  -26.1472  -52.5505 H         1 UNK         0.0600 
    217 H217       -6.8741  -25.1352  -54.4504 H         1 UNK         0.0600 
    218 H218       -5.2917  -25.7034  -54.9576 H         1 UNK         0.0600 
    219 H219       -5.5750  -23.9802  -54.7208 H         1 UNK         0.0600 
    220 H220       -5.0567  -22.6195  -52.4974 H         1 UNK         0.3000 
    221 H221       -6.2939  -22.0868  -50.0682 H         1 UNK         0.0600 
    222 H222       -8.0048  -21.3495  -52.5325 H         1 UNK         0.0600 
    223 H223       -8.5057  -22.4045  -51.2165 H         1 UNK         0.0600 
    224 H224       -8.2557  -20.7001  -50.9193 H         1 UNK         0.0600 
    225 H225       -6.2098  -19.7018  -49.6996 H         1 UNK         0.3000 
    226 H226       -3.8933  -18.4941  -50.7536 H         1 UNK         0.0600 
    227 H227       -4.8061  -17.9860  -48.5196 H         1 UNK         0.0600 
    228 H228       -4.6219  -16.5109  -49.4544 H         1 UNK         0.0600 
    229 H229       -6.2205  -17.2164  -49.2323 H         1 UNK         0.0600 
    230 H230       -7.3483  -17.9204  -51.4586 H         1 UNK         0.3000 
    231 H231       -6.9331  -15.8502  -53.4113 H         1 UNK         0.0600 
    232 H232       -9.3753  -16.1718  -53.8189 H         1 UNK         0.0600 
    233 H233       -9.0329  -16.0645  -52.1001 H         1 UNK         0.0600 
    234 H234       -9.3633  -17.6326  -52.8383 H         1 UNK         0.0600 
    235 H235       -6.8523  -19.3436  -53.5868 H         1 UNK         0.3000 
    236 H236       -7.3662  -19.5261  -56.4545 H         1 UNK         0.0600 
    237 H237       -8.0267  -21.3886  -54.9793 H         1 UNK         0.0600 
    238 H238       -6.8070  -21.9291  -56.1195 H         1 UNK         0.0600 
    239 H239       -6.3585  -21.6101  -54.4514 H         1 UNK         0.0600 
    240 H240       -4.4869  -19.8729  -54.2934 H         1 UNK         0.3000 
    241 H241       -2.7218  -20.0312  -56.6088 H         1 UNK         0.0600 
    242 H242       -3.7078  -17.3207  -54.4603 H         1 UNK         0.3800 
    243 H243       -2.6954  -16.1869  -55.3092 H         1 UNK         0.3800 
    244 H244       -2.5530  -21.0994  -54.0319 H         1 UNK         0.0800 
    245 H245       -1.4145  -21.2077  -55.3158 H         1 UNK         0.0800 
    246 H246       -2.0480  -20.1989  -51.7789 H         1 UNK         0.0800 
    247 H247       -2.4332  -18.6501  -52.4986 H         1 UNK         0.0800 
@<TRIPOS>BOND
     1    1    2 1    
     2    1  127 1    
     3    1  128 1    
     4    1  129 1    
     5    2    3 2    
     6    2    4 am   BACKBONE|DICT|INTERRES
     7    4    5 1    
     8    4  130 1    
     9    5    6 1    
    10    5   65 1    
    11    5  131 1    
    12    6    7 1    
    13    6  132 1    
    14    6  133 1    
    15    7    8 1    
    16    8    9 1    
    17    8  134 1    
    18    8  135 1    
    19    9   10 ar   
    20    9   14 ar   
    21   10   11 ar   
    22   10  136 1    
    23   11   12 ar   
    24   11  126 1    
    25   12   13 ar   
    26   12  137 1    
    27   13   14 ar   
    28   13   15 1    
    29   14  138 1    
    30   15   16 1    
    31   15  139 1    
    32   15  140 1    
    33   16   17 1    
    34   17   18 1    
    35   17  141 1    
    36   17  142 1    
    37   18   19 1    
    38   18   67 1    
    39   18  143 1    
    40   19   20 am   BACKBONE|DICT|INTERRES
    41   19  144 1    
    42   20   21 2    
    43   20   22 1    
    44   22   23 1    
    45   22   24 1    
    46   22  145 1    
    47   23  146 1    
    48   23  147 1    
    49   23  148 1    
    50   24   25 am   BACKBONE|DICT|INTERRES
    51   24  149 1    
    52   25   26 2    
    53   25   27 1    
    54   27   28 1    
    55   27   29 1    
    56   27  150 1    
    57   28  151 1    
    58   28  152 1    
    59   28  153 1    
    60   29   30 am   BACKBONE|DICT|INTERRES
    61   29  154 1    
    62   30   31 2    
    63   30   32 1    
    64   32   33 1    
    65   32   34 1    
    66   32  155 1    
    67   33  156 1    
    68   33  157 1    
    69   33  158 1    
    70   34   35 am   BACKBONE|DICT|INTERRES
    71   34  159 1    
    72   35   36 2    
    73   35   37 1    
    74   37   38 1    
    75   37   39 1    
    76   37  160 1    
    77   38  161 1    
    78   38  162 1    
    79   38  163 1    
    80   39   40 am   BACKBONE|DICT|INTERRES
    81   39  164 1    
    82   40   41 2    
    83   40   42 1    
    84   42   43 1    
    85   42   44 1    
    86   42  165 1    
    87   43  166 1    
    88   43  167 1    
    89   43  168 1    
    90   44   45 am   BACKBONE|DICT|INTERRES
    91   44  169 1    
    92   45   46 2    
    93   45   47 1    
    94   47   48 1    
    95   47   49 1    
    96   47  170 1    
    97   48  171 1    
    98   48  172 1    
    99   48  173 1    
   100   49   50 am   BACKBONE|DICT|INTERRES
   101   49  174 1    
   102   50   51 2    
   103   50   52 1    
   104   52   53 1    
   105   52   54 1    
   106   52  175 1    
   107   53  176 1    
   108   53  177 1    
   109   53  178 1    
   110   54   55 am   BACKBONE|DICT|INTERRES
   111   54  179 1    
   112   55   56 2    
   113   55   57 1    
   114   57   58 1    
   115   57   59 1    
   116   57  180 1    
   117   58  181 1    
   118   58  182 1    
   119   58  183 1    
   120   59   60 am   BACKBONE|DICT|INTERRES
   121   59  184 1    
   122   60   61 2    
   123   60   62 1    
   124   62   63 1    
   125   62   64 1    
   126   62  185 1    
   127   63  186 1    
   128   63  187 1    
   129   63  188 1    
   130   64   65 am   BACKBONE|DICT|INTERRES
   131   64  189 1    
   132   65   66 2    
   133   67   68 2    
   134   67   69 am   BACKBONE|DICT|INTERRES
   135   69   70 1    
   136   69  190 1    
   137   70   71 1    
   138   70   72 1    
   139   70  191 1    
   140   71  192 1    
   141   71  193 1    
   142   71  194 1    
   143   72   73 2    
   144   72   74 am   BACKBONE|DICT|INTERRES
   145   74   75 1    
   146   74  195 1    
   147   75   76 1    
   148   75   77 1    
   149   75  196 1    
   150   76  197 1    
   151   76  198 1    
   152   76  199 1    
   153   77   78 2    
   154   77   79 am   BACKBONE|DICT|INTERRES
   155   79   80 1    
   156   79  200 1    
   157   80   81 1    
   158   80   82 1    
   159   80  201 1    
   160   81  202 1    
   161   81  203 1    
   162   81  204 1    
   163   82   83 2    
   164   82   84 am   BACKBONE|DICT|INTERRES
   165   84   85 1    
   166   84  205 1    
   167   85   86 1    
   168   85   87 1    
   169   85  206 1    
   170   86  207 1    
   171   86  208 1    
   172   86  209 1    
   173   87   88 2    
   174   87   89 am   BACKBONE|DICT|INTERRES
   175   89   90 1    
   176   89  210 1    
   177   90   91 1    
   178   90   92 1    
   179   90  211 1    
   180   91  212 1    
   181   91  213 1    
   182   91  214 1    
   183   92   93 2    
   184   92   94 am   BACKBONE|DICT|INTERRES
   185   94   95 1    
   186   94  215 1    
   187   95   96 1    
   188   95   97 1    
   189   95  216 1    
   190   96  217 1    
   191   96  218 1    
   192   96  219 1    
   193   97   98 2    
   194   97   99 am   BACKBONE|DICT|INTERRES
   195   99  100 1    
   196   99  220 1    
   197  100  101 1    
   198  100  102 1    
   199  100  221 1    
   200  101  222 1    
   201  101  223 1    
   202  101  224 1    
   203  102  103 2    
   204  102  104 am   BACKBONE|DICT|INTERRES
   205  104  105 1    
   206  104  225 1    
   207  105  106 1    
   208  105  107 1    
   209  105  226 1    
   210  106  227 1    
   211  106  228 1    
   212  106  229 1    
   213  107  108 2    
   214  107  109 am   BACKBONE|DICT|INTERRES
   215  109  110 1    
   216  109  230 1    
   217  110  111 1    
   218  110  112 1    
   219  110  231 1    
   220  111  232 1    
   221  111  233 1    
   222  111  234 1    
   223  112  113 2    
   224  112  114 am   BACKBONE|DICT|INTERRES
   225  114  115 1    
   226  114  235 1    
   227  115  116 1    
   228  115  117 1    
   229  115  236 1    
   230  116  237 1    
   231  116  238 1    
   232  116  239 1    
   233  117  118 2    
   234  117  119 am   BACKBONE|DICT|INTERRES
   235  119  120 1    
   236  119  240 1    
   237  120  121 1    
   238  120  124 1    
   239  120  241 1    
   240  121  122 am   BACKBONE|DICT|INTERRES
   241  121  123 2    
   242  122  242 1    
   243  122  243 1    
   244  124  125 1    
   245  124  244 1    
   246  124  245 1    
   247  125  126 1    
   248  126  246 1    
   249  126  247 1    
@<TRIPOS>SUBSTRUCTURE
     1 UNK         1 GROUP             0       ****    0 ROOT    
