@<TRIPOS>MOLECULE
3R540
247   249    1
SMALL
USER_CHARGES


@<TRIPOS>ATOM
      1 CA         -1.9498  -14.6558  -49.0134 C.3       0 UNK        -0.1800 
      2 C          -0.5343  -14.1021  -49.0619 C.2       0 UNK         0.5000 
      3 O          -0.3371  -12.9323  -49.3909 O.2       0 UNK        -0.5000 
      4 N           0.4515  -14.9462  -48.7343 N.am      1 UNK        -0.5000 
      5 CA          1.8848  -14.6208  -48.7460 C.3       1 UNK         0.1400 
      6 C6          2.7696  -15.8891  -48.6784 C.3       23 UNK        -0.0398 
      7 S7          2.5068  -17.0251  -50.0833 S.3       23 UNK        -0.2404 
      8 C8          1.8358  -18.5039  -49.2611 C.3       23 UNK        -0.0205 
      9 C9          0.3451  -18.3839  -48.9958 C.ar      23 UNK        -0.0193 
     10 C10        -0.5676  -18.6602  -50.0153 C.ar      23 UNK        -0.1150 
     11 C11        -1.9421  -18.5927  -49.7755 C.ar      23 UNK        -0.0193 
     12 C12        -2.4026  -18.2382  -48.5041 C.ar      23 UNK        -0.1150 
     13 C13        -1.4981  -17.9649  -47.4734 C.ar      23 UNK        -0.0193 
     14 C14        -0.1267  -18.0306  -47.7298 C.ar      23 UNK        -0.1150 
     15 C15        -2.0008  -17.6198  -46.0797 C.3       23 UNK        -0.0205 
     16 S16        -2.5243  -19.1074  -45.1664 S.3       23 UNK        -0.2404 
     17 C17        -0.9356  -19.9099  -44.7472 C.3       23 UNK        -0.0398 
     18 CA         -0.4229  -20.9054  -45.8170 C.3       11 UNK         0.1400 
     19 N           1.0406  -21.0328  -45.7628 N.am      11 UNK        -0.5000 
     20 C           1.8365  -21.5338  -46.7191 C.2       10 UNK         0.5000 
     21 O           1.4036  -21.9571  -47.7916 O.2       10 UNK        -0.5000 
     22 CA          3.3505  -21.6190  -46.4152 C.3       10 UNK         0.1400 
     23 CB          4.2009  -21.0772  -47.5762 C.3       10 UNK        -0.1800 
     24 N           3.7485  -20.9279  -45.1854 N.am      10 UNK        -0.5000 
     25 C           3.6013  -21.3710  -43.9313 C.2       9 UNK         0.5000 
     26 O           3.1106  -22.4659  -43.6575 O.2       9 UNK        -0.5000 
     27 CA          4.0100  -20.4130  -42.7912 C.3       9 UNK         0.1400 
     28 CB          5.5027  -20.5571  -42.4423 C.3       9 UNK        -0.1800 
     29 N           3.6387  -19.0082  -43.0213 N.am      9 UNK        -0.5000 
     30 C           4.1127  -18.1440  -43.9318 C.2       8 UNK         0.5000 
     31 O           4.9969  -18.4129  -44.7451 O.2       8 UNK        -0.5000 
     32 CA          3.4355  -16.7653  -43.9861 C.3       8 UNK         0.1400 
     33 CB          2.1109  -16.8749  -44.7521 C.3       8 UNK        -0.1800 
     34 N           3.1889  -16.1970  -42.6639 N.am      8 UNK        -0.5000 
     35 C           4.1475  -15.7491  -41.8413 C.2       7 UNK         0.5000 
     36 O           5.3451  -15.7257  -42.1267 O.2       7 UNK        -0.5000 
     37 CA          3.6872  -15.2604  -40.4577 C.3       7 UNK         0.1400 
     38 CB          3.2017  -13.8032  -40.5229 C.3       7 UNK        -0.1800 
     39 N           2.6288  -16.1118  -39.9140 N.am      7 UNK        -0.5000 
     40 C           2.8354  -17.3350  -39.4042 C.2       6 UNK         0.5000 
     41 O           3.9496  -17.8408  -39.2680 O.2       6 UNK        -0.5000 
     42 CA          1.5884  -18.1362  -38.9860 C.3       6 UNK         0.1400 
     43 CB          1.2671  -17.8954  -37.5032 C.3       6 UNK        -0.1800 
     44 N           0.4063  -17.8187  -39.7884 N.am      6 UNK        -0.5000 
     45 C           0.2448  -18.1539  -41.0757 C.2       5 UNK         0.5000 
     46 O           1.0758  -18.7782  -41.7356 O.2       5 UNK        -0.5000 
     47 CA         -1.0484  -17.6618  -41.7486 C.3       5 UNK         0.1400 
     48 CB         -2.2098  -18.6228  -41.4532 C.3       5 UNK        -0.1800 
     49 N          -1.4293  -16.3070  -41.3444 N.am      5 UNK        -0.5000 
     50 C          -0.6949  -15.2103  -41.5658 C.2       4 UNK         0.5000 
     51 O           0.4134  -15.2208  -42.1092 O.2       4 UNK        -0.5000 
     52 CA         -1.2763  -13.8915  -41.0466 C.3       4 UNK         0.1400 
     53 CB         -0.8073  -13.6196  -39.6079 C.3       4 UNK        -0.1800 
     54 N          -0.8337  -12.8085  -41.9154 N.am      4 UNK        -0.5000 
     55 C          -1.5861  -11.7730  -42.3047 C.2       3 UNK         0.5000 
     56 O          -2.7383  -11.5841  -41.9113 O.2       3 UNK        -0.5000 
     57 CA         -0.9594  -10.7672  -43.2936 C.3       3 UNK         0.1400 
     58 CB         -0.6181   -9.4525  -42.5739 C.3       3 UNK        -0.1800 
     59 N           0.2449  -11.2525  -43.9742 N.am      3 UNK        -0.5000 
     60 C           0.2713  -12.2164  -44.9026 C.2       2 UNK         0.5000 
     61 O          -0.7263  -12.8377  -45.2802 O.2       2 UNK        -0.5000 
     62 CA          1.6519  -12.5429  -45.4901 C.3       2 UNK         0.1400 
     63 CB          2.5957  -13.1203  -44.4181 C.3       2 UNK        -0.1800 
     64 N           1.4831  -13.4930  -46.5846 N.am      2 UNK        -0.5000 
     65 C           2.2997  -13.6264  -47.6360 C.2       1 UNK         0.5000 
     66 O           3.3535  -12.9999  -47.7571 O.2       1 UNK        -0.5000 
     67 C          -1.1814  -22.2559  -45.8223 C.2       11 UNK         0.5000 
     68 O          -2.4033  -22.2705  -45.9639 O.2       11 UNK        -0.5000 
     69 N          -0.4518  -23.3813  -45.7991 N.am      12 UNK        -0.5000 
     70 CA         -0.9373  -24.7024  -46.2093 C.3       12 UNK         0.1400 
     71 CB          0.1982  -25.7241  -46.0565 C.3       12 UNK        -0.1800 
     72 C          -1.4934  -24.7223  -47.6520 C.2       12 UNK         0.5000 
     73 O          -2.3625  -25.5390  -47.9488 O.2       12 UNK        -0.5000 
     74 N          -1.0450  -23.7818  -48.4992 N.am      13 UNK        -0.5000 
     75 CA         -1.6073  -23.4844  -49.8176 C.3       13 UNK         0.1400 
     76 CB         -0.7772  -22.3670  -50.4652 C.3       13 UNK        -0.1800 
     77 C          -3.0997  -23.0891  -49.7897 C.2       13 UNK         0.5000 
     78 O          -3.8211  -23.4032  -50.7368 O.2       13 UNK        -0.5000 
     79 N          -3.5551  -22.4354  -48.7097 N.am      14 UNK        -0.5000 
     80 CA         -4.9641  -22.0922  -48.5095 C.3       14 UNK         0.1400 
     81 CB         -5.0963  -21.0070  -47.4314 C.3       14 UNK        -0.1800 
     82 C          -5.8008  -23.3294  -48.1423 C.2       14 UNK         0.5000 
     83 O          -6.9115  -23.4808  -48.6500 O.2       14 UNK        -0.5000 
     84 N          -5.2363  -24.2131  -47.3058 N.am      15 UNK        -0.5000 
     85 CA         -5.8371  -25.4916  -46.9145 C.3       15 UNK         0.1400 
     86 CB         -5.0623  -26.0811  -45.7259 C.3       15 UNK        -0.1800 
     87 C          -5.9004  -26.4924  -48.0844 C.2       15 UNK         0.5000 
     88 O          -6.8905  -27.2113  -48.2213 O.2       15 UNK        -0.5000 
     89 N          -4.8616  -26.4845  -48.9307 N.am      16 UNK        -0.5000 
     90 CA         -4.7751  -27.2400  -50.1824 C.3       16 UNK         0.1400 
     91 CB         -3.3087  -27.2656  -50.6409 C.3       16 UNK        -0.1800 
     92 C          -5.6761  -26.6826  -51.3051 C.2       16 UNK         0.5000 
     93 O          -5.8596  -27.3640  -52.3144 O.2       16 UNK        -0.5000 
     94 N          -6.2131  -25.4687  -51.1103 N.am      17 UNK        -0.5000 
     95 CA         -7.0843  -24.7133  -52.0109 C.3       17 UNK         0.1400 
     96 CB         -8.4373  -25.4305  -52.2023 C.3       17 UNK        -0.1800 
     97 C          -6.3842  -24.3587  -53.3366 C.2       17 UNK         0.5000 
     98 O          -6.8707  -24.7118  -54.4127 O.2       17 UNK        -0.5000 
     99 N          -5.2457  -23.6570  -53.2249 N.am      18 UNK        -0.5000 
    100 CA        -4.4358  -23.1566  -54.3416 C.3       18 UNK         0.1400 
    101 CB        -3.1964  -22.4406  -53.7808 C.3       18 UNK        -0.1800 
    102 C         -5.1965  -22.2279  -55.3098 C.2       18 UNK         0.5000 
    103 O         -4.8991  -22.2341  -56.5051 O.2       18 UNK        -0.5000 
    104 N         -6.1699  -21.4683  -54.7815 N.am      19 UNK        -0.5000 
    105 CA        -7.1028  -20.5954  -55.5017 C.3       19 UNK         0.1400 
    106 CB        -8.1396  -21.4480  -56.2668 C.3       19 UNK        -0.1800 
    107 C         -6.3642  -19.5679  -56.3828 C.2       19 UNK         0.5000 
    108 O         -5.7348  -18.6601  -55.8413 O.2       19 UNK        -0.5000 
    109 N         -6.4063  -19.7467  -57.7096 N.am      20 UNK        -0.5000 
    110 CA        -5.7145  -18.9166  -58.6986 C.3       20 UNK         0.1400 
    111 CB        -6.1523  -19.3536  -60.1050 C.3       20 UNK        -0.1800 
    112 C         -4.1754  -18.9384  -58.5818 C.2       20 UNK         0.5000 
    113 O         -3.5298  -17.9890  -59.0272 O.2       20 UNK        -0.5000 
    114 N         -3.6128  -19.9990  -57.9835 N.am      21 UNK        -0.5000 
    115 CA        -2.1796  -20.1279  -57.7139 C.3       21 UNK         0.1400 
    116 CB        -1.7981  -21.6172  -57.6965 C.3       21 UNK        -0.1800 
    117 C         -1.7394  -19.4224  -56.4133 C.2       21 UNK         0.5000 
    118 O         -0.5352  -19.3174  -56.1768 O.2       21 UNK        -0.5000 
    119 N         -2.6916  -18.9523  -55.5930 N.am      22 UNK        -0.5000 
    120 CA        -2.4272  -18.1197  -54.4110 C.3       22 UNK         0.1400 
    121 C         -1.9366  -16.7001  -54.8197 C.2       22 UNK         0.5000 
    122 N         -0.8482  -16.2144  -54.2379 N.am      22 UNK        -0.7600 
    123 O         -2.5522  -16.0262  -55.6426 O.2       22 UNK        -0.5000 
    124 C124       -3.6709  -18.0604  -53.4861 C.3       23 UNK        -0.0398 
    125 S125       -3.2962  -17.3890  -51.8319 S.3       23 UNK        -0.2404 
    126 C126       -2.9184  -18.9002  -50.8973 C.3       23 UNK        -0.0205 
    127 H127       -2.0383  -15.5286  -49.6599 H         1 UNK         0.0600 
    128 H128       -2.2107  -14.9482  -47.9962 H         1 UNK         0.0600 
    129 H129       -2.6709  -13.9109  -49.3499 H         1 UNK         0.0600 
    130 H130        0.2223  -15.9077  -48.5223 H         1 UNK         0.3000 
    131 H131        2.0945  -14.1238  -49.6957 H         1 UNK         0.0600 
    132 H132        2.6098  -16.4154  -47.7385 H         1 UNK         0.0800 
    133 H133        3.8262  -15.6146  -48.6895 H         1 UNK         0.0800 
    134 H134        2.0194  -19.3741  -49.8934 H         1 UNK         0.0800 
    135 H135        2.3733  -18.6896  -48.3320 H         1 UNK         0.0800 
    136 H136       -0.2060  -18.9341  -50.9965 H         1 UNK         0.1150 
    137 H137       -3.4645  -18.1771  -48.3151 H         1 UNK         0.1150 
    138 H138        0.5700  -17.8369  -46.9324 H         1 UNK         0.1150 
    139 H139       -1.2417  -17.0809  -45.5102 H         1 UNK         0.0800 
    140 H140       -2.8526  -16.9434  -46.1636 H         1 UNK         0.0800 
    141 H141       -1.0337  -20.4073  -43.7817 H         1 UNK         0.0800 
    142 H142       -0.2023  -19.1189  -44.5953 H         1 UNK         0.0800 
    143 H143       -0.6417  -20.4829  -46.7969 H         1 UNK         0.0600 
    144 H144        1.4803  -20.7509  -44.8995 H         1 UNK         0.3000 
    145 H145        3.5800  -22.6805  -46.3036 H         1 UNK         0.0600 
    146 H146        5.2550  -21.3106  -47.4255 H         1 UNK         0.0600 
    147 H147        3.9088  -21.5181  -48.5302 H         1 UNK         0.0600 
    148 H148        4.1163  -19.9953  -47.6691 H         1 UNK         0.0600 
    149 H149        4.1886  -20.0182  -45.2968 H         1 UNK         0.3000 
    150 H150        3.4405  -20.7187  -41.9119 H         1 UNK         0.0600 
    151 H151        5.7353  -21.5824  -42.1522 H         1 UNK         0.0600 
    152 H152        5.7739  -19.9126  -41.6058 H         1 UNK         0.0600 
    153 H153        6.1477  -20.3046  -43.2841 H         1 UNK         0.0600 
    154 H154        2.8455  -18.7004  -42.4641 H         1 UNK         0.3000 
    155 H155        4.0950  -16.0911  -44.5368 H         1 UNK         0.0600 
    156 H156        1.7045  -15.8973  -45.0047 H         1 UNK         0.0600 
    157 H157        1.3560  -17.4099  -44.1773 H         1 UNK         0.0600 
    158 H158        2.2656  -17.4178  -45.6823 H         1 UNK         0.0600 
    159 H159        2.2209  -16.1179  -42.3714 H         1 UNK         0.3000 
    160 H160        4.5464  -15.2986  -39.7844 H         1 UNK         0.0600 
    161 H161        2.3471  -13.6855  -41.1885 H         1 UNK         0.0600 
    162 H162        3.9920  -13.1478  -40.8911 H         1 UNK         0.0600 
    163 H163        2.9122  -13.4398  -39.5369 H         1 UNK         0.0600 
    164 H164        1.6804  -15.7864  -40.0251 H         1 UNK         0.3000 
    165 H165        1.8164  -19.1960  -39.1194 H         1 UNK         0.0600 
    166 H166        1.0113  -16.8528  -37.3101 H         1 UNK         0.0600 
    167 H167        0.4311  -18.5134  -37.1752 H         1 UNK         0.0600 
    168 H168        2.1215  -18.1460  -36.8729 H         1 UNK         0.0600 
    169 H169       -0.3304  -17.3037  -39.3294 H         1 UNK         0.3000 
    170 H170       -0.8757  -17.6470  -42.8256 H         1 UNK         0.0600 
    171 H171       -1.9500  -19.6491  -41.7136 H         1 UNK         0.0600 
    172 H172       -2.4824  -18.6147  -40.3972 H         1 UNK         0.0600 
    173 H173       -3.0956  -18.3576  -42.0308 H         1 UNK         0.0600 
    174 H174       -2.3225  -16.2128  -40.8826 H         1 UNK         0.3000 
    175 H175       -2.3657  -13.9677  -41.0642 H         1 UNK         0.0600 
    176 H176       -1.2336  -12.6919  -39.2257 H         1 UNK         0.0600 
    177 H177       -1.1167  -14.4200  -38.9348 H         1 UNK         0.0600 
    178 H178        0.2782  -13.5371  -39.5460 H         1 UNK         0.0600 
    179 H179        0.0784  -12.9406  -42.3303 H         1 UNK         0.3000 
    180 H180       -1.7130  -10.5529  -44.0544 H         1 UNK         0.0600 
    181 H181        0.1441   -9.6001  -41.8077 H         1 UNK         0.0600 
    182 H182       -1.4981   -9.0332  -42.0843 H         1 UNK         0.0600 
    183 H183       -0.2512   -8.7019  -43.2743 H         1 UNK         0.0600 
    184 H184        1.1102  -10.7989  -43.7184 H         1 UNK         0.3000 
    185 H185        2.0739  -11.6167  -45.8859 H         1 UNK         0.0600 
    186 H186        3.5192  -13.5005  -44.8546 H         1 UNK         0.0600 
    187 H187        2.8756  -12.3590  -43.6896 H         1 UNK         0.0600 
    188 H188        2.1233  -13.9324  -43.8679 H         1 UNK         0.0600 
    189 H189        0.5914  -13.9724  -46.5838 H         1 UNK         0.3000 
    190 H190        0.5458  -23.2905  -45.6779 H         1 UNK         0.3000 
    191 H191       -1.7511  -24.9834  -45.5380 H         1 UNK         0.0600 
    192 H192        0.5506  -25.7720  -45.0259 H         1 UNK         0.0600 
    193 H193       -0.1381  -26.7249  -46.3310 H         1 UNK         0.0600 
    194 H194        1.0495  -25.4772  -46.6924 H         1 UNK         0.0600 
    195 H195       -0.2962  -23.1717  -48.1896 H         1 UNK         0.3000 
    196 H196       -1.5143  -24.3820  -50.4310 H         1 UNK         0.0600 
    197 H197       -1.1716  -22.0929  -51.4441 H         1 UNK         0.0600 
    198 H198        0.2586  -22.6764  -50.6060 H         1 UNK         0.0600 
    199 H199       -0.7732  -21.4690  -49.8473 H         1 UNK         0.0600 
    200 H200       -2.9314  -22.2470  -47.9332 H         1 UNK         0.3000 
    201 H201       -5.3549  -21.6834  -49.4440 H         1 UNK         0.0600 
    202 H202       -4.4732  -20.1445  -47.6603 H         1 UNK         0.0600 
    203 H203       -4.8088  -21.3723  -46.4455 H         1 UNK         0.0600 
    204 H204       -6.1261  -20.6558  -47.3595 H         1 UNK         0.0600 
    205 H205       -4.3116  -24.0154  -46.9509 H         1 UNK         0.3000 
    206 H206       -6.8609  -25.2969  -46.5881 H         1 UNK         0.0600 
    207 H207       -5.0513  -25.3923  -44.8811 H         1 UNK         0.0600 
    208 H208       -5.5239  -27.0081  -45.3834 H         1 UNK         0.0600 
    209 H209       -4.0288  -26.3088  -45.9868 H         1 UNK         0.0600 
    210 H210       -4.0452  -25.9304  -48.6836 H         1 UNK         0.3000 
    211 H211       -5.0917  -28.2663  -49.9858 H         1 UNK         0.0600 
    212 H212       -3.1880  -27.8757  -51.5369 H         1 UNK         0.0600 
    213 H213       -2.6603  -27.6858  -49.8719 H         1 UNK         0.0600 
    214 H214       -2.9474  -26.2642  -50.8750 H         1 UNK         0.0600 
    215 H215       -5.9748  -24.9948  -50.2500 H         1 UNK         0.3000 
    216 H216       -7.2894  -23.7658  -51.5105 H         1 UNK         0.0600 
    217 H217       -8.9149  -25.6295  -51.2428 H         1 UNK         0.0600 
    218 H218       -8.3274  -26.3808  -52.7254 H         1 UNK         0.0600 
    219 H219       -9.1236  -24.8155  -52.7854 H         1 UNK         0.0600 
    220 H220       -4.8709  -23.4856  -52.2941 H         1 UNK         0.3000 
    221 H221       -4.1012  -24.0210  -54.9184 H         1 UNK         0.0600 
    222 H222       -3.4714  -21.6269  -53.1087 H         1 UNK         0.0600 
    223 H223       -2.5642  -23.1342  -53.2267 H         1 UNK         0.0600 
    224 H224       -2.5852  -22.0141  -54.5758 H         1 UNK         0.0600 
    225 H225       -6.3050  -21.5192  -53.7825 H         1 UNK         0.3000 
    226 H226       -7.6408  -20.0195  -54.7473 H         1 UNK         0.0600 
    227 H227       -8.7020  -22.0797  -55.5790 H         1 UNK         0.0600 
    228 H228       -8.8626  -20.8182  -56.7868 H         1 UNK         0.0600 
    229 H229       -7.6748  -22.1046  -57.0032 H         1 UNK         0.0600 
    230 H230       -6.9132  -20.5435  -58.0667 H         1 UNK         0.3000 
    231 H231       -6.0355  -17.8842  -58.5459 H         1 UNK         0.0600 
    232 H232       -5.6813  -18.7362  -60.8712 H         1 UNK         0.0600 
    233 H233       -7.2310  -19.2578  -60.2310 H         1 UNK         0.0600 
    234 H234       -5.8801  -20.3906  -60.3059 H         1 UNK         0.0600 
    235 H235       -4.2073  -20.7427  -57.6281 H         1 UNK         0.3000 
    236 H236       -1.6241  -19.6609  -58.5299 H         1 UNK         0.0600 
    237 H237       -0.7231  -21.7439  -57.5622 H         1 UNK         0.0600 
    238 H238       -2.2921  -22.1563  -56.8901 H         1 UNK         0.0600 
    239 H239       -2.0658  -22.1025  -58.6351 H         1 UNK         0.0600 
    240 H240       -3.6612  -19.0143  -55.8803 H         1 UNK         0.3000 
    241 H241       -1.6280  -18.6118  -53.8526 H         1 UNK         0.0600 
    242 H242       -0.3367  -16.7448  -53.5503 H         1 UNK         0.3800 
    243 H243       -0.5292  -15.2919  -54.4889 H         1 UNK         0.3800 
    244 H244       -4.4510  -17.4417  -53.9320 H         1 UNK         0.0800 
    245 H245       -4.1075  -19.0534  -53.3697 H         1 UNK         0.0800 
    246 H246       -3.8403  -19.3266  -50.4988 H         1 UNK         0.0800 
    247 H247       -2.4886  -19.6546  -51.5582 H         1 UNK         0.0800 
@<TRIPOS>BOND
     1    1    2 1    
     2    1  127 1    
     3    1  128 1    
     4    1  129 1    
     5    2    3 2    
     6    2    4 am   BACKBONE|DICT|INTERRES
     7    4    5 1    
     8    4  130 1    
     9    5    6 1    
    10    5   65 1    
    11    5  131 1    
    12    6    7 1    
    13    6  132 1    
    14    6  133 1    
    15    7    8 1    
    16    8    9 1    
    17    8  134 1    
    18    8  135 1    
    19    9   10 ar   
    20    9   14 ar   
    21   10   11 ar   
    22   10  136 1    
    23   11   12 ar   
    24   11  126 1    
    25   12   13 ar   
    26   12  137 1    
    27   13   14 ar   
    28   13   15 1    
    29   14  138 1    
    30   15   16 1    
    31   15  139 1    
    32   15  140 1    
    33   16   17 1    
    34   17   18 1    
    35   17  141 1    
    36   17  142 1    
    37   18   19 1    
    38   18   67 1    
    39   18  143 1    
    40   19   20 am   BACKBONE|DICT|INTERRES
    41   19  144 1    
    42   20   21 2    
    43   20   22 1    
    44   22   23 1    
    45   22   24 1    
    46   22  145 1    
    47   23  146 1    
    48   23  147 1    
    49   23  148 1    
    50   24   25 am   BACKBONE|DICT|INTERRES
    51   24  149 1    
    52   25   26 2    
    53   25   27 1    
    54   27   28 1    
    55   27   29 1    
    56   27  150 1    
    57   28  151 1    
    58   28  152 1    
    59   28  153 1    
    60   29   30 am   BACKBONE|DICT|INTERRES
    61   29  154 1    
    62   30   31 2    
    63   30   32 1    
    64   32   33 1    
    65   32   34 1    
    66   32  155 1    
    67   33  156 1    
    68   33  157 1    
    69   33  158 1    
    70   34   35 am   BACKBONE|DICT|INTERRES
    71   34  159 1    
    72   35   36 2    
    73   35   37 1    
    74   37   38 1    
    75   37   39 1    
    76   37  160 1    
    77   38  161 1    
    78   38  162 1    
    79   38  163 1    
    80   39   40 am   BACKBONE|DICT|INTERRES
    81   39  164 1    
    82   40   41 2    
    83   40   42 1    
    84   42   43 1    
    85   42   44 1    
    86   42  165 1    
    87   43  166 1    
    88   43  167 1    
    89   43  168 1    
    90   44   45 am   BACKBONE|DICT|INTERRES
    91   44  169 1    
    92   45   46 2    
    93   45   47 1    
    94   47   48 1    
    95   47   49 1    
    96   47  170 1    
    97   48  171 1    
    98   48  172 1    
    99   48  173 1    
   100   49   50 am   BACKBONE|DICT|INTERRES
   101   49  174 1    
   102   50   51 2    
   103   50   52 1    
   104   52   53 1    
   105   52   54 1    
   106   52  175 1    
   107   53  176 1    
   108   53  177 1    
   109   53  178 1    
   110   54   55 am   BACKBONE|DICT|INTERRES
   111   54  179 1    
   112   55   56 2    
   113   55   57 1    
   114   57   58 1    
   115   57   59 1    
   116   57  180 1    
   117   58  181 1    
   118   58  182 1    
   119   58  183 1    
   120   59   60 am   BACKBONE|DICT|INTERRES
   121   59  184 1    
   122   60   61 2    
   123   60   62 1    
   124   62   63 1    
   125   62   64 1    
   126   62  185 1    
   127   63  186 1    
   128   63  187 1    
   129   63  188 1    
   130   64   65 am   BACKBONE|DICT|INTERRES
   131   64  189 1    
   132   65   66 2    
   133   67   68 2    
   134   67   69 am   BACKBONE|DICT|INTERRES
   135   69   70 1    
   136   69  190 1    
   137   70   71 1    
   138   70   72 1    
   139   70  191 1    
   140   71  192 1    
   141   71  193 1    
   142   71  194 1    
   143   72   73 2    
   144   72   74 am   BACKBONE|DICT|INTERRES
   145   74   75 1    
   146   74  195 1    
   147   75   76 1    
   148   75   77 1    
   149   75  196 1    
   150   76  197 1    
   151   76  198 1    
   152   76  199 1    
   153   77   78 2    
   154   77   79 am   BACKBONE|DICT|INTERRES
   155   79   80 1    
   156   79  200 1    
   157   80   81 1    
   158   80   82 1    
   159   80  201 1    
   160   81  202 1    
   161   81  203 1    
   162   81  204 1    
   163   82   83 2    
   164   82   84 am   BACKBONE|DICT|INTERRES
   165   84   85 1    
   166   84  205 1    
   167   85   86 1    
   168   85   87 1    
   169   85  206 1    
   170   86  207 1    
   171   86  208 1    
   172   86  209 1    
   173   87   88 2    
   174   87   89 am   BACKBONE|DICT|INTERRES
   175   89   90 1    
   176   89  210 1    
   177   90   91 1    
   178   90   92 1    
   179   90  211 1    
   180   91  212 1    
   181   91  213 1    
   182   91  214 1    
   183   92   93 2    
   184   92   94 am   BACKBONE|DICT|INTERRES
   185   94   95 1    
   186   94  215 1    
   187   95   96 1    
   188   95   97 1    
   189   95  216 1    
   190   96  217 1    
   191   96  218 1    
   192   96  219 1    
   193   97   98 2    
   194   97   99 am   BACKBONE|DICT|INTERRES
   195   99  100 1    
   196   99  220 1    
   197  100  101 1    
   198  100  102 1    
   199  100  221 1    
   200  101  222 1    
   201  101  223 1    
   202  101  224 1    
   203  102  103 2    
   204  102  104 am   BACKBONE|DICT|INTERRES
   205  104  105 1    
   206  104  225 1    
   207  105  106 1    
   208  105  107 1    
   209  105  226 1    
   210  106  227 1    
   211  106  228 1    
   212  106  229 1    
   213  107  108 2    
   214  107  109 am   BACKBONE|DICT|INTERRES
   215  109  110 1    
   216  109  230 1    
   217  110  111 1    
   218  110  112 1    
   219  110  231 1    
   220  111  232 1    
   221  111  233 1    
   222  111  234 1    
   223  112  113 2    
   224  112  114 am   BACKBONE|DICT|INTERRES
   225  114  115 1    
   226  114  235 1    
   227  115  116 1    
   228  115  117 1    
   229  115  236 1    
   230  116  237 1    
   231  116  238 1    
   232  116  239 1    
   233  117  118 2    
   234  117  119 am   BACKBONE|DICT|INTERRES
   235  119  120 1    
   236  119  240 1    
   237  120  121 1    
   238  120  124 1    
   239  120  241 1    
   240  121  122 am   BACKBONE|DICT|INTERRES
   241  121  123 2    
   242  122  242 1    
   243  122  243 1    
   244  124  125 1    
   245  124  244 1    
   246  124  245 1    
   247  125  126 1    
   248  126  246 1    
   249  126  247 1    
@<TRIPOS>SUBSTRUCTURE
     1 UNK         1 GROUP             0       ****    0 ROOT    
