@<TRIPOS>MOLECULE
3R540
247   249    1
SMALL
USER_CHARGES


@<TRIPOS>ATOM
      1 CA         -1.2255  -13.8275  -49.0917 C.3       0 UNK        -0.1800 
      2 C           0.0778  -13.0997  -49.3855 C.2       0 UNK         0.5000 
      3 O           0.2076  -11.9188  -49.0654 O.2       0 UNK        -0.5000 
      4 N           1.0431  -13.8040  -49.9891 N.am      1 UNK        -0.5000 
      5 CA          2.3835  -13.2915  -50.3033 C.3       1 UNK         0.1400 
      6 C6          2.9727  -13.9757  -51.5636 C.3       23 UNK        -0.0398 
      7 S7          3.1801  -15.7873  -51.4096 S.3       23 UNK        -0.2404 
      8 C8          1.7431  -16.4376  -52.3218 C.3       23 UNK        -0.0205 
      9 C9          0.9659  -17.4357  -51.4777 C.ar      23 UNK        -0.0193 
     10 C10        -0.3054  -17.1179  -50.9890 C.ar      23 UNK        -0.1150 
     11 C11        -1.0188  -18.0414  -50.2187 C.ar      23 UNK        -0.0193 
     12 C12        -0.4548  -19.2891  -49.9442 C.ar      23 UNK        -0.1150 
     13 C13         0.8111  -19.6220  -50.4332 C.ar      23 UNK        -0.0193 
     14 C14         1.5160  -18.6907  -51.1992 C.ar      23 UNK        -0.1150 
     15 C15         1.3975  -21.0017  -50.1761 C.3       23 UNK        -0.0205 
     16 S16         2.5577  -21.0374  -48.7675 S.3       23 UNK        -0.2404 
     17 C17         1.4988  -20.6518  -47.3293 C.3       23 UNK        -0.0398 
     18 CA          0.8805  -21.9027  -46.6556 C.3       11 UNK         0.1400 
     19 N           0.4879  -21.6452  -45.2682 N.am      11 UNK        -0.5000 
     20 C           0.0322  -22.5712  -44.4115 C.2       10 UNK         0.5000 
     21 O          -0.0334  -23.7732  -44.6710 O.2       10 UNK        -0.5000 
     22 CA         -0.4959  -22.0601  -43.0586 C.3       10 UNK         0.1400 
     23 CB          0.6575  -21.8077  -42.0767 C.3       10 UNK        -0.1800 
     24 N          -1.3066  -20.8484  -43.1984 N.am      10 UNK        -0.5000 
     25 C          -2.4683  -20.7916  -43.8664 C.2       9 UNK         0.5000 
     26 O          -3.0080  -21.7722  -44.3778 O.2       9 UNK        -0.5000 
     27 CA         -3.1138  -19.4045  -44.0355 C.3       9 UNK         0.1400 
     28 CB         -3.8950  -19.0071  -42.7746 C.3       9 UNK        -0.1800 
     29 N          -2.1401  -18.3631  -44.3660 N.am      9 UNK        -0.5000 
     30 C          -1.4073  -18.3356  -45.4882 C.2       8 UNK         0.5000 
     31 O          -1.5076  -19.1667  -46.3888 O.2       8 UNK        -0.5000 
     32 CA         -0.3454  -17.2274  -45.6026 C.3       8 UNK         0.1400 
     33 CB         -0.9833  -15.9010  -46.0402 C.3       8 UNK        -0.1800 
     34 N           0.3997  -17.0414  -44.3562 N.am      8 UNK        -0.5000 
     35 C           1.1841  -17.9768  -43.8004 C.2       7 UNK         0.5000 
     36 O           1.4117  -19.0703  -44.3162 O.2       7 UNK        -0.5000 
     37 CA          1.7608  -17.6665  -42.4085 C.3       7 UNK         0.1400 
     38 CB          3.0397  -16.8209  -42.5023 C.3       7 UNK        -0.1800 
     39 N           0.7825  -16.9955  -41.5538 N.am      7 UNK        -0.5000 
     40 C          -0.3082  -17.5898  -41.0490 C.2       6 UNK         0.5000 
     41 O          -0.5776  -18.7789  -41.2165 O.2       6 UNK        -0.5000 
     42 CA         -1.2811  -16.6927  -40.2623 C.3       6 UNK         0.1400 
     43 CB         -0.8278  -16.5530  -38.8015 C.3       6 UNK        -0.1800 
     44 N          -1.4187  -15.3622  -40.8569 N.am      6 UNK        -0.5000 
     45 C          -1.9729  -15.1211  -42.0538 C.2       5 UNK         0.5000 
     46 O          -2.4753  -15.9930  -42.7605 O.2       5 UNK        -0.5000 
     47 CA         -1.9039  -13.6719  -42.5700 C.3       5 UNK         0.1400 
     48 CB         -3.1163  -12.8659  -42.0813 C.3       5 UNK        -0.1800 
     49 N          -0.6704  -12.9848  -42.1772 N.am      5 UNK        -0.5000 
     50 C           0.5569  -13.3477  -42.5707 C.2       4 UNK         0.5000 
     51 O           0.7846  -14.3018  -43.3200 O.2       4 UNK        -0.5000 
     52 CA          1.7226  -12.5510  -41.9753 C.3       4 UNK         0.1400 
     53 CB          2.0870  -13.0846  -40.5786 C.3       4 UNK        -0.1800 
     54 N           2.8783  -12.6652  -42.8560 N.am      4 UNK        -0.5000 
     55 C           3.8261  -11.7343  -43.0114 C.2       3 UNK         0.5000 
     56 O           3.8410  -10.6719  -42.3875 O.2       3 UNK        -0.5000 
     57 CA          4.9591  -12.0255  -44.0184 C.3       3 UNK         0.1400 
     58 CB          6.2671  -12.3372  -43.2734 C.3       3 UNK        -0.1800 
     59 N           4.6863  -13.1198  -44.9555 N.am      3 UNK        -0.5000 
     60 C           3.7786  -13.0874  -45.9392 C.2       2 UNK         0.5000 
     61 O           3.0121  -12.1405  -46.1311 O.2       2 UNK        -0.5000 
     62 CA          3.7154  -14.3462  -46.8276 C.3       2 UNK         0.1400 
     63 CB          3.0792  -15.5174  -46.0639 C.3       2 UNK        -0.1800 
     64 N           2.9578  -14.1330  -48.0584 N.am      2 UNK        -0.5000 
     65 C           3.3479  -13.3794  -49.0963 C.2       1 UNK         0.5000 
     66 O           4.4258  -12.7833  -49.1384 O.2       1 UNK        -0.5000 
     67 C          -0.2990  -22.4641  -47.4734 C.2       11 UNK         0.5000 
     68 O          -0.1400  -23.4892  -48.1334 O.2       11 UNK        -0.5000 
     69 N          -1.4664  -21.8094  -47.3902 N.am      12 UNK        -0.5000 
     70 CA         -2.6975  -22.2115  -48.0711 C.3       12 UNK         0.1400 
     71 CB         -3.7913  -21.1599  -47.8388 C.3       12 UNK        -0.1800 
     72 C          -3.1859  -23.6051  -47.6449 C.2       12 UNK         0.5000 
     73 O          -3.5809  -24.3906  -48.5053 O.2       12 UNK        -0.5000 
     74 N          -3.1102  -23.9016  -46.3404 N.am      13 UNK        -0.5000 
     75 CA         -3.4190  -25.2105  -45.7673 C.3       13 UNK         0.1400 
     76 CB         -3.4100  -25.1205  -44.2339 C.3       13 UNK        -0.1800 
     77 C          -2.4632  -26.3110  -46.2623 C.2       13 UNK         0.5000 
     78 O          -2.9292  -27.3799  -46.6575 O.2       13 UNK        -0.5000 
     79 N          -1.1542  -26.0189  -46.2745 N.am      14 UNK        -0.5000 
     80 CA         -0.1072  -26.9125  -46.7777 C.3       14 UNK         0.1400 
     81 CB          1.2722  -26.3385  -46.4201 C.3       14 UNK        -0.1800 
     82 C          -0.2149  -27.1734  -48.2928 C.2       14 UNK         0.5000 
     83 O          -0.0102  -28.3051  -48.7329 O.2       14 UNK        -0.5000 
     84 N          -0.5636  -26.1298  -49.0560 N.am      15 UNK        -0.5000 
     85 CA         -0.8002  -26.1777  -50.4993 C.3       15 UNK         0.1400 
     86 CB         -0.7229  -24.7467  -51.0602 C.3       15 UNK        -0.1800 
     87 C          -2.1461  -26.8220  -50.8860 C.2       15 UNK         0.5000 
     88 O          -2.3627  -27.0714  -52.0706 O.2       15 UNK        -0.5000 
     89 N          -3.0412  -27.0369  -49.9099 N.am      16 UNK        -0.5000 
     90 CA         -4.4259  -27.4986  -50.0659 C.3       16 UNK         0.1400 
     91 CB         -4.4671  -28.9631  -50.5489 C.3       16 UNK        -0.1800 
     92 C          -5.2622  -26.5406  -50.9438 C.2       16 UNK         0.5000 
     93 O          -6.0230  -26.9825  -51.8061 O.2       16 UNK        -0.5000 
     94 N          -5.0659  -25.2344  -50.7121 N.am      17 UNK        -0.5000 
     95 CA         -5.6704  -24.0807  -51.3856 C.3       17 UNK         0.1400 
     96 CB         -7.2015  -24.0715  -51.2020 C.3       17 UNK        -0.1800 
     97 C          -5.2580  -23.8952  -52.8625 C.2       17 UNK         0.5000 
     98 O          -5.8243  -23.0313  -53.5342 O.2       17 UNK        -0.5000 
     99 N          -4.2573  -24.6506  -53.3446 N.am      18 UNK        -0.5000 
    100 CA        -3.7705  -24.6184  -54.7313 C.3       18 UNK         0.1400 
    101 CB        -2.7850  -25.7744  -54.9542 C.3       18 UNK        -0.1800 
    102 C         -3.1309  -23.2810  -55.1577 C.2       18 UNK         0.5000 
    103 O         -3.0257  -23.0187  -56.3564 O.2       18 UNK        -0.5000 
    104 N         -2.7376  -22.4523  -54.1796 N.am      19 UNK        -0.5000 
    105 CA        -2.2641  -21.0808  -54.3773 C.3       19 UNK         0.1400 
    106 CB        -1.6729  -20.5661  -53.0571 C.3       19 UNK        -0.1800 
    107 C         -3.3549  -20.1270  -54.9146 C.2       19 UNK         0.5000 
    108 O         -3.0142  -19.1408  -55.5682 O.2       19 UNK        -0.5000 
    109 N         -4.6332  -20.4548  -54.6597 N.am      20 UNK        -0.5000 
    110 CA        -5.8796  -19.8962  -55.2071 C.3       20 UNK         0.1400 
    111 CB        -5.9550  -20.1454  -56.7249 C.3       20 UNK        -0.1800 
    112 C         -6.1927  -18.4187  -54.8873 C.2       20 UNK         0.5000 
    113 O         -7.3597  -18.0875  -54.6770 O.2       20 UNK        -0.5000 
    114 N         -5.1732  -17.5549  -54.8652 N.am      21 UNK        -0.5000 
    115 CA        -5.2808  -16.1065  -54.6654 C.3       21 UNK         0.1400 
    116 CB        -3.9906  -15.4533  -55.1874 C.3       21 UNK        -0.1800 
    117 C         -5.5428  -15.6870  -53.2039 C.2       21 UNK         0.5000 
    118 O         -5.8136  -14.5115  -52.9537 O.2       21 UNK        -0.5000 
    119 N         -5.4169  -16.6370  -52.2719 N.am      22 UNK        -0.5000 
    120 CA        -5.5329  -16.4644  -50.8174 C.3       22 UNK         0.1400 
    121 C         -6.9146  -15.9202  -50.3581 C.2       22 UNK         0.5000 
    122 N         -6.9429  -15.0227  -49.3820 N.am      22 UNK        -0.7600 
    123 O         -7.9621  -16.3399  -50.8448 O.2       22 UNK        -0.5000 
    124 C124       -5.1991  -17.7797  -50.0649 C.3       23 UNK        -0.0398 
    125 S125       -3.6751  -18.5820  -50.6655 S.3       23 UNK        -0.2404 
    126 C126       -2.4082  -17.7084  -49.7015 C.3       23 UNK        -0.0205 
    127 H127       -1.9776  -13.5722  -49.8381 H         1 UNK         0.0600 
    128 H128       -1.6052  -13.5432  -48.1102 H         1 UNK         0.0600 
    129 H129       -1.0845  -14.9070  -49.0966 H         1 UNK         0.0600 
    130 H130        0.8884  -14.7730  -50.2275 H         1 UNK         0.3000 
    131 H131        2.2952  -12.2286  -50.5384 H         1 UNK         0.0600 
    132 H132        2.3510  -13.7477  -52.4298 H         1 UNK         0.0800 
    133 H133        3.9485  -13.5470  -51.7985 H         1 UNK         0.0800 
    134 H134        2.0935  -16.9282  -53.2310 H         1 UNK         0.0800 
    135 H135        1.0888  -15.6283  -52.6478 H         1 UNK         0.0800 
    136 H136       -0.7475  -16.1594  -51.2204 H         1 UNK         0.1150 
    137 H137       -1.0166  -20.0061  -49.3648 H         1 UNK         0.1150 
    138 H138        2.4948  -18.9429  -51.5825 H         1 UNK         0.1150 
    139 H139        0.6010  -21.7309  -50.0330 H         1 UNK         0.0800 
    140 H140        1.9333  -21.3320  -51.0671 H         1 UNK         0.0800 
    141 H141        0.7430  -19.9128  -47.5905 H         1 UNK         0.0800 
    142 H142        2.1517  -20.1483  -46.6158 H         1 UNK         0.0800 
    143 H143        1.6479  -22.6788  -46.6156 H         1 UNK         0.0600 
    144 H144        0.5580  -20.6827  -44.9500 H         1 UNK         0.3000 
    145 H145       -1.1338  -22.8394  -42.6366 H         1 UNK         0.0600 
    146 H146        0.2826  -21.5113  -41.0969 H         1 UNK         0.0600 
    147 H147        1.2551  -22.7094  -41.9376 H         1 UNK         0.0600 
    148 H148        1.3256  -21.0226  -42.4301 H         1 UNK         0.0600 
    149 H149       -0.9541  -20.0079  -42.7516 H         1 UNK         0.3000 
    150 H150       -3.8219  -19.4686  -44.8641 H         1 UNK         0.0600 
    151 H151       -4.6423  -19.7611  -42.5246 H         1 UNK         0.0600 
    152 H152       -4.4207  -18.0631  -42.9186 H         1 UNK         0.0600 
    153 H153       -3.2388  -18.8958  -41.9115 H         1 UNK         0.0600 
    154 H154       -2.0450  -17.6018  -43.6995 H         1 UNK         0.3000 
    155 H155        0.3657  -17.5298  -46.3744 H         1 UNK         0.0600 
    156 H156       -1.6896  -15.5284  -45.2993 H         1 UNK         0.0600 
    157 H157       -1.5302  -16.0268  -46.9748 H         1 UNK         0.0600 
    158 H158       -0.2312  -15.1293  -46.2020 H         1 UNK         0.0600 
    159 H159        0.3051  -16.1446  -43.8903 H         1 UNK         0.3000 
    160 H160        2.0243  -18.6176  -41.9410 H         1 UNK         0.0600 
    161 H161        2.8510  -15.8402  -42.9361 H         1 UNK         0.0600 
    162 H162        3.7879  -17.3164  -43.1222 H         1 UNK         0.0600 
    163 H163        3.4833  -16.6695  -41.5182 H         1 UNK         0.0600 
    164 H164        0.9039  -16.0043  -41.4146 H         1 UNK         0.3000 
    165 H165       -2.2615  -17.1736  -40.2723 H         1 UNK         0.0600 
    166 H166       -1.5493  -15.9807  -38.2181 H         1 UNK         0.0600 
    167 H167       -0.7317  -17.5312  -38.3282 H         1 UNK         0.0600 
    168 H168        0.1390  -16.0540  -38.7238 H         1 UNK         0.0600 
    169 H169       -1.0364  -14.5863  -40.3375 H         1 UNK         0.3000 
    170 H170       -1.9351  -13.7069  -43.6608 H         1 UNK         0.0600 
    171 H171       -4.0494  -13.3464  -42.3788 H         1 UNK         0.0600 
    172 H172       -3.1275  -12.7715  -40.9947 H         1 UNK         0.0600 
    173 H173       -3.1198  -11.8620  -42.5063 H         1 UNK         0.0600 
    174 H174       -0.7742  -12.1951  -41.5561 H         1 UNK         0.3000 
    175 H175        1.4166  -11.5052  -41.9014 H         1 UNK         0.0600 
    176 H176        2.4043  -14.1275  -40.6167 H         1 UNK         0.0600 
    177 H177        2.8984  -12.5065  -40.1363 H         1 UNK         0.0600 
    178 H178        1.2380  -13.0218  -39.8969 H         1 UNK         0.0600 
    179 H179        2.8819  -13.4849  -43.4476 H         1 UNK         0.3000 
    180 H180        5.1095  -11.1150  -44.6023 H         1 UNK         0.0600 
    181 H181        6.1847  -13.2504  -42.6826 H         1 UNK         0.0600 
    182 H182        6.5328  -11.5284  -42.5912 H         1 UNK         0.0600 
    183 H183        7.0988  -12.4585  -43.9676 H         1 UNK         0.0600 
    184 H184        5.2664  -13.9403  -44.8558 H         1 UNK         0.3000 
    185 H185        4.7349  -14.6222  -47.1051 H         1 UNK         0.0600 
    186 H186        2.9530  -16.3929  -46.7016 H         1 UNK         0.0600 
    187 H187        3.7042  -15.8214  -45.2249 H         1 UNK         0.0600 
    188 H188        2.1021  -15.2464  -45.6651 H         1 UNK         0.0600 
    189 H189        2.0429  -14.5535  -48.1023 H         1 UNK         0.3000 
    190 H190       -1.5090  -20.9464  -46.8516 H         1 UNK         0.3000 
    191 H191       -2.4825  -22.2455  -49.1410 H         1 UNK         0.0600 
    192 H192       -4.0811  -21.1023  -46.7898 H         1 UNK         0.0600 
    193 H193       -4.6865  -21.3941  -48.4159 H         1 UNK         0.0600 
    194 H194       -3.4573  -20.1698  -48.1437 H         1 UNK         0.0600 
    195 H195       -2.8278  -23.1729  -45.6902 H         1 UNK         0.3000 
    196 H196       -4.4286  -25.4809  -46.0838 H         1 UNK         0.0600 
    197 H197       -3.6567  -26.0831  -43.7844 H         1 UNK         0.0600 
    198 H198       -4.1441  -24.3972  -43.8784 H         1 UNK         0.0600 
    199 H199       -2.4343  -24.8193  -43.8522 H         1 UNK         0.0600 
    200 H200       -0.8475  -25.1226  -45.9077 H         1 UNK         0.3000 
    201 H201       -0.2162  -27.8724  -46.2689 H         1 UNK         0.0600 
    202 H202        1.3843  -26.2269  -45.3415 H         1 UNK         0.0600 
    203 H203        1.4322  -25.3604  -46.8745 H         1 UNK         0.0600 
    204 H204        2.0711  -26.9963  -46.7645 H         1 UNK         0.0600 
    205 H205       -0.6323  -25.2126  -48.6195 H         1 UNK         0.3000 
    206 H206       -0.0085  -26.7705  -50.9616 H         1 UNK         0.0600 
    207 H207        0.2441  -24.2913  -50.8458 H         1 UNK         0.0600 
    208 H208       -0.8507  -24.7383  -52.1433 H         1 UNK         0.0600 
    209 H209       -1.4956  -24.1067  -50.6327 H         1 UNK         0.0600 
    210 H210       -2.7777  -26.7692  -48.9704 H         1 UNK         0.3000 
    211 H211       -4.8707  -27.4667  -49.0702 H         1 UNK         0.0600 
    212 H212       -4.0866  -29.0680  -51.5653 H         1 UNK         0.0600 
    213 H213       -5.4878  -29.3472  -50.5415 H         1 UNK         0.0600 
    214 H214       -3.8736  -29.6074  -49.9003 H         1 UNK         0.0600 
    215 H215       -4.4265  -24.9928  -49.9546 H         1 UNK         0.3000 
    216 H216       -5.2788  -23.2065  -50.8634 H         1 UNK         0.0600 
    217 H217       -7.6332  -23.1340  -51.5541 H         1 UNK         0.0600 
    218 H218       -7.4732  -24.1764  -50.1516 H         1 UNK         0.0600 
    219 H219       -7.6820  -24.8780  -51.7563 H         1 UNK         0.0600 
    220 H220       -3.8448  -25.3504  -52.7415 H         1 UNK         0.3000 
    221 H221       -4.6322  -24.7809  -55.3819 H         1 UNK         0.0600 
    222 H222       -1.8901  -25.6623  -54.3413 H         1 UNK         0.0600 
    223 H223       -3.2410  -26.7351  -54.7141 H         1 UNK         0.0600 
    224 H224       -2.4639  -25.8203  -55.9956 H         1 UNK         0.0600 
    225 H225       -2.8477  -22.7617  -53.2262 H         1 UNK         0.3000 
    226 H226       -1.4640  -21.1031  -55.1201 H         1 UNK         0.0600 
    227 H227       -0.7854  -21.1331  -52.7756 H         1 UNK         0.0600 
    228 H228       -1.3759  -19.5190  -53.1342 H         1 UNK         0.0600 
    229 H229       -2.3890  -20.6467  -52.2401 H         1 UNK         0.0600 
    230 H230       -4.7838  -21.2902  -54.1051 H         1 UNK         0.3000 
    231 H231       -6.6773  -20.4801  -54.7450 H         1 UNK         0.0600 
    232 H232       -5.8411  -21.2050  -56.9551 H         1 UNK         0.0600 
    233 H233       -5.1798  -19.6002  -57.2642 H         1 UNK         0.0600 
    234 H234       -6.9178  -19.8270  -57.1265 H         1 UNK         0.0600 
    235 H235       -4.2495  -17.9261  -55.0791 H         1 UNK         0.3000 
    236 H236       -6.1168  -15.7372  -55.2629 H         1 UNK         0.0600 
    237 H237       -4.0350  -14.3670  -55.0995 H         1 UNK         0.0600 
    238 H238       -3.1165  -15.7936  -54.6305 H         1 UNK         0.0600 
    239 H239       -3.8287  -15.6862  -56.2400 H         1 UNK         0.0600 
    240 H240       -5.1829  -17.5682  -52.5816 H         1 UNK         0.3000 
    241 H241       -4.7791  -15.7242  -50.5431 H         1 UNK         0.0600 
    242 H242       -7.8348  -14.6748  -49.0651 H         1 UNK         0.3800 
    243 H243       -6.0986  -14.6663  -48.9618 H         1 UNK         0.3800 
    244 H244       -6.0102  -18.5005  -50.1842 H         1 UNK         0.0800 
    245 H245       -5.1098  -17.5993  -48.9922 H         1 UNK         0.0800 
    246 H246       -2.4887  -17.9840  -48.6496 H         1 UNK         0.0800 
    247 H247       -2.5890  -16.6350  -49.7585 H         1 UNK         0.0800 
@<TRIPOS>BOND
     1    1    2 1    
     2    1  127 1    
     3    1  128 1    
     4    1  129 1    
     5    2    3 2    
     6    2    4 am   BACKBONE|DICT|INTERRES
     7    4    5 1    
     8    4  130 1    
     9    5    6 1    
    10    5   65 1    
    11    5  131 1    
    12    6    7 1    
    13    6  132 1    
    14    6  133 1    
    15    7    8 1    
    16    8    9 1    
    17    8  134 1    
    18    8  135 1    
    19    9   10 ar   
    20    9   14 ar   
    21   10   11 ar   
    22   10  136 1    
    23   11   12 ar   
    24   11  126 1    
    25   12   13 ar   
    26   12  137 1    
    27   13   14 ar   
    28   13   15 1    
    29   14  138 1    
    30   15   16 1    
    31   15  139 1    
    32   15  140 1    
    33   16   17 1    
    34   17   18 1    
    35   17  141 1    
    36   17  142 1    
    37   18   19 1    
    38   18   67 1    
    39   18  143 1    
    40   19   20 am   BACKBONE|DICT|INTERRES
    41   19  144 1    
    42   20   21 2    
    43   20   22 1    
    44   22   23 1    
    45   22   24 1    
    46   22  145 1    
    47   23  146 1    
    48   23  147 1    
    49   23  148 1    
    50   24   25 am   BACKBONE|DICT|INTERRES
    51   24  149 1    
    52   25   26 2    
    53   25   27 1    
    54   27   28 1    
    55   27   29 1    
    56   27  150 1    
    57   28  151 1    
    58   28  152 1    
    59   28  153 1    
    60   29   30 am   BACKBONE|DICT|INTERRES
    61   29  154 1    
    62   30   31 2    
    63   30   32 1    
    64   32   33 1    
    65   32   34 1    
    66   32  155 1    
    67   33  156 1    
    68   33  157 1    
    69   33  158 1    
    70   34   35 am   BACKBONE|DICT|INTERRES
    71   34  159 1    
    72   35   36 2    
    73   35   37 1    
    74   37   38 1    
    75   37   39 1    
    76   37  160 1    
    77   38  161 1    
    78   38  162 1    
    79   38  163 1    
    80   39   40 am   BACKBONE|DICT|INTERRES
    81   39  164 1    
    82   40   41 2    
    83   40   42 1    
    84   42   43 1    
    85   42   44 1    
    86   42  165 1    
    87   43  166 1    
    88   43  167 1    
    89   43  168 1    
    90   44   45 am   BACKBONE|DICT|INTERRES
    91   44  169 1    
    92   45   46 2    
    93   45   47 1    
    94   47   48 1    
    95   47   49 1    
    96   47  170 1    
    97   48  171 1    
    98   48  172 1    
    99   48  173 1    
   100   49   50 am   BACKBONE|DICT|INTERRES
   101   49  174 1    
   102   50   51 2    
   103   50   52 1    
   104   52   53 1    
   105   52   54 1    
   106   52  175 1    
   107   53  176 1    
   108   53  177 1    
   109   53  178 1    
   110   54   55 am   BACKBONE|DICT|INTERRES
   111   54  179 1    
   112   55   56 2    
   113   55   57 1    
   114   57   58 1    
   115   57   59 1    
   116   57  180 1    
   117   58  181 1    
   118   58  182 1    
   119   58  183 1    
   120   59   60 am   BACKBONE|DICT|INTERRES
   121   59  184 1    
   122   60   61 2    
   123   60   62 1    
   124   62   63 1    
   125   62   64 1    
   126   62  185 1    
   127   63  186 1    
   128   63  187 1    
   129   63  188 1    
   130   64   65 am   BACKBONE|DICT|INTERRES
   131   64  189 1    
   132   65   66 2    
   133   67   68 2    
   134   67   69 am   BACKBONE|DICT|INTERRES
   135   69   70 1    
   136   69  190 1    
   137   70   71 1    
   138   70   72 1    
   139   70  191 1    
   140   71  192 1    
   141   71  193 1    
   142   71  194 1    
   143   72   73 2    
   144   72   74 am   BACKBONE|DICT|INTERRES
   145   74   75 1    
   146   74  195 1    
   147   75   76 1    
   148   75   77 1    
   149   75  196 1    
   150   76  197 1    
   151   76  198 1    
   152   76  199 1    
   153   77   78 2    
   154   77   79 am   BACKBONE|DICT|INTERRES
   155   79   80 1    
   156   79  200 1    
   157   80   81 1    
   158   80   82 1    
   159   80  201 1    
   160   81  202 1    
   161   81  203 1    
   162   81  204 1    
   163   82   83 2    
   164   82   84 am   BACKBONE|DICT|INTERRES
   165   84   85 1    
   166   84  205 1    
   167   85   86 1    
   168   85   87 1    
   169   85  206 1    
   170   86  207 1    
   171   86  208 1    
   172   86  209 1    
   173   87   88 2    
   174   87   89 am   BACKBONE|DICT|INTERRES
   175   89   90 1    
   176   89  210 1    
   177   90   91 1    
   178   90   92 1    
   179   90  211 1    
   180   91  212 1    
   181   91  213 1    
   182   91  214 1    
   183   92   93 2    
   184   92   94 am   BACKBONE|DICT|INTERRES
   185   94   95 1    
   186   94  215 1    
   187   95   96 1    
   188   95   97 1    
   189   95  216 1    
   190   96  217 1    
   191   96  218 1    
   192   96  219 1    
   193   97   98 2    
   194   97   99 am   BACKBONE|DICT|INTERRES
   195   99  100 1    
   196   99  220 1    
   197  100  101 1    
   198  100  102 1    
   199  100  221 1    
   200  101  222 1    
   201  101  223 1    
   202  101  224 1    
   203  102  103 2    
   204  102  104 am   BACKBONE|DICT|INTERRES
   205  104  105 1    
   206  104  225 1    
   207  105  106 1    
   208  105  107 1    
   209  105  226 1    
   210  106  227 1    
   211  106  228 1    
   212  106  229 1    
   213  107  108 2    
   214  107  109 am   BACKBONE|DICT|INTERRES
   215  109  110 1    
   216  109  230 1    
   217  110  111 1    
   218  110  112 1    
   219  110  231 1    
   220  111  232 1    
   221  111  233 1    
   222  111  234 1    
   223  112  113 2    
   224  112  114 am   BACKBONE|DICT|INTERRES
   225  114  115 1    
   226  114  235 1    
   227  115  116 1    
   228  115  117 1    
   229  115  236 1    
   230  116  237 1    
   231  116  238 1    
   232  116  239 1    
   233  117  118 2    
   234  117  119 am   BACKBONE|DICT|INTERRES
   235  119  120 1    
   236  119  240 1    
   237  120  121 1    
   238  120  124 1    
   239  120  241 1    
   240  121  122 am   BACKBONE|DICT|INTERRES
   241  121  123 2    
   242  122  242 1    
   243  122  243 1    
   244  124  125 1    
   245  124  244 1    
   246  124  245 1    
   247  125  126 1    
   248  126  246 1    
   249  126  247 1    
@<TRIPOS>SUBSTRUCTURE
     1 UNK         1 GROUP             0       ****    0 ROOT    
