@<TRIPOS>MOLECULE
3R540
247   249    1
SMALL
USER_CHARGES


@<TRIPOS>ATOM
      1 CA         -3.4821  -14.0181  -48.6619 C.3       0 UNK        -0.1800 
      2 C          -2.6284  -15.1630  -48.1373 C.2       0 UNK         0.5000 
      3 O          -2.8112  -16.2983  -48.5780 O.2       0 UNK        -0.5000 
      4 N          -1.7074  -14.8585  -47.2109 N.am      1 UNK        -0.5000 
      5 CA         -0.7916  -15.7856  -46.5235 C.3       1 UNK         0.1400 
      6 C6          0.0981  -16.6183  -47.4899 C.3       23 UNK        -0.0398 
      7 S7          1.0679  -15.5618  -48.6168 S.3       23 UNK        -0.2404 
      8 C8          2.3974  -16.7029  -49.1264 C.3       23 UNK        -0.0205 
      9 C9          1.9691  -17.8317  -50.0647 C.ar      23 UNK        -0.0193 
     10 C10         0.8831  -17.7087  -50.9429 C.ar      23 UNK        -0.1150 
     11 C11         0.5499  -18.7492  -51.8147 C.ar      23 UNK        -0.0193 
     12 C12         1.3105  -19.9203  -51.8111 C.ar      23 UNK        -0.1150 
     13 C13         2.4055  -20.0521  -50.9557 C.ar      23 UNK        -0.0193 
     14 C14         2.7256  -19.0079  -50.0844 C.ar      23 UNK        -0.1150 
     15 C15         3.2666  -21.3050  -51.0014 C.3       23 UNK        -0.0205 
     16 S16         2.9521  -22.4229  -49.6018 S.3       23 UNK        -0.2404 
     17 C17         1.2519  -23.0174  -49.9355 C.3       23 UNK        -0.0398 
     18 CA          0.2621  -22.8352  -48.7552 C.3       11 UNK         0.1400 
     19 N           0.8291  -23.3148  -47.4962 N.am      11 UNK        -0.5000 
     20 C           0.1299  -23.6983  -46.4223 C.2       10 UNK         0.5000 
     21 O          -1.0902  -23.8637  -46.4189 O.2       10 UNK        -0.5000 
     22 CA          0.9404  -23.9198  -45.1302 C.3       10 UNK         0.1400 
     23 CB          1.5036  -25.3486  -45.0810 C.3       10 UNK        -0.1800 
     24 N           2.0408  -22.9593  -44.9940 N.am      10 UNK        -0.5000 
     25 C           1.8680  -21.6672  -44.6836 C.2       9 UNK         0.5000 
     26 O           0.7731  -21.1764  -44.4010 O.2       9 UNK        -0.5000 
     27 CA          3.1293  -20.7820  -44.7092 C.3       9 UNK         0.1400 
     28 CB          3.5011  -20.4015  -46.1519 C.3       9 UNK        -0.1800 
     29 N           2.9347  -19.5499  -43.9493 N.am      9 UNK        -0.5000 
     30 C           2.9461  -19.4411  -42.6171 C.2       8 UNK         0.5000 
     31 O           3.2333  -20.3770  -41.8680 O.2       8 UNK        -0.5000 
     32 CA          2.5912  -18.0525  -42.0310 C.3       8 UNK         0.1400 
     33 CB          2.9044  -17.9458  -40.5281 C.3       8 UNK        -0.1800 
     34 N           3.2407  -16.9341  -42.7214 N.am      8 UNK        -0.5000 
     35 C           2.9074  -16.4414  -43.9214 C.2       7 UNK         0.5000 
     36 O           2.0246  -16.9256  -44.6338 O.2       7 UNK        -0.5000 
     37 CA          3.6858  -15.1979  -44.3765 C.3       7 UNK         0.1400 
     38 CB          3.1309  -14.5691  -45.6661 C.3       7 UNK        -0.1800 
     39 N           3.6779  -14.2044  -43.3070 N.am      7 UNK        -0.5000 
     40 C           4.7009  -13.3988  -42.9933 C.2       6 UNK         0.5000 
     41 O           5.7867  -13.4245  -43.5743 O.2       6 UNK        -0.5000 
     42 CA          4.4899  -12.3807  -41.8522 C.3       6 UNK         0.1400 
     43 CB          4.3716  -10.9574  -42.4204 C.3       6 UNK        -0.1800 
     44 N           3.3104  -12.6510  -41.0293 N.am      6 UNK        -0.5000 
     45 C           3.1992  -13.6470  -40.1405 C.2       5 UNK         0.5000 
     46 O           4.1102  -14.4316  -39.8754 O.2       5 UNK        -0.5000 
     47 CA          1.8265  -13.8109  -39.4566 C.3       5 UNK         0.1400 
     48 CB          1.8200  -13.1063  -38.0917 C.3       5 UNK        -0.1800 
     49 N           0.6933  -13.3226  -40.2531 N.am      5 UNK        -0.5000 
     50 C           0.3337  -13.8080  -41.4483 C.2       4 UNK         0.5000 
     51 O           0.9618  -14.6794  -42.0500 O.2       4 UNK        -0.5000 
     52 CA         -0.9310  -13.2203  -42.0921 C.3       4 UNK         0.1400 
     53 CB         -0.6138  -12.6168  -43.4702 C.3       4 UNK        -0.1800 
     54 N          -1.9220  -14.2782  -42.2501 N.am      4 UNK        -0.5000 
     55 C          -2.6684  -14.7795  -41.2570 C.2       3 UNK         0.5000 
     56 O          -2.7079  -14.3039  -40.1216 O.2       3 UNK        -0.5000 
     57 CA         -3.4929  -16.0370  -41.5868 C.3       3 UNK         0.1400 
     58 CB         -4.8933  -15.6523  -42.0876 C.3       3 UNK        -0.1800 
     59 N          -2.8424  -16.8749  -42.5935 N.am      3 UNK        -0.5000 
     60 C          -1.7508  -17.6227  -42.3944 C.2       2 UNK         0.5000 
     61 O          -1.1919  -17.7441  -41.3042 O.2       2 UNK        -0.5000 
     62 CA         -1.1866  -18.3540  -43.6256 C.3       2 UNK         0.1400 
     63 CB         -2.1507  -19.4581  -44.1063 C.3       2 UNK        -0.1800 
     64 N          -0.7718  -17.4511  -44.7112 N.am      2 UNK        -0.5000 
     65 C          -1.5321  -16.6635  -45.4855 C.2       1 UNK         0.5000 
     66 O          -2.7561  -16.5818  -45.3621 O.2       1 UNK        -0.5000 
     67 C          -0.2001  -21.3738  -48.5801 C.2       11 UNK         0.5000 
     68 O           0.4842  -20.5968  -47.9109 O.2       11 UNK        -0.5000 
     69 N          -1.3542  -21.0295  -49.1614 N.am      12 UNK        -0.5000 
     70 CA         -1.9874  -19.7241  -49.0288 C.3       12 UNK         0.1400 
     71 CB         -2.4162  -19.4755  -47.5701 C.3       12 UNK        -0.1800 
     72 C          -3.2039  -19.6118  -49.9483 C.2       12 UNK         0.5000 
     73 O          -3.9278  -20.5889  -50.1500 O.2       12 UNK        -0.5000 
     74 N          -3.4538  -18.3861  -50.4174 N.am      13 UNK        -0.5000 
     75 CA         -4.6665  -18.0015  -51.1350 C.3       13 UNK         0.1400 
     76 CB         -4.4074  -16.6930  -51.8957 C.3       13 UNK        -0.1800 
     77 C          -5.8603  -17.8508  -50.1747 C.2       13 UNK         0.5000 
     78 O          -6.9968  -18.0780  -50.5867 O.2       13 UNK        -0.5000 
     79 N          -5.5783  -17.5110  -48.9066 N.am      14 UNK        -0.5000 
     80 CA         -6.5524  -17.4858  -47.8141 C.3       14 UNK         0.1400 
     81 CB         -5.9264  -16.8009  -46.5910 C.3       14 UNK        -0.1800 
     82 C          -7.0550  -18.8937  -47.4380 C.2       14 UNK         0.5000 
     83 O          -8.2260  -19.0442  -47.0881 O.2       14 UNK        -0.5000 
     84 N          -6.1682  -19.8967  -47.5315 N.am      15 UNK        -0.5000 
     85 CA         -6.5031  -21.3132  -47.3658 C.3       15 UNK         0.1400 
     86 CB         -5.2237  -22.1183  -47.0961 C.3       15 UNK        -0.1800 
     87 C          -7.2694  -21.8589  -48.5860 C.2       15 UNK         0.5000 
     88 O          -8.2318  -22.6069  -48.4085 O.2       15 UNK        -0.5000 
     89 N          -6.8596  -21.4112  -49.7829 N.am      16 UNK        -0.5000 
     90 CA         -7.4961  -21.6108  -51.0876 C.3       16 UNK         0.1400 
     91 CB         -8.9399  -21.0610  -51.0804 C.3       16 UNK        -0.1800 
     92 C          -7.4264  -23.0615  -51.6086 C.2       16 UNK         0.5000 
     93 O          -6.8373  -23.9374  -50.9706 O.2       16 UNK        -0.5000 
     94 N          -8.0125  -23.2786  -52.7958 N.am      17 UNK        -0.5000 
     95 CA         -8.0793  -24.5477  -53.5272 C.3       17 UNK         0.1400 
     96 CB         -9.0441  -25.5245  -52.8167 C.3       17 UNK        -0.1800 
     97 C          -6.6711  -25.1213  -53.7902 C.2       17 UNK         0.5000 
     98 O          -5.8549  -24.4421  -54.4144 O.2       17 UNK        -0.5000 
     99 N          -6.3909  -26.3298  -53.2863 N.am      18 UNK        -0.5000 
    100 CA        -5.0995  -27.0109  -53.3977 C.3       18 UNK         0.1400 
    101 CB        -5.2479  -28.4443  -52.8652 C.3       18 UNK        -0.1800 
    102 C         -3.9386  -26.2884  -52.6831 C.2       18 UNK         0.5000 
    103 O         -2.7836  -26.5088  -53.0492 O.2       18 UNK        -0.5000 
    104 N         -4.2488  -25.4394  -51.6919 N.am      19 UNK        -0.5000 
    105 CA        -3.2610  -24.6472  -50.9604 C.3       19 UNK         0.1400 
    106 CB        -3.8175  -24.2800  -49.5781 C.3       19 UNK        -0.1800 
    107 C         -2.8267  -23.3799  -51.7170 C.2       19 UNK         0.5000 
    108 O         -1.7925  -22.8111  -51.3663 O.2       19 UNK        -0.5000 
    109 N         -3.5792  -22.9530  -52.7427 N.am      20 UNK        -0.5000 
    110 CA        -3.2991  -21.7589  -53.5470 C.3       20 UNK         0.1400 
    111 CB        -4.6062  -21.2405  -54.1685 C.3       20 UNK        -0.1800 
    112 C         -2.1981  -22.0085  -54.6011 C.2       20 UNK         0.5000 
    113 O         -2.3795  -21.7073  -55.7824 O.2       20 UNK        -0.5000 
    114 N         -1.0595  -22.5490  -54.1483 N.am      21 UNK        -0.5000 
    115 CA         0.0870  -22.9680  -54.9604 C.3       21 UNK         0.1400 
    116 CB         1.0918  -23.6917  -54.0508 C.3       21 UNK        -0.1800 
    117 C          0.7767  -21.8260  -55.7343 C.2       21 UNK         0.5000 
    118 O          1.4650  -22.0927  -56.7199 O.2       21 UNK        -0.5000 
    119 N          0.5691  -20.5827  -55.2852 N.am      22 UNK        -0.5000 
    120 CA         1.0044  -19.3541  -55.9602 C.3       22 UNK         0.1400 
    121 C          0.1302  -18.9418  -57.1840 C.2       22 UNK         0.5000 
    122 N         -1.0073  -19.5788  -57.4439 N.am      22 UNK        -0.7600 
    123 O          0.5025  -18.0353  -57.9240 O.2       22 UNK        -0.5000 
    124 C124        1.2128  -18.1973  -54.9472 C.3       23 UNK        -0.0398 
    125 S125       -0.3105  -17.5233  -54.1828 S.3       23 UNK        -0.2404 
    126 C126       -0.6333  -18.6156  -52.7601 C.3       23 UNK        -0.0205 
    127 H127       -3.3006  -13.0922  -48.1159 H         1 UNK         0.0600 
    128 H128       -3.2637  -13.8428  -49.7151 H         1 UNK         0.0600 
    129 H129       -4.5394  -14.2658  -48.5696 H         1 UNK         0.0600 
    130 H130       -1.6411  -13.8993  -46.9041 H         1 UNK         0.3000 
    131 H131       -0.1251  -15.1513  -45.9384 H         1 UNK         0.0600 
    132 H132       -0.5025  -17.2962  -48.0901 H         1 UNK         0.0800 
    133 H133        0.7926  -17.2501  -46.9355 H         1 UNK         0.0800 
    134 H134        3.1699  -16.1211  -49.6304 H         1 UNK         0.0800 
    135 H135        2.8617  -17.1181  -48.2303 H         1 UNK         0.0800 
    136 H136        0.2977  -16.8009  -50.9641 H         1 UNK         0.1150 
    137 H137        1.0618  -20.7258  -52.4854 H         1 UNK         0.1150 
    138 H138        3.5755  -19.1117  -49.4244 H         1 UNK         0.1150 
    139 H139        3.1208  -21.8447  -51.9378 H         1 UNK         0.0800 
    140 H140        4.3178  -21.0144  -50.9841 H         1 UNK         0.0800 
    141 H141        1.3257  -24.0796  -50.1713 H         1 UNK         0.0800 
    142 H142        0.8570  -22.5532  -50.8388 H         1 UNK         0.0800 
    143 H143       -0.6204  -23.4388  -48.9756 H         1 UNK         0.0600 
    144 H144        1.8200  -23.1559  -47.3916 H         1 UNK         0.3000 
    145 H145        0.2610  -23.7938  -44.2842 H         1 UNK         0.0600 
    146 H146        2.0221  -25.5358  -44.1404 H         1 UNK         0.0600 
    147 H147        0.7034  -26.0854  -45.1622 H         1 UNK         0.0600 
    148 H148        2.2052  -25.5351  -45.8950 H         1 UNK         0.0600 
    149 H149        2.9694  -23.2997  -45.1976 H         1 UNK         0.3000 
    150 H150        3.9564  -21.3422  -44.2681 H         1 UNK         0.0600 
    151 H151        3.6628  -21.2872  -46.7666 H         1 UNK         0.0600 
    152 H152        4.4196  -19.8153  -46.1812 H         1 UNK         0.0600 
    153 H153        2.7153  -19.8126  -46.6272 H         1 UNK         0.0600 
    154 H154        2.6347  -18.7365  -44.4761 H         1 UNK         0.3000 
    155 H155        1.5136  -17.9286  -42.1424 H         1 UNK         0.0600 
    156 H156        2.5913  -16.9809  -40.1304 H         1 UNK         0.0600 
    157 H157        3.9706  -18.0610  -40.3300 H         1 UNK         0.0600 
    158 H158        2.3760  -18.7124  -39.9599 H         1 UNK         0.0600 
    159 H159        3.9810  -16.4737  -42.2118 H         1 UNK         0.3000 
    160 H160        4.7072  -15.5316  -44.5697 H         1 UNK         0.0600 
    161 H161        3.7243  -13.7080  -45.9733 H         1 UNK         0.0600 
    162 H162        2.1002  -14.2373  -45.5400 H         1 UNK         0.0600 
    163 H163        3.1540  -15.2855  -46.4865 H         1 UNK         0.0600 
    164 H164        2.8235  -14.1676  -42.7593 H         1 UNK         0.3000 
    165 H165        5.3733  -12.4211  -41.2116 H         1 UNK         0.0600 
    166 H166        3.4994  -10.8542  -43.0673 H         1 UNK         0.0600 
    167 H167        4.2886  -10.2190  -41.6227 H         1 UNK         0.0600 
    168 H168        5.2509  -10.6966  -43.0110 H         1 UNK         0.0600 
    169 H169        2.5088  -12.0564  -41.1791 H         1 UNK         0.3000 
    170 H170        1.6729  -14.8786  -39.2885 H         1 UNK         0.0600 
    171 H171        2.6346  -13.4664  -37.4618 H         1 UNK         0.0600 
    172 H172        1.9377  -12.0268  -38.1955 H         1 UNK         0.0600 
    173 H173        0.8898  -13.2937  -37.5548 H         1 UNK         0.0600 
    174 H174        0.1175  -12.6137  -39.8219 H         1 UNK         0.3000 
    175 H175       -1.3392  -12.4332  -41.4545 H         1 UNK         0.0600 
    176 H176        0.1200  -11.8146  -43.3843 H         1 UNK         0.0600 
    177 H177       -0.2062  -13.3604  -44.1561 H         1 UNK         0.0600 
    178 H178       -1.5070  -12.1924  -43.9290 H         1 UNK         0.0600 
    179 H179       -1.9280  -14.7635  -43.1340 H         1 UNK         0.3000 
    180 H180       -3.6012  -16.6182  -40.6688 H         1 UNK         0.0600 
    181 H181       -4.8465  -15.0881  -43.0202 H         1 UNK         0.0600 
    182 H182       -5.4151  -15.0355  -41.3547 H         1 UNK         0.0600 
    183 H183       -5.5055  -16.5371  -42.2627 H         1 UNK         0.0600 
    184 H184       -3.1842  -16.8049  -43.5491 H         1 UNK         0.3000 
    185 H185       -0.2764  -18.8569  -43.2988 H         1 UNK         0.0600 
    186 H186       -1.6662  -20.1117  -44.8299 H         1 UNK         0.0600 
    187 H187       -2.4610  -20.0904  -43.2736 H         1 UNK         0.0600 
    188 H188       -3.0557  -19.0579  -44.5627 H         1 UNK         0.0600 
    189 H189        0.2383  -17.3695  -44.8128 H         1 UNK         0.3000 
    190 H190       -1.8280  -21.6828  -49.7799 H         1 UNK         0.3000 
    191 H191       -1.2642  -18.9692  -49.3379 H         1 UNK         0.0600 
    192 H192       -1.5480  -19.2651  -46.9490 H         1 UNK         0.0600 
    193 H193       -3.0849  -18.6210  -47.4741 H         1 UNK         0.0600 
    194 H194       -2.9250  -20.3391  -47.1445 H         1 UNK         0.0600 
    195 H195       -2.8814  -17.6172  -50.0816 H         1 UNK         0.3000 
    196 H196       -4.9113  -18.7807  -51.8602 H         1 UNK         0.0600 
    197 H197       -5.2933  -16.3827  -52.4511 H         1 UNK         0.0600 
    198 H198       -3.5970  -16.8088  -52.6156 H         1 UNK         0.0600 
    199 H199       -4.1415  -15.8798  -51.2191 H         1 UNK         0.0600 
    200 H200       -4.6202  -17.2724  -48.6727 H         1 UNK         0.3000 
    201 H201       -7.4117  -16.8949  -48.1378 H         1 UNK         0.0600 
    202 H202       -5.5723  -15.7985  -46.8306 H         1 UNK         0.0600 
    203 H203       -5.0820  -17.3722  -46.2055 H         1 UNK         0.0600 
    204 H204       -6.6519  -16.7054  -45.7824 H         1 UNK         0.0600 
    205 H205       -5.2319  -19.6826  -47.8362 H         1 UNK         0.3000 
    206 H206       -7.1522  -21.4166  -46.4936 H         1 UNK         0.0600 
    207 H207       -4.4932  -21.9936  -47.8942 H         1 UNK         0.0600 
    208 H208       -4.7540  -21.8089  -46.1623 H         1 UNK         0.0600 
    209 H209       -5.4417  -23.1837  -47.0127 H         1 UNK         0.0600 
    210 H210       -5.9917  -20.8897  -49.8115 H         1 UNK         0.3000 
    211 H211       -6.9191  -20.9997  -51.7800 H         1 UNK         0.0600 
    212 H212       -9.6169  -21.7041  -50.5173 H         1 UNK         0.0600 
    213 H213       -9.3391  -20.9737  -52.0909 H         1 UNK         0.0600 
    214 H214       -8.9801  -20.0658  -50.6370 H         1 UNK         0.0600 
    215 H215       -8.4354  -22.4923  -53.2677 H         1 UNK         0.3000 
    216 H216       -8.5014  -24.3214  -54.5073 H         1 UNK         0.0600 
    217 H217      -10.0342  -25.0807  -52.7112 H         1 UNK         0.0600 
    218 H218       -8.6996  -25.7936  -51.8175 H         1 UNK         0.0600 
    219 H219       -9.1688  -26.4445  -53.3891 H         1 UNK         0.0600 
    220 H220       -7.1082  -26.8073  -52.7603 H         1 UNK         0.3000 
    221 H221       -4.8426  -27.0651  -54.4575 H         1 UNK         0.0600 
    222 H222       -5.5290  -28.4542  -51.8115 H         1 UNK         0.0600 
    223 H223       -6.0060  -28.9962  -53.4213 H         1 UNK         0.0600 
    224 H224       -4.3117  -28.9961  -52.9605 H         1 UNK         0.0600 
    225 H225       -5.2226  -25.2703  -51.4630 H         1 UNK         0.3000 
    226 H226       -2.3675  -25.2556  -50.8047 H         1 UNK         0.0600 
    227 H227       -4.1537  -25.1632  -49.0353 H         1 UNK         0.0600 
    228 H228       -3.0574  -23.7932  -48.9663 H         1 UNK         0.0600 
    229 H229       -4.6580  -23.5919  -49.6567 H         1 UNK         0.0600 
    230 H230       -4.3758  -23.5087  -53.0282 H         1 UNK         0.3000 
    231 H231       -2.9317  -20.9764  -52.8808 H         1 UNK         0.0600 
    232 H232       -4.4393  -20.3072  -54.7078 H         1 UNK         0.0600 
    233 H233       -5.3517  -21.0385  -53.4030 H         1 UNK         0.0600 
    234 H234       -5.0304  -21.9552  -54.8736 H         1 UNK         0.0600 
    235 H235       -1.0155  -22.7556  -53.1555 H         1 UNK         0.3000 
    236 H236       -0.2796  -23.6817  -55.7008 H         1 UNK         0.0600 
    237 H237        1.9469  -24.0554  -54.6219 H         1 UNK         0.0600 
    238 H238        1.4742  -23.0341  -53.2708 H         1 UNK         0.0600 
    239 H239        0.6350  -24.5553  -53.5667 H         1 UNK         0.0600 
    240 H240       -0.0367  -20.4586  -54.4914 H         1 UNK         0.3000 
    241 H241        1.9896  -19.5622  -56.3821 H         1 UNK         0.0600 
    242 H242       -1.5531  -19.3011  -58.2439 H         1 UNK         0.3800 
    243 H243       -1.3434  -20.3286  -56.8495 H         1 UNK         0.3800 
    244 H244        1.9116  -18.5045  -54.1697 H         1 UNK         0.0800 
    245 H245        1.7095  -17.3666  -55.4510 H         1 UNK         0.0800 
    246 H246       -1.4787  -18.2039  -52.2119 H         1 UNK         0.0800 
    247 H247       -0.9563  -19.5928  -53.1140 H         1 UNK         0.0800 
@<TRIPOS>BOND
     1    1    2 1    
     2    1  127 1    
     3    1  128 1    
     4    1  129 1    
     5    2    3 2    
     6    2    4 am   BACKBONE|DICT|INTERRES
     7    4    5 1    
     8    4  130 1    
     9    5    6 1    
    10    5   65 1    
    11    5  131 1    
    12    6    7 1    
    13    6  132 1    
    14    6  133 1    
    15    7    8 1    
    16    8    9 1    
    17    8  134 1    
    18    8  135 1    
    19    9   10 ar   
    20    9   14 ar   
    21   10   11 ar   
    22   10  136 1    
    23   11   12 ar   
    24   11  126 1    
    25   12   13 ar   
    26   12  137 1    
    27   13   14 ar   
    28   13   15 1    
    29   14  138 1    
    30   15   16 1    
    31   15  139 1    
    32   15  140 1    
    33   16   17 1    
    34   17   18 1    
    35   17  141 1    
    36   17  142 1    
    37   18   19 1    
    38   18   67 1    
    39   18  143 1    
    40   19   20 am   BACKBONE|DICT|INTERRES
    41   19  144 1    
    42   20   21 2    
    43   20   22 1    
    44   22   23 1    
    45   22   24 1    
    46   22  145 1    
    47   23  146 1    
    48   23  147 1    
    49   23  148 1    
    50   24   25 am   BACKBONE|DICT|INTERRES
    51   24  149 1    
    52   25   26 2    
    53   25   27 1    
    54   27   28 1    
    55   27   29 1    
    56   27  150 1    
    57   28  151 1    
    58   28  152 1    
    59   28  153 1    
    60   29   30 am   BACKBONE|DICT|INTERRES
    61   29  154 1    
    62   30   31 2    
    63   30   32 1    
    64   32   33 1    
    65   32   34 1    
    66   32  155 1    
    67   33  156 1    
    68   33  157 1    
    69   33  158 1    
    70   34   35 am   BACKBONE|DICT|INTERRES
    71   34  159 1    
    72   35   36 2    
    73   35   37 1    
    74   37   38 1    
    75   37   39 1    
    76   37  160 1    
    77   38  161 1    
    78   38  162 1    
    79   38  163 1    
    80   39   40 am   BACKBONE|DICT|INTERRES
    81   39  164 1    
    82   40   41 2    
    83   40   42 1    
    84   42   43 1    
    85   42   44 1    
    86   42  165 1    
    87   43  166 1    
    88   43  167 1    
    89   43  168 1    
    90   44   45 am   BACKBONE|DICT|INTERRES
    91   44  169 1    
    92   45   46 2    
    93   45   47 1    
    94   47   48 1    
    95   47   49 1    
    96   47  170 1    
    97   48  171 1    
    98   48  172 1    
    99   48  173 1    
   100   49   50 am   BACKBONE|DICT|INTERRES
   101   49  174 1    
   102   50   51 2    
   103   50   52 1    
   104   52   53 1    
   105   52   54 1    
   106   52  175 1    
   107   53  176 1    
   108   53  177 1    
   109   53  178 1    
   110   54   55 am   BACKBONE|DICT|INTERRES
   111   54  179 1    
   112   55   56 2    
   113   55   57 1    
   114   57   58 1    
   115   57   59 1    
   116   57  180 1    
   117   58  181 1    
   118   58  182 1    
   119   58  183 1    
   120   59   60 am   BACKBONE|DICT|INTERRES
   121   59  184 1    
   122   60   61 2    
   123   60   62 1    
   124   62   63 1    
   125   62   64 1    
   126   62  185 1    
   127   63  186 1    
   128   63  187 1    
   129   63  188 1    
   130   64   65 am   BACKBONE|DICT|INTERRES
   131   64  189 1    
   132   65   66 2    
   133   67   68 2    
   134   67   69 am   BACKBONE|DICT|INTERRES
   135   69   70 1    
   136   69  190 1    
   137   70   71 1    
   138   70   72 1    
   139   70  191 1    
   140   71  192 1    
   141   71  193 1    
   142   71  194 1    
   143   72   73 2    
   144   72   74 am   BACKBONE|DICT|INTERRES
   145   74   75 1    
   146   74  195 1    
   147   75   76 1    
   148   75   77 1    
   149   75  196 1    
   150   76  197 1    
   151   76  198 1    
   152   76  199 1    
   153   77   78 2    
   154   77   79 am   BACKBONE|DICT|INTERRES
   155   79   80 1    
   156   79  200 1    
   157   80   81 1    
   158   80   82 1    
   159   80  201 1    
   160   81  202 1    
   161   81  203 1    
   162   81  204 1    
   163   82   83 2    
   164   82   84 am   BACKBONE|DICT|INTERRES
   165   84   85 1    
   166   84  205 1    
   167   85   86 1    
   168   85   87 1    
   169   85  206 1    
   170   86  207 1    
   171   86  208 1    
   172   86  209 1    
   173   87   88 2    
   174   87   89 am   BACKBONE|DICT|INTERRES
   175   89   90 1    
   176   89  210 1    
   177   90   91 1    
   178   90   92 1    
   179   90  211 1    
   180   91  212 1    
   181   91  213 1    
   182   91  214 1    
   183   92   93 2    
   184   92   94 am   BACKBONE|DICT|INTERRES
   185   94   95 1    
   186   94  215 1    
   187   95   96 1    
   188   95   97 1    
   189   95  216 1    
   190   96  217 1    
   191   96  218 1    
   192   96  219 1    
   193   97   98 2    
   194   97   99 am   BACKBONE|DICT|INTERRES
   195   99  100 1    
   196   99  220 1    
   197  100  101 1    
   198  100  102 1    
   199  100  221 1    
   200  101  222 1    
   201  101  223 1    
   202  101  224 1    
   203  102  103 2    
   204  102  104 am   BACKBONE|DICT|INTERRES
   205  104  105 1    
   206  104  225 1    
   207  105  106 1    
   208  105  107 1    
   209  105  226 1    
   210  106  227 1    
   211  106  228 1    
   212  106  229 1    
   213  107  108 2    
   214  107  109 am   BACKBONE|DICT|INTERRES
   215  109  110 1    
   216  109  230 1    
   217  110  111 1    
   218  110  112 1    
   219  110  231 1    
   220  111  232 1    
   221  111  233 1    
   222  111  234 1    
   223  112  113 2    
   224  112  114 am   BACKBONE|DICT|INTERRES
   225  114  115 1    
   226  114  235 1    
   227  115  116 1    
   228  115  117 1    
   229  115  236 1    
   230  116  237 1    
   231  116  238 1    
   232  116  239 1    
   233  117  118 2    
   234  117  119 am   BACKBONE|DICT|INTERRES
   235  119  120 1    
   236  119  240 1    
   237  120  121 1    
   238  120  124 1    
   239  120  241 1    
   240  121  122 am   BACKBONE|DICT|INTERRES
   241  121  123 2    
   242  122  242 1    
   243  122  243 1    
   244  124  125 1    
   245  124  244 1    
   246  124  245 1    
   247  125  126 1    
   248  126  246 1    
   249  126  247 1    
@<TRIPOS>SUBSTRUCTURE
     1 UNK         1 GROUP             0       ****    0 ROOT    
