@<TRIPOS>MOLECULE
3R540
247   249    1
SMALL
USER_CHARGES


@<TRIPOS>ATOM
      1 CA          5.8709  -13.3715  -47.6790 C.3       0 UNK        -0.1800 
      2 C           5.0503  -14.6406  -47.8577 C.2       0 UNK         0.5000 
      3 O           4.4230  -15.0895  -46.8984 O.2       0 UNK        -0.5000 
      4 N           5.0668  -15.2026  -49.0763 N.am      1 UNK        -0.5000 
      5 CA          4.3684  -16.4111  -49.5425 C.3       1 UNK         0.1400 
      6 C6          2.9725  -16.1217  -50.1726 C.3       23 UNK        -0.0398 
      7 S7          1.6936  -15.4670  -49.0426 S.3       23 UNK        -0.2404 
      8 C8          0.3340  -15.1178  -50.1992 C.3       23 UNK        -0.0205 
      9 C9         -0.2758  -16.3934  -50.7604 C.ar      23 UNK        -0.0193 
     10 C10        -0.0036  -16.7915  -52.0729 C.ar      23 UNK        -0.1150 
     11 C11        -0.5675  -17.9611  -52.5916 C.ar      23 UNK        -0.0193 
     12 C12        -1.4083  -18.7315  -51.7839 C.ar      23 UNK        -0.1150 
     13 C13        -1.6909  -18.3431  -50.4719 C.ar      23 UNK        -0.0193 
     14 C14        -1.1224  -17.1716  -49.9660 C.ar      23 UNK        -0.1150 
     15 C15        -2.6257  -19.1839  -49.6194 C.3       23 UNK        -0.0205 
     16 S16        -1.9135  -20.8149  -49.2612 S.3       23 UNK        -0.2404 
     17 C17        -1.7038  -20.7354  -47.4542 C.3       23 UNK        -0.0398 
     18 CA         -0.9864  -21.9871  -46.9007 C.3       11 UNK         0.1400 
     19 N          -0.3680  -21.7318  -45.5947 N.am      11 UNK        -0.5000 
     20 C           0.4250  -22.5876  -44.9306 C.2       10 UNK         0.5000 
     21 O           0.6394  -23.7402  -45.3061 O.2       10 UNK        -0.5000 
     22 CA          1.0871  -22.0952  -43.6328 C.3       10 UNK         0.1400 
     23 CB          2.5933  -21.8749  -43.8386 C.3       10 UNK        -0.1800 
     24 N           0.4764  -20.8680  -43.1205 N.am      10 UNK        -0.5000 
     25 C          -0.6217  -20.8606  -42.3527 C.2       9 UNK         0.5000 
     26 O          -1.2214  -21.8816  -42.0134 O.2       9 UNK        -0.5000 
     27 CA         -1.1455  -19.4936  -41.8785 C.3       9 UNK         0.1400 
     28 CB         -0.5102  -19.1385  -40.5268 C.3       9 UNK        -0.1800 
     29 N          -0.9384  -18.3891  -42.8188 N.am      9 UNK        -0.5000 
     30 C          -1.4355  -18.3271  -44.0625 C.2       8 UNK         0.5000 
     31 O          -2.0367  -19.2566  -44.6040 O.2       8 UNK        -0.5000 
     32 CA         -1.2236  -16.9953  -44.8092 C.3       8 UNK         0.1400 
     33 CB         -2.0415  -16.8797  -46.1109 C.3       8 UNK        -0.1800 
     34 N          -1.4307  -15.8301  -43.9430 N.am      8 UNK        -0.5000 
     35 C          -2.5791  -15.4169  -43.3858 C.2       7 UNK         0.5000 
     36 O          -3.6613  -15.9880  -43.5289 O.2       7 UNK        -0.5000 
     37 CA         -2.4870  -14.1297  -42.5402 C.3       7 UNK         0.1400 
     38 CB         -3.7563  -13.8436  -41.7092 C.3       7 UNK        -0.1800 
     39 N          -1.2781  -14.0834  -41.7108 N.am      7 UNK        -0.5000 
     40 C          -0.9696  -14.8746  -40.6706 C.2       6 UNK         0.5000 
     41 O          -1.7187  -15.7502  -40.2389 O.2       6 UNK        -0.5000 
     42 CA          0.4074  -14.6632  -40.0043 C.3       6 UNK         0.1400 
     43 CB          1.0866  -15.9996  -39.6600 C.3       6 UNK        -0.1800 
     44 N           1.3082  -13.9025  -40.8682 N.am      6 UNK        -0.5000 
     45 C           1.6273  -12.6100  -40.7241 C.2       5 UNK         0.5000 
     46 O           1.2421  -11.9098  -39.7875 O.2       5 UNK        -0.5000 
     47 CA          2.5077  -11.9826  -41.8255 C.3       5 UNK         0.1400 
     48 CB          3.9703  -11.9050  -41.3617 C.3       5 UNK        -0.1800 
     49 N           2.4564  -12.6954  -43.1057 N.am      5 UNK        -0.5000 
     50 C           1.3695  -12.8238  -43.8801 C.2       4 UNK         0.5000 
     51 O           0.2726  -12.3373  -43.6062 O.2       4 UNK        -0.5000 
     52 CA          1.5228  -13.6923  -45.1430 C.3       4 UNK         0.1400 
     53 CB          2.0545  -12.8184  -46.2887 C.3       4 UNK        -0.1800 
     54 N           2.3984  -14.8598  -44.9654 N.am      4 UNK        -0.5000 
     55 C           2.2827  -15.7967  -44.0125 C.2       3 UNK         0.5000 
     56 O           1.3798  -15.7997  -43.1721 O.2       3 UNK        -0.5000 
     57 CA          3.3728  -16.8836  -43.9853 C.3       3 UNK         0.1400 
     58 CB          3.2349  -17.8514  -42.7887 C.3       3 UNK        -0.1800 
     59 N           3.4838  -17.6048  -45.2565 N.am      3 UNK        -0.5000 
     60 C           2.6346  -18.5031  -45.7741 C.2       2 UNK         0.5000 
     61 O           1.5782  -18.8475  -45.2403 O.2       2 UNK        -0.5000 
     62 CA          3.0669  -19.1247  -47.1165 C.3       2 UNK         0.1400 
     63 CB          2.0583  -20.1425  -47.6713 C.3       2 UNK        -0.1800 
     64 N           3.2483  -18.0727  -48.1077 N.am      2 UNK        -0.5000 
     65 C           4.4173  -17.5863  -48.5350 C.2       1 UNK         0.5000 
     66 O           5.5112  -18.0181  -48.1648 O.2       1 UNK        -0.5000 
     67 C          -1.9137  -23.2178  -46.9077 C.2       11 UNK         0.5000 
     68 O          -1.9688  -23.9279  -47.9130 O.2       11 UNK        -0.5000 
     69 N          -2.5821  -23.4807  -45.7767 N.am      12 UNK        -0.5000 
     70 CA         -3.4391  -24.6473  -45.5573 C.3       12 UNK         0.1400 
     71 CB         -4.1213  -24.5121  -44.1884 C.3       12 UNK        -0.1800 
     72 C          -2.6982  -25.9963  -45.6630 C.2       12 UNK         0.5000 
     73 O          -3.3267  -26.9971  -46.0067 O.2       12 UNK        -0.5000 
     74 N          -1.3868  -25.9963  -45.3906 N.am      13 UNK        -0.5000 
     75 CA         -0.5072  -27.1518  -45.5467 C.3       13 UNK         0.1400 
     76 CB          0.4304  -27.2366  -44.3316 C.3       13 UNK        -0.1800 
     77 C           0.3068  -27.0575  -46.8479 C.2       13 UNK         0.5000 
     78 O           0.4506  -28.0620  -47.5451 O.2       13 UNK        -0.5000 
     79 N           0.8382  -25.8627  -47.1433 N.am      14 UNK        -0.5000 
     80 CA          1.7793  -25.6189  -48.2360 C.3       14 UNK         0.1400 
     81 CB          2.4537  -24.2531  -48.0298 C.3       14 UNK        -0.1800 
     82 C           1.1580  -25.7032  -49.6410 C.2       14 UNK         0.5000 
     83 O           1.8336  -26.1689  -50.5600 O.2       14 UNK        -0.5000 
     84 N          -0.0911  -25.2435  -49.7948 N.am      15 UNK        -0.5000 
     85 CA         -0.7683  -25.1488  -51.0926 C.3       15 UNK         0.1400 
     86 CB         -0.5808  -23.7269  -51.6520 C.3       15 UNK        -0.1800 
     87 C          -2.2551  -25.5412  -51.0280 C.2       15 UNK         0.5000 
     88 O          -2.9597  -25.3714  -52.0225 O.2       15 UNK        -0.5000 
     89 N          -2.7133  -26.0466  -49.8733 N.am      16 UNK        -0.5000 
     90 CA         -4.1042  -26.3922  -49.5561 C.3       16 UNK         0.1400 
     91 CB         -4.5842  -27.5902  -50.4026 C.3       16 UNK        -0.1800 
     92 C          -5.0554  -25.1756  -49.6220 C.2       16 UNK         0.5000 
     93 O          -6.1930  -25.3053  -50.0773 O.2       16 UNK        -0.5000 
     94 N          -4.5619  -24.0198  -49.1497 N.am      17 UNK        -0.5000 
     95 CA         -5.2421  -22.7224  -49.0744 C.3       17 UNK         0.1400 
     96 CB         -6.4186  -22.7741  -48.0777 C.3       17 UNK        -0.1800 
     97 C          -5.6393  -22.1798  -50.4634 C.2       17 UNK         0.5000 
     98 O          -6.7993  -21.8371  -50.6961 O.2       17 UNK        -0.5000 
     99 N          -4.6519  -22.0933  -51.3645 N.am      18 UNK        -0.5000 
    100 CA        -4.7864  -21.6777  -52.7673 C.3       18 UNK         0.1400 
    101 CB        -3.5307  -22.1296  -53.5331 C.3       18 UNK        -0.1800 
    102 C         -5.0645  -20.1730  -52.9977 C.2       18 UNK         0.5000 
    103 O         -4.9122  -19.6983  -54.1236 O.2       18 UNK        -0.5000 
    104 N         -5.4801  -19.4360  -51.9588 N.am      19 UNK        -0.5000 
    105 CA        -5.7179  -17.9885  -51.9758 C.3       19 UNK         0.1400 
    106 CB        -6.1200  -17.5251  -50.5675 C.3       19 UNK        -0.1800 
    107 C         -6.7674  -17.5389  -53.0105 C.2       19 UNK         0.5000 
    108 O         -6.6394  -16.4514  -53.5724 O.2       19 UNK        -0.5000 
    109 N         -7.7555  -18.4034  -53.2788 N.am      20 UNK        -0.5000 
    110 CA        -8.7815  -18.2091  -54.3042 C.3       20 UNK         0.1400 
    111 CB        -9.8639  -19.2862  -54.1348 C.3       20 UNK        -0.1800 
    112 C         -8.2266  -18.2239  -55.7438 C.2       20 UNK         0.5000 
    113 O         -8.8249  -17.6013  -56.6221 O.2       20 UNK        -0.5000 
    114 N         -7.1037  -18.9228  -55.9611 N.am      21 UNK        -0.5000 
    115 CA        -6.3897  -18.9637  -57.2353 C.3       21 UNK         0.1400 
    116 CB        -5.7584  -20.3526  -57.4258 C.3       21 UNK        -0.1800 
    117 C         -5.3188  -17.8626  -57.3006 C.2       21 UNK         0.5000 
    118 O         -5.1914  -17.2049  -58.3345 O.2       21 UNK        -0.5000 
    119 N         -4.5702  -17.6842  -56.2040 N.am      22 UNK        -0.5000 
    120 CA        -3.4874  -16.6938  -56.0882 C.3       22 UNK         0.1400 
    121 C         -3.9695  -15.2165  -56.0308 C.2       22 UNK         0.5000 
    122 N         -5.1479  -14.9207  -55.4971 N.am      22 UNK        -0.7600 
    123 O         -3.2616  -14.3221  -56.4859 O.2       22 UNK        -0.5000 
    124 C124       -2.5467  -16.9992  -54.8977 C.3       23 UNK        -0.0398 
    125 S125       -1.7583  -18.6401  -55.0257 S.3       23 UNK        -0.2404 
    126 C126       -0.2585  -18.3964  -54.0189 C.3       23 UNK        -0.0205 
    127 H127        6.4210  -13.1113  -48.5836 H         1 UNK         0.0600 
    128 H128        6.5893  -13.5012  -46.8696 H         1 UNK         0.0600 
    129 H129        5.2179  -12.5366  -47.4260 H         1 UNK         0.0600 
    130 H130        5.6393  -14.7624  -49.7823 H         1 UNK         0.3000 
    131 H131        4.9861  -16.7633  -50.3703 H         1 UNK         0.0600 
    132 H132        3.0950  -15.4028  -50.9836 H         1 UNK         0.0800 
    133 H133        2.5868  -17.0259  -50.6467 H         1 UNK         0.0800 
    134 H134       -0.4367  -14.5520  -49.6740 H         1 UNK         0.0800 
    135 H135        0.6933  -14.4708  -51.0009 H         1 UNK         0.0800 
    136 H136        0.6502  -16.1906  -52.6893 H         1 UNK         0.1150 
    137 H137       -1.8474  -19.6361  -52.1786 H         1 UNK         0.1150 
    138 H138       -1.3357  -16.8585  -48.9552 H         1 UNK         0.1150 
    139 H139       -2.8910  -18.6662  -48.6971 H         1 UNK         0.0800 
    140 H140       -3.5570  -19.3326  -50.1594 H         1 UNK         0.0800 
    141 H141       -1.1157  -19.8453  -47.2339 H         1 UNK         0.0800 
    142 H142       -2.6728  -20.5846  -46.9745 H         1 UNK         0.0800 
    143 H143       -0.1628  -22.2202  -47.5766 H         1 UNK         0.0600 
    144 H144       -0.5317  -20.8172  -45.1916 H         1 UNK         0.3000 
    145 H145        0.9730  -22.8892  -42.8917 H         1 UNK         0.0600 
    146 H146        3.0709  -21.5262  -42.9229 H         1 UNK         0.0600 
    147 H147        3.0848  -22.8049  -44.1276 H         1 UNK         0.0600 
    148 H148        2.7966  -21.1467  -44.6210 H         1 UNK         0.0600 
    149 H149        0.8804  -19.9908  -43.4268 H         1 UNK         0.3000 
    150 H150       -2.2227  -19.5942  -41.7313 H         1 UNK         0.0600 
    151 H151       -0.6429  -19.9465  -39.8061 H         1 UNK         0.0600 
    152 H152       -0.9708  -18.2512  -40.0964 H         1 UNK         0.0600 
    153 H153        0.5609  -18.9570  -40.6212 H         1 UNK         0.0600 
    154 H154       -0.4458  -17.5802  -42.4672 H         1 UNK         0.3000 
    155 H155       -0.1749  -16.9708  -45.0993 H         1 UNK         0.0600 
    156 H156       -1.8646  -15.9246  -46.6053 H         1 UNK         0.0600 
    157 H157       -3.1127  -16.9767  -45.9336 H         1 UNK         0.0600 
    158 H158       -1.7562  -17.6637  -46.8094 H         1 UNK         0.0600 
    159 H159       -0.5789  -15.3510  -43.6760 H         1 UNK         0.3000 
    160 H160       -2.3852  -13.3135  -43.2569 H         1 UNK         0.0600 
    161 H161       -3.9840  -14.6544  -41.0170 H         1 UNK         0.0600 
    162 H162       -4.6243  -13.7182  -42.3573 H         1 UNK         0.0600 
    163 H163       -3.6502  -12.9264  -41.1300 H         1 UNK         0.0600 
    164 H164       -0.5900  -13.4008  -42.0071 H         1 UNK         0.3000 
    165 H165        0.2304  -14.1248  -39.0714 H         1 UNK         0.0600 
    166 H166        1.2353  -16.6128  -40.5486 H         1 UNK         0.0600 
    167 H167        2.0611  -15.8385  -39.1991 H         1 UNK         0.0600 
    168 H168        0.4887  -16.5762  -38.9534 H         1 UNK         0.0600 
    169 H169        1.6309  -14.3968  -41.6925 H         1 UNK         0.3000 
    170 H170        2.1453  -10.9663  -41.9935 H         1 UNK         0.0600 
    171 H171        4.0549  -11.3535  -40.4243 H         1 UNK         0.0600 
    172 H172        4.3932  -12.8971  -41.1982 H         1 UNK         0.0600 
    173 H173        4.5909  -11.3909  -42.0958 H         1 UNK         0.0600 
    174 H174        3.3115  -13.1364  -43.4112 H         1 UNK         0.3000 
    175 H175        0.5338  -14.0620  -45.4201 H         1 UNK         0.0600 
    176 H176        3.0526  -12.4362  -46.0719 H         1 UNK         0.0600 
    177 H177        2.1099  -13.3722  -47.2223 H         1 UNK         0.0600 
    178 H178        1.4039  -11.9603  -46.4626 H         1 UNK         0.0600 
    179 H179        3.1541  -14.9545  -45.6442 H         1 UNK         0.3000 
    180 H180        4.3195  -16.3560  -43.8608 H         1 UNK         0.0600 
    181 H181        2.2695  -18.3569  -42.7749 H         1 UNK         0.0600 
    182 H182        3.3280  -17.3128  -41.8451 H         1 UNK         0.0600 
    183 H183        4.0130  -18.6144  -42.8046 H         1 UNK         0.0600 
    184 H184        4.2793  -17.3438  -45.8250 H         1 UNK         0.3000 
    185 H185        4.0056  -19.6532  -46.9390 H         1 UNK         0.0600 
    186 H186        2.4064  -20.5694  -48.6119 H         1 UNK         0.0600 
    187 H187        1.9214  -20.9693  -46.9765 H         1 UNK         0.0600 
    188 H188        1.0871  -19.6846  -47.8550 H         1 UNK         0.0600 
    189 H189        2.4063  -17.5953  -48.4041 H         1 UNK         0.3000 
    190 H190       -2.4621  -22.8536  -44.9938 H         1 UNK         0.3000 
    191 H191       -4.2136  -24.6420  -46.3261 H         1 UNK         0.0600 
    192 H192       -4.7260  -23.6065  -44.1370 H         1 UNK         0.0600 
    193 H193       -4.7854  -25.3560  -43.9966 H         1 UNK         0.0600 
    194 H194       -3.3920  -24.4761  -43.3779 H         1 UNK         0.0600 
    195 H195       -0.9382  -25.1207  -45.1504 H         1 UNK         0.3000 
    196 H196       -1.0907  -28.0743  -45.5826 H         1 UNK         0.0600 
    197 H197        1.1034  -28.0908  -44.4165 H         1 UNK         0.0600 
    198 H198       -0.1352  -27.3592  -43.4079 H         1 UNK         0.0600 
    199 H199        1.0459  -26.3418  -44.2297 H         1 UNK         0.0600 
    200 H200        0.7026  -25.0920  -46.4928 H         1 UNK         0.3000 
    201 H201        2.5564  -26.3841  -48.1776 H         1 UNK         0.0600 
    202 H202        2.9503  -24.1986  -47.0608 H         1 UNK         0.0600 
    203 H203        1.7348  -23.4366  -48.0835 H         1 UNK         0.0600 
    204 H204        3.2108  -24.0719  -48.7937 H         1 UNK         0.0600 
    205 H205       -0.5816  -24.8455  -48.9999 H         1 UNK         0.3000 
    206 H206       -0.3189  -25.8510  -51.7974 H         1 UNK         0.0600 
    207 H207        0.4746  -23.4623  -51.7178 H         1 UNK         0.0600 
    208 H208       -0.9963  -23.6395  -52.6562 H         1 UNK         0.0600 
    209 H209       -1.0730  -22.9851  -51.0247 H         1 UNK         0.0600 
    210 H210       -2.0573  -26.1392  -49.1116 H         1 UNK         0.3000 
    211 H211       -4.1069  -26.7142  -48.5153 H         1 UNK         0.0600 
    212 H212       -4.6794  -27.3321  -51.4575 H         1 UNK         0.0600 
    213 H213       -5.5599  -27.9405  -50.0640 H         1 UNK         0.0600 
    214 H214       -3.8942  -28.4301  -50.3231 H         1 UNK         0.0600 
    215 H215       -3.6008  -24.0280  -48.8161 H         1 UNK         0.3000 
    216 H216       -4.5162  -22.0190  -48.6673 H         1 UNK         0.0600 
    217 H217       -6.0896  -23.1161  -47.0966 H         1 UNK         0.0600 
    218 H218       -7.2125  -23.4401  -48.4167 H         1 UNK         0.0600 
    219 H219       -6.8586  -21.7852  -47.9440 H         1 UNK         0.0600 
    220 H220       -3.7282  -22.3867  -51.0820 H         1 UNK         0.3000 
    221 H221       -5.6400  -22.2113  -53.1895 H         1 UNK         0.0600 
    222 H222       -2.6291  -21.6587  -53.1413 H         1 UNK         0.0600 
    223 H223       -3.4011  -23.2091  -53.4717 H         1 UNK         0.0600 
    224 H224       -3.5955  -21.8810  -54.5932 H         1 UNK         0.0600 
    225 H225       -5.6743  -19.9198  -51.0940 H         1 UNK         0.3000 
    226 H226       -4.7744  -17.5056  -52.2373 H         1 UNK         0.0600 
    227 H227       -5.3337  -17.7266  -49.8408 H         1 UNK         0.0600 
    228 H228       -6.3056  -16.4502  -50.5485 H         1 UNK         0.0600 
    229 H229       -7.0292  -18.0212  -50.2256 H         1 UNK         0.0600 
    230 H230       -7.7775  -19.2762  -52.7713 H         1 UNK         0.3000 
    231 H231       -9.2415  -17.2324  -54.1397 H         1 UNK         0.0600 
    232 H232      -10.6621  -19.1568  -54.8669 H         1 UNK         0.0600 
    233 H233      -10.3204  -19.2353  -53.1461 H         1 UNK         0.0600 
    234 H234       -9.4569  -20.2896  -54.2666 H         1 UNK         0.0600 
    235 H235       -6.6342  -19.3547  -55.1742 H         1 UNK         0.3000 
    236 H236       -7.0904  -18.8030  -58.0575 H         1 UNK         0.0600 
    237 H237       -6.5170  -21.1352  -57.4078 H         1 UNK         0.0600 
    238 H238       -5.2466  -20.4175  -58.3867 H         1 UNK         0.0600 
    239 H239       -5.0259  -20.5788  -56.6504 H         1 UNK         0.0600 
    240 H240       -4.6969  -18.3094  -55.4132 H         1 UNK         0.3000 
    241 H241       -2.8866  -16.7767  -56.9963 H         1 UNK         0.0600 
    242 H242       -5.4487  -13.9597  -55.4749 H         1 UNK         0.3800 
    243 H243       -5.7099  -15.6256  -55.0287 H         1 UNK         0.3800 
    244 H244       -3.0935  -16.9506  -53.9549 H         1 UNK         0.0800 
    245 H245       -1.7590  -16.2458  -54.8363 H         1 UNK         0.0800 
    246 H246        0.2998  -19.3328  -53.9874 H         1 UNK         0.0800 
    247 H247        0.3856  -17.6702  -54.5170 H         1 UNK         0.0800 
@<TRIPOS>BOND
     1    1    2 1    
     2    1  127 1    
     3    1  128 1    
     4    1  129 1    
     5    2    3 2    
     6    2    4 am   BACKBONE|DICT|INTERRES
     7    4    5 1    
     8    4  130 1    
     9    5    6 1    
    10    5   65 1    
    11    5  131 1    
    12    6    7 1    
    13    6  132 1    
    14    6  133 1    
    15    7    8 1    
    16    8    9 1    
    17    8  134 1    
    18    8  135 1    
    19    9   10 ar   
    20    9   14 ar   
    21   10   11 ar   
    22   10  136 1    
    23   11   12 ar   
    24   11  126 1    
    25   12   13 ar   
    26   12  137 1    
    27   13   14 ar   
    28   13   15 1    
    29   14  138 1    
    30   15   16 1    
    31   15  139 1    
    32   15  140 1    
    33   16   17 1    
    34   17   18 1    
    35   17  141 1    
    36   17  142 1    
    37   18   19 1    
    38   18   67 1    
    39   18  143 1    
    40   19   20 am   BACKBONE|DICT|INTERRES
    41   19  144 1    
    42   20   21 2    
    43   20   22 1    
    44   22   23 1    
    45   22   24 1    
    46   22  145 1    
    47   23  146 1    
    48   23  147 1    
    49   23  148 1    
    50   24   25 am   BACKBONE|DICT|INTERRES
    51   24  149 1    
    52   25   26 2    
    53   25   27 1    
    54   27   28 1    
    55   27   29 1    
    56   27  150 1    
    57   28  151 1    
    58   28  152 1    
    59   28  153 1    
    60   29   30 am   BACKBONE|DICT|INTERRES
    61   29  154 1    
    62   30   31 2    
    63   30   32 1    
    64   32   33 1    
    65   32   34 1    
    66   32  155 1    
    67   33  156 1    
    68   33  157 1    
    69   33  158 1    
    70   34   35 am   BACKBONE|DICT|INTERRES
    71   34  159 1    
    72   35   36 2    
    73   35   37 1    
    74   37   38 1    
    75   37   39 1    
    76   37  160 1    
    77   38  161 1    
    78   38  162 1    
    79   38  163 1    
    80   39   40 am   BACKBONE|DICT|INTERRES
    81   39  164 1    
    82   40   41 2    
    83   40   42 1    
    84   42   43 1    
    85   42   44 1    
    86   42  165 1    
    87   43  166 1    
    88   43  167 1    
    89   43  168 1    
    90   44   45 am   BACKBONE|DICT|INTERRES
    91   44  169 1    
    92   45   46 2    
    93   45   47 1    
    94   47   48 1    
    95   47   49 1    
    96   47  170 1    
    97   48  171 1    
    98   48  172 1    
    99   48  173 1    
   100   49   50 am   BACKBONE|DICT|INTERRES
   101   49  174 1    
   102   50   51 2    
   103   50   52 1    
   104   52   53 1    
   105   52   54 1    
   106   52  175 1    
   107   53  176 1    
   108   53  177 1    
   109   53  178 1    
   110   54   55 am   BACKBONE|DICT|INTERRES
   111   54  179 1    
   112   55   56 2    
   113   55   57 1    
   114   57   58 1    
   115   57   59 1    
   116   57  180 1    
   117   58  181 1    
   118   58  182 1    
   119   58  183 1    
   120   59   60 am   BACKBONE|DICT|INTERRES
   121   59  184 1    
   122   60   61 2    
   123   60   62 1    
   124   62   63 1    
   125   62   64 1    
   126   62  185 1    
   127   63  186 1    
   128   63  187 1    
   129   63  188 1    
   130   64   65 am   BACKBONE|DICT|INTERRES
   131   64  189 1    
   132   65   66 2    
   133   67   68 2    
   134   67   69 am   BACKBONE|DICT|INTERRES
   135   69   70 1    
   136   69  190 1    
   137   70   71 1    
   138   70   72 1    
   139   70  191 1    
   140   71  192 1    
   141   71  193 1    
   142   71  194 1    
   143   72   73 2    
   144   72   74 am   BACKBONE|DICT|INTERRES
   145   74   75 1    
   146   74  195 1    
   147   75   76 1    
   148   75   77 1    
   149   75  196 1    
   150   76  197 1    
   151   76  198 1    
   152   76  199 1    
   153   77   78 2    
   154   77   79 am   BACKBONE|DICT|INTERRES
   155   79   80 1    
   156   79  200 1    
   157   80   81 1    
   158   80   82 1    
   159   80  201 1    
   160   81  202 1    
   161   81  203 1    
   162   81  204 1    
   163   82   83 2    
   164   82   84 am   BACKBONE|DICT|INTERRES
   165   84   85 1    
   166   84  205 1    
   167   85   86 1    
   168   85   87 1    
   169   85  206 1    
   170   86  207 1    
   171   86  208 1    
   172   86  209 1    
   173   87   88 2    
   174   87   89 am   BACKBONE|DICT|INTERRES
   175   89   90 1    
   176   89  210 1    
   177   90   91 1    
   178   90   92 1    
   179   90  211 1    
   180   91  212 1    
   181   91  213 1    
   182   91  214 1    
   183   92   93 2    
   184   92   94 am   BACKBONE|DICT|INTERRES
   185   94   95 1    
   186   94  215 1    
   187   95   96 1    
   188   95   97 1    
   189   95  216 1    
   190   96  217 1    
   191   96  218 1    
   192   96  219 1    
   193   97   98 2    
   194   97   99 am   BACKBONE|DICT|INTERRES
   195   99  100 1    
   196   99  220 1    
   197  100  101 1    
   198  100  102 1    
   199  100  221 1    
   200  101  222 1    
   201  101  223 1    
   202  101  224 1    
   203  102  103 2    
   204  102  104 am   BACKBONE|DICT|INTERRES
   205  104  105 1    
   206  104  225 1    
   207  105  106 1    
   208  105  107 1    
   209  105  226 1    
   210  106  227 1    
   211  106  228 1    
   212  106  229 1    
   213  107  108 2    
   214  107  109 am   BACKBONE|DICT|INTERRES
   215  109  110 1    
   216  109  230 1    
   217  110  111 1    
   218  110  112 1    
   219  110  231 1    
   220  111  232 1    
   221  111  233 1    
   222  111  234 1    
   223  112  113 2    
   224  112  114 am   BACKBONE|DICT|INTERRES
   225  114  115 1    
   226  114  235 1    
   227  115  116 1    
   228  115  117 1    
   229  115  236 1    
   230  116  237 1    
   231  116  238 1    
   232  116  239 1    
   233  117  118 2    
   234  117  119 am   BACKBONE|DICT|INTERRES
   235  119  120 1    
   236  119  240 1    
   237  120  121 1    
   238  120  124 1    
   239  120  241 1    
   240  121  122 am   BACKBONE|DICT|INTERRES
   241  121  123 2    
   242  122  242 1    
   243  122  243 1    
   244  124  125 1    
   245  124  244 1    
   246  124  245 1    
   247  125  126 1    
   248  126  246 1    
   249  126  247 1    
@<TRIPOS>SUBSTRUCTURE
     1 UNK         1 GROUP             0       ****    0 ROOT    
