@<TRIPOS>MOLECULE
3R540
247   249    1
SMALL
USER_CHARGES


@<TRIPOS>ATOM
      1 CA          3.0778   -7.3789  -45.8397 C.3       0 UNK        -0.1800 
      2 C           2.7693   -8.8171  -45.4524 C.2       0 UNK         0.5000 
      3 O           3.6898   -9.6136  -45.2706 O.2       0 UNK        -0.5000 
      4 N           1.4809   -9.1530  -45.3005 N.am      1 UNK        -0.5000 
      5 CA          0.9891  -10.4991  -44.9674 C.3       1 UNK         0.1400 
      6 C6         -0.5511  -10.5953  -45.1195 C.3       23 UNK        -0.0398 
      7 S7         -1.0775  -12.2512  -45.6729 S.3       23 UNK        -0.2404 
      8 C8         -1.9460  -11.8694  -47.2270 C.3       23 UNK        -0.0205 
      9 C9         -2.3663  -13.1384  -47.9545 C.ar      23 UNK        -0.0193 
     10 C10        -1.8624  -13.4251  -49.2284 C.ar      23 UNK        -0.1150 
     11 C11        -2.2285  -14.6001  -49.8942 C.ar      23 UNK        -0.0193 
     12 C12        -3.1096  -15.4824  -49.2624 C.ar      23 UNK        -0.1150 
     13 C13        -3.6038  -15.2266  -47.9820 C.ar      23 UNK        -0.0193 
     14 C14        -3.2475  -14.0370  -47.3441 C.ar      23 UNK        -0.1150 
     15 C15        -4.4194  -16.2816  -47.2420 C.3       23 UNK        -0.0205 
     16 S16        -5.6618  -17.1171  -48.2807 S.3       23 UNK        -0.2404 
     17 C17        -5.9802  -18.6263  -47.3060 C.3       23 UNK        -0.0398 
     18 CA         -5.3473  -19.8883  -47.9481 C.3       11 UNK         0.1400 
     19 N          -3.8836  -19.8939  -47.8494 N.am      11 UNK        -0.5000 
     20 C          -3.0851  -20.6914  -48.5699 C.2       10 UNK         0.5000 
     21 O          -3.4978  -21.4033  -49.4845 O.2       10 UNK        -0.5000 
     22 CA         -1.5883  -20.7458  -48.2021 C.3       10 UNK         0.1400 
     23 CB         -0.7357  -20.1359  -49.3268 C.3       10 UNK        -0.1800 
     24 N          -1.2119  -20.1401  -46.9159 N.am      10 UNK        -0.5000 
     25 C          -1.6406  -20.5272  -45.7048 C.2       9 UNK         0.5000 
     26 O          -2.5428  -21.3479  -45.5362 O.2       9 UNK        -0.5000 
     27 CA         -0.9647  -19.8952  -44.4724 C.3       9 UNK         0.1400 
     28 CB          0.3141  -20.6618  -44.1043 C.3       9 UNK        -0.1800 
     29 N          -0.6317  -18.4865  -44.6577 N.am      9 UNK        -0.5000 
     30 C          -1.5255  -17.4906  -44.7020 C.2       8 UNK         0.5000 
     31 O          -2.7343  -17.6486  -44.5285 O.2       8 UNK        -0.5000 
     32 CA         -0.9747  -16.0862  -45.0222 C.3       8 UNK         0.1400 
     33 CB         -0.4956  -15.3952  -43.7368 C.3       8 UNK        -0.1800 
     34 N           0.1103  -16.0963  -46.0091 N.am      8 UNK        -0.5000 
     35 C           0.0141  -16.6090  -47.2460 C.2       7 UNK         0.5000 
     36 O          -0.9984  -17.1440  -47.6890 O.2       7 UNK        -0.5000 
     37 CA          1.2922  -16.6074  -48.0972 C.3       7 UNK         0.1400 
     38 CB          1.5595  -15.2212  -48.7054 C.3       7 UNK        -0.1800 
     39 N           2.4416  -17.0453  -47.3055 N.am      7 UNK        -0.5000 
     40 C           2.6434  -18.3137  -46.9170 C.2       6 UNK         0.5000 
     41 O           1.9202  -19.2526  -47.2481 O.2       6 UNK        -0.5000 
     42 CA          3.8279  -18.5749  -45.9672 C.3       6 UNK         0.1400 
     43 CB          5.1230  -18.7920  -46.7636 C.3       6 UNK        -0.1800 
     44 N           4.0291  -17.4936  -45.0023 N.am      6 UNK        -0.5000 
     45 C           3.1621  -17.1701  -44.0322 C.2       5 UNK         0.5000 
     46 O           2.1305  -17.8008  -43.8045 O.2       5 UNK        -0.5000 
     47 CA          3.4771  -15.9039  -43.2110 C.3       5 UNK         0.1400 
     48 CB          4.2639  -16.2622  -41.9424 C.3       5 UNK        -0.1800 
     49 N           4.2135  -14.8825  -43.9600 N.am      5 UNK        -0.5000 
     50 C           3.7807  -14.2724  -45.0706 C.2       4 UNK         0.5000 
     51 O           2.7084  -14.5430  -45.6139 O.2       4 UNK        -0.5000 
     52 CA          4.7183  -13.2054  -45.6729 C.3       4 UNK         0.1400 
     53 CB          4.1761  -12.6096  -46.9841 C.3       4 UNK        -0.1800 
     54 N           4.9822  -12.1187  -44.7299 N.am      4 UNK        -0.5000 
     55 C           5.8369  -12.1669  -43.6989 C.2       3 UNK         0.5000 
     56 O           6.5250  -13.1529  -43.4301 O.2       3 UNK        -0.5000 
     57 CA          5.9010  -10.9233  -42.7986 C.3       3 UNK         0.1400 
     58 CB          6.7092   -9.7998  -43.4668 C.3       3 UNK        -0.1800 
     59 N           4.5552  -10.4434  -42.4893 N.am      3 UNK        -0.5000 
     60 C           3.8161  -10.8763  -41.4578 C.2       2 UNK         0.5000 
     61 O           4.2276  -11.6622  -40.6036 O.2       2 UNK        -0.5000 
     62 CA          2.3693  -10.3499  -41.3626 C.3       2 UNK         0.1400 
     63 CB          2.3142   -9.0789  -40.5014 C.3       2 UNK        -0.1800 
     64 N           1.7757  -10.0671  -42.6704 N.am      2 UNK        -0.5000 
     65 C           1.4603  -11.0009  -43.5803 C.2       1 UNK         0.5000 
     66 O           1.5625  -12.2082  -43.3680 O.2       1 UNK        -0.5000 
     67 C          -5.9900  -21.1710  -47.3655 C.2       11 UNK         0.5000 
     68 O          -7.1458  -21.4410  -47.6946 O.2       11 UNK        -0.5000 
     69 N          -5.2718  -21.9315  -46.5213 N.am      12 UNK        -0.5000 
     70 CA         -5.8040  -23.1251  -45.8566 C.3       12 UNK         0.1400 
     71 CB         -6.3740  -22.7378  -44.4821 C.3       12 UNK        -0.1800 
     72 C          -4.7806  -24.2635  -45.7187 C.2       12 UNK         0.5000 
     73 O          -5.1506  -25.4228  -45.9157 O.2       12 UNK        -0.5000 
     74 N          -3.5233  -23.9413  -45.3877 N.am      13 UNK        -0.5000 
     75 CA         -2.4561  -24.9132  -45.1368 C.3       13 UNK         0.1400 
     76 CB         -1.2175  -24.1832  -44.6007 C.3       13 UNK        -0.1800 
     77 C          -2.0914  -25.7225  -46.3913 C.2       13 UNK         0.5000 
     78 O          -2.1123  -25.1750  -47.4954 O.2       13 UNK        -0.5000 
     79 N          -1.7666  -27.0078  -46.1898 N.am      14 UNK        -0.5000 
     80 CA         -1.4317  -27.9992  -47.2206 C.3       14 UNK         0.1400 
     81 CB         -0.0693  -27.6698  -47.8670 C.3       14 UNK        -0.1800 
     82 C          -2.5622  -28.1779  -48.2565 C.2       14 UNK         0.5000 
     83 O          -2.2960  -28.2265  -49.4581 O.2       14 UNK        -0.5000 
     84 N          -3.8102  -28.2258  -47.7625 N.am      15 UNK        -0.5000 
     85 CA         -5.0607  -28.2599  -48.5314 C.3       15 UNK         0.1400 
     86 CB         -5.2044  -29.5972  -49.2887 C.3       15 UNK        -0.1800 
     87 C          -5.1949  -27.0279  -49.4494 C.2       15 UNK         0.5000 
     88 O          -5.4215  -27.1691  -50.6519 O.2       15 UNK        -0.5000 
     89 N          -4.9930  -25.8425  -48.8556 N.am      16 UNK        -0.5000 
     90 CA         -4.9180  -24.5290  -49.5026 C.3       16 UNK         0.1400 
     91 CB         -6.3112  -24.0907  -49.9972 C.3       16 UNK        -0.1800 
     92 C          -3.8414  -24.4950  -50.6052 C.2       16 UNK         0.5000 
     93 O          -4.1443  -24.1858  -51.7580 O.2       16 UNK        -0.5000 
     94 N          -2.6108  -24.8706  -50.2290 N.am      17 UNK        -0.5000 
     95 CA         -1.4194  -24.9790  -51.0749 C.3       17 UNK         0.1400 
     96 CB         -0.9140  -23.5714  -51.4528 C.3       17 UNK        -0.1800 
     97 C          -1.6430  -25.8938  -52.2979 C.2       17 UNK         0.5000 
     98 O          -1.3927  -25.4834  -53.4312 O.2       17 UNK        -0.5000 
     99 N          -2.1593  -27.1048  -52.0427 N.am      18 UNK        -0.5000 
    100 CA        -2.5803  -28.1103  -53.0249 C.3       18 UNK         0.1400 
    101 CB        -1.3577  -28.7086  -53.7510 C.3       18 UNK        -0.1800 
    102 C         -3.6614  -27.5733  -53.9887 C.2       18 UNK         0.5000 
    103 O         -3.5617  -27.7512  -55.2041 O.2       18 UNK        -0.5000 
    104 N         -4.6646  -26.9012  -53.4082 N.am      19 UNK        -0.5000 
    105 CA        -5.8088  -26.2433  -54.0444 C.3       19 UNK         0.1400 
    106 CB        -6.7009  -27.2720  -54.7700 C.3       19 UNK        -0.1800 
    107 C         -5.4549  -25.0313  -54.9356 C.2       19 UNK         0.5000 
    108 O         -6.3134  -24.5763  -55.6940 O.2       19 UNK        -0.5000 
    109 N         -4.2288  -24.4992  -54.8237 N.am      20 UNK        -0.5000 
    110 CA        -3.8073  -23.2682  -55.4980 C.3       20 UNK         0.1400 
    111 CB        -2.2742  -23.2004  -55.5437 C.3       20 UNK        -0.1800 
    112 C         -4.3742  -22.0057  -54.8225 C.2       20 UNK         0.5000 
    113 O         -4.5605  -20.9926  -55.4980 O.2       20 UNK        -0.5000 
    114 N         -4.6209  -22.0849  -53.5056 N.am      21 UNK        -0.5000 
    115 CA        -5.2247  -21.0717  -52.6348 C.3       21 UNK         0.1400 
    116 CB        -6.7374  -20.9741  -52.9155 C.3       21 UNK        -0.1800 
    117 C         -4.5142  -19.7032  -52.6756 C.2       21 UNK         0.5000 
    118 O         -5.1752  -18.6675  -52.5840 O.2       21 UNK        -0.5000 
    119 N         -3.1817  -19.7268  -52.8332 N.am      22 UNK        -0.5000 
    120 CA        -2.3161  -18.5460  -53.0066 C.3       22 UNK         0.1400 
    121 C         -2.4717  -17.8323  -54.3896 C.2       22 UNK         0.5000 
    122 N         -3.1435  -18.4177  -55.3752 N.am      22 UNK        -0.7600 
    123 O         -1.9512  -16.7399  -54.5955 O.2       22 UNK        -0.5000 
    124 C124       -2.4270  -17.5812  -51.7936 C.3       23 UNK        -0.0398 
    125 S125       -0.9426  -16.5711  -51.4526 S.3       23 UNK        -0.2404 
    126 C126       -1.6712  -14.9000  -51.2871 C.3       23 UNK        -0.0205 
    127 H127        2.1706   -6.7845  -45.9497 H         1 UNK         0.0600 
    128 H128        3.6181   -7.3550  -46.7860 H         1 UNK         0.0600 
    129 H129        3.7019   -6.9119  -45.0779 H         1 UNK         0.0600 
    130 H130        0.7719   -8.4488  -45.4490 H         1 UNK         0.3000 
    131 H131        1.4429  -11.1651  -45.7032 H         1 UNK         0.0600 
    132 H132       -1.0668  -10.3450  -44.1905 H         1 UNK         0.0800 
    133 H133       -0.9046   -9.8680  -45.8516 H         1 UNK         0.0800 
    134 H134       -2.8303  -11.2682  -47.0116 H         1 UNK         0.0800 
    135 H135       -1.2974  -11.2617  -47.8599 H         1 UNK         0.0800 
    136 H136       -1.1779  -12.7343  -49.7000 H         1 UNK         0.1150 
    137 H137       -3.3853  -16.4064  -49.7366 H         1 UNK         0.1150 
    138 H138       -3.6138  -13.8299  -46.3484 H         1 UNK         0.1150 
    139 H139       -3.7163  -17.0272  -46.8731 H         1 UNK         0.0800 
    140 H140       -4.9139  -15.8527  -46.3692 H         1 UNK         0.0800 
    141 H141       -7.0658  -18.7263  -47.2465 H         1 UNK         0.0800 
    142 H142       -5.6357  -18.4969  -46.2783 H         1 UNK         0.0800 
    143 H143       -5.6050  -19.8823  -49.0100 H         1 UNK         0.0600 
    144 H144       -3.4671  -19.3301  -47.1228 H         1 UNK         0.3000 
    145 H145       -1.3355  -21.8061  -48.1349 H         1 UNK         0.0600 
    146 H146        0.3256  -20.3199  -49.1624 H         1 UNK         0.0600 
    147 H147       -0.9904  -20.5654  -50.2964 H         1 UNK         0.0600 
    148 H148       -0.8816  -19.0598  -49.4049 H         1 UNK         0.0600 
    149 H149       -0.5003  -19.4219  -46.9626 H         1 UNK         0.3000 
    150 H150       -1.6606  -19.9745  -43.6346 H         1 UNK         0.0600 
    151 H151        0.1011  -21.7102  -43.8999 H         1 UNK         0.0600 
    152 H152        0.7767  -20.2476  -43.2082 H         1 UNK         0.0600 
    153 H153        1.0515  -20.6248  -44.9071 H         1 UNK         0.0600 
    154 H154        0.3533  -18.2546  -44.7290 H         1 UNK         0.3000 
    155 H155       -1.7880  -15.4957  -45.4445 H         1 UNK         0.0600 
    156 H156       -1.3338  -15.2045  -43.0660 H         1 UNK         0.0600 
    157 H157       -0.0220  -14.4369  -43.9483 H         1 UNK         0.0600 
    158 H158        0.2224  -16.0074  -43.1926 H         1 UNK         0.0600 
    159 H159        0.9825  -15.6541  -45.7384 H         1 UNK         0.3000 
    160 H160        1.1522  -17.3117  -48.9204 H         1 UNK         0.0600 
    161 H161        1.6176  -14.4416  -47.9465 H         1 UNK         0.0600 
    162 H162        0.7574  -14.9423  -49.3882 H         1 UNK         0.0600 
    163 H163        2.4887  -15.2098  -49.2748 H         1 UNK         0.0600 
    164 H164        3.0234  -16.3148  -46.9187 H         1 UNK         0.3000 
    165 H165        3.6112  -19.4891  -45.4103 H         1 UNK         0.0600 
    166 H166        5.9520  -19.0529  -46.1054 H         1 UNK         0.0600 
    167 H167        5.0083  -19.6077  -47.4789 H         1 UNK         0.0600 
    168 H168        5.4063  -17.9007  -47.3248 H         1 UNK         0.0600 
    169 H169        4.8556  -16.9257  -45.1149 H         1 UNK         0.3000 
    170 H170        2.5263  -15.4615  -42.9089 H         1 UNK         0.0600 
    171 H171        3.7280  -17.0021  -41.3462 H         1 UNK         0.0600 
    172 H172        5.2437  -16.6778  -42.1806 H         1 UNK         0.0600 
    173 H173        4.4148  -15.3853  -41.3121 H         1 UNK         0.0600 
    174 H174        5.1010  -14.5771  -43.5743 H         1 UNK         0.3000 
    175 H175        5.6624  -13.7019  -45.9060 H         1 UNK         0.0600 
    176 H176        3.2194  -12.1100  -46.8362 H         1 UNK         0.0600 
    177 H177        4.8707  -11.8813  -47.4029 H         1 UNK         0.0600 
    178 H178        4.0284  -13.3863  -47.7352 H         1 UNK         0.0600 
    179 H179        4.4585  -11.2602  -44.8827 H         1 UNK         0.3000 
    180 H180        6.4146  -11.1994  -41.8751 H         1 UNK         0.0600 
    181 H181        6.2580   -9.4730  -44.4041 H         1 UNK         0.0600 
    182 H182        7.7240  -10.1313  -43.6900 H         1 UNK         0.0600 
    183 H183        6.7876   -8.9308  -42.8133 H         1 UNK         0.0600 
    184 H184        4.1235   -9.8451  -43.1821 H         1 UNK         0.3000 
    185 H185        1.7681  -11.1200  -40.8746 H         1 UNK         0.0600 
    186 H186        2.7278   -9.2621  -39.5088 H         1 UNK         0.0600 
    187 H187        2.8840   -8.2636  -40.9490 H         1 UNK         0.0600 
    188 H188        1.2876   -8.7378  -40.3663 H         1 UNK         0.0600 
    189 H189        1.6621   -9.0956  -42.9201 H         1 UNK         0.3000 
    190 H190       -4.3192  -21.6622  -46.2945 H         1 UNK         0.3000 
    191 H191       -6.6209  -23.5385  -46.4524 H         1 UNK         0.0600 
    192 H192       -7.1944  -22.0270  -44.5820 H         1 UNK         0.0600 
    193 H193       -6.7640  -23.6113  -43.9580 H         1 UNK         0.0600 
    194 H194       -5.6128  -22.2836  -43.8466 H         1 UNK         0.0600 
    195 H195       -3.2541  -22.9635  -45.3098 H         1 UNK         0.3000 
    196 H196       -2.8121  -25.5998  -44.3660 H         1 UNK         0.0600 
    197 H197       -0.4356  -24.8907  -44.3222 H         1 UNK         0.0600 
    198 H198       -1.4584  -23.5980  -43.7131 H         1 UNK         0.0600 
    199 H199       -0.7970  -23.5101  -45.3487 H         1 UNK         0.0600 
    200 H200       -1.7767  -27.3597  -45.2423 H         1 UNK         0.3000 
    201 H201       -1.3315  -28.9589  -46.7117 H         1 UNK         0.0600 
    202 H202        0.7127  -27.5830  -47.1128 H         1 UNK         0.0600 
    203 H203       -0.0993  -26.7344  -48.4256 H         1 UNK         0.0600 
    204 H204        0.2355  -28.4548  -48.5601 H         1 UNK         0.0600 
    205 H205       -3.9196  -28.1453  -46.7613 H         1 UNK         0.3000 
    206 H206       -5.8758  -28.1981  -47.8089 H         1 UNK         0.0600 
    207 H207       -5.1209  -30.4453  -48.6093 H         1 UNK         0.0600 
    208 H208       -6.1781  -29.6654  -49.7750 H         1 UNK         0.0600 
    209 H209       -4.4457  -29.7123  -50.0633 H         1 UNK         0.0600 
    210 H210       -4.8133  -25.8441  -47.8571 H         1 UNK         0.3000 
    211 H211       -4.5979  -23.8204  -48.7386 H         1 UNK         0.0600 
    212 H212       -6.6792  -24.7297  -50.8003 H         1 UNK         0.0600 
    213 H213       -6.2853  -23.0691  -50.3754 H         1 UNK         0.0600 
    214 H214       -7.0403  -24.1140  -49.1874 H         1 UNK         0.0600 
    215 H215       -2.4658  -25.0950  -49.2450 H         1 UNK         0.3000 
    216 H216       -0.6490  -25.4574  -50.4695 H         1 UNK         0.0600 
    217 H217        0.0030  -23.6265  -52.0403 H         1 UNK         0.0600 
    218 H218       -0.6926  -22.9872  -50.5602 H         1 UNK         0.0600 
    219 H219       -1.6492  -23.0195  -52.0390 H         1 UNK         0.0600 
    220 H220       -2.3132  -27.3671  -51.0700 H         1 UNK         0.3000 
    221 H221       -3.0508  -28.9127  -52.4546 H         1 UNK         0.0600 
    222 H222       -0.8548  -27.9703  -54.3762 H         1 UNK         0.0600 
    223 H223       -0.6295  -29.0975  -53.0393 H         1 UNK         0.0600 
    224 H224       -1.6542  -29.5360  -54.3965 H         1 UNK         0.0600 
    225 H225       -4.6654  -26.8375  -52.3928 H         1 UNK         0.3000 
    226 H226       -6.3936  -25.8330  -53.2200 H         1 UNK         0.0600 
    227 H227       -6.9562  -28.1040  -54.1136 H         1 UNK         0.0600 
    228 H228       -7.6383  -26.8191  -55.0944 H         1 UNK         0.0600 
    229 H229       -6.2127  -27.6791  -55.6557 H         1 UNK         0.0600 
    230 H230       -3.5764  -24.9113  -54.1679 H         1 UNK         0.3000 
    231 H231       -4.1736  -23.2911  -56.5265 H         1 UNK         0.0600 
    232 H232       -1.8454  -23.1054  -54.5460 H         1 UNK         0.0600 
    233 H233       -1.9401  -22.3402  -56.1252 H         1 UNK         0.0600 
    234 H234       -1.8519  -24.0921  -56.0074 H         1 UNK         0.0600 
    235 H235       -4.4017  -22.9610  -53.0311 H         1 UNK         0.3000 
    236 H236       -5.1024  -21.4371  -51.6157 H         1 UNK         0.0600 
    237 H237       -7.2134  -21.9522  -52.8438 H         1 UNK         0.0600 
    238 H238       -7.2305  -20.3217  -52.1940 H         1 UNK         0.0600 
    239 H239       -6.9360  -20.5762  -53.9112 H         1 UNK         0.0600 
    240 H240       -2.7294  -20.6256  -52.9128 H         1 UNK         0.3000 
    241 H241       -1.3027  -18.9481  -53.0118 H         1 UNK         0.0600 
    242 H242       -3.2214  -17.9441  -56.2609 H         1 UNK         0.3800 
    243 H243       -3.6019  -19.3154  -55.2515 H         1 UNK         0.3800 
    244 H244       -3.2989  -16.9375  -51.9157 H         1 UNK         0.0800 
    245 H245       -2.6097  -18.1620  -50.8885 H         1 UNK         0.0800 
    246 H246       -0.8911  -14.1792  -51.5358 H         1 UNK         0.0800 
    247 H247       -2.4561  -14.7586  -52.0310 H         1 UNK         0.0800 
@<TRIPOS>BOND
     1    1    2 1    
     2    1  127 1    
     3    1  128 1    
     4    1  129 1    
     5    2    3 2    
     6    2    4 am   BACKBONE|DICT|INTERRES
     7    4    5 1    
     8    4  130 1    
     9    5    6 1    
    10    5   65 1    
    11    5  131 1    
    12    6    7 1    
    13    6  132 1    
    14    6  133 1    
    15    7    8 1    
    16    8    9 1    
    17    8  134 1    
    18    8  135 1    
    19    9   10 ar   
    20    9   14 ar   
    21   10   11 ar   
    22   10  136 1    
    23   11   12 ar   
    24   11  126 1    
    25   12   13 ar   
    26   12  137 1    
    27   13   14 ar   
    28   13   15 1    
    29   14  138 1    
    30   15   16 1    
    31   15  139 1    
    32   15  140 1    
    33   16   17 1    
    34   17   18 1    
    35   17  141 1    
    36   17  142 1    
    37   18   19 1    
    38   18   67 1    
    39   18  143 1    
    40   19   20 am   BACKBONE|DICT|INTERRES
    41   19  144 1    
    42   20   21 2    
    43   20   22 1    
    44   22   23 1    
    45   22   24 1    
    46   22  145 1    
    47   23  146 1    
    48   23  147 1    
    49   23  148 1    
    50   24   25 am   BACKBONE|DICT|INTERRES
    51   24  149 1    
    52   25   26 2    
    53   25   27 1    
    54   27   28 1    
    55   27   29 1    
    56   27  150 1    
    57   28  151 1    
    58   28  152 1    
    59   28  153 1    
    60   29   30 am   BACKBONE|DICT|INTERRES
    61   29  154 1    
    62   30   31 2    
    63   30   32 1    
    64   32   33 1    
    65   32   34 1    
    66   32  155 1    
    67   33  156 1    
    68   33  157 1    
    69   33  158 1    
    70   34   35 am   BACKBONE|DICT|INTERRES
    71   34  159 1    
    72   35   36 2    
    73   35   37 1    
    74   37   38 1    
    75   37   39 1    
    76   37  160 1    
    77   38  161 1    
    78   38  162 1    
    79   38  163 1    
    80   39   40 am   BACKBONE|DICT|INTERRES
    81   39  164 1    
    82   40   41 2    
    83   40   42 1    
    84   42   43 1    
    85   42   44 1    
    86   42  165 1    
    87   43  166 1    
    88   43  167 1    
    89   43  168 1    
    90   44   45 am   BACKBONE|DICT|INTERRES
    91   44  169 1    
    92   45   46 2    
    93   45   47 1    
    94   47   48 1    
    95   47   49 1    
    96   47  170 1    
    97   48  171 1    
    98   48  172 1    
    99   48  173 1    
   100   49   50 am   BACKBONE|DICT|INTERRES
   101   49  174 1    
   102   50   51 2    
   103   50   52 1    
   104   52   53 1    
   105   52   54 1    
   106   52  175 1    
   107   53  176 1    
   108   53  177 1    
   109   53  178 1    
   110   54   55 am   BACKBONE|DICT|INTERRES
   111   54  179 1    
   112   55   56 2    
   113   55   57 1    
   114   57   58 1    
   115   57   59 1    
   116   57  180 1    
   117   58  181 1    
   118   58  182 1    
   119   58  183 1    
   120   59   60 am   BACKBONE|DICT|INTERRES
   121   59  184 1    
   122   60   61 2    
   123   60   62 1    
   124   62   63 1    
   125   62   64 1    
   126   62  185 1    
   127   63  186 1    
   128   63  187 1    
   129   63  188 1    
   130   64   65 am   BACKBONE|DICT|INTERRES
   131   64  189 1    
   132   65   66 2    
   133   67   68 2    
   134   67   69 am   BACKBONE|DICT|INTERRES
   135   69   70 1    
   136   69  190 1    
   137   70   71 1    
   138   70   72 1    
   139   70  191 1    
   140   71  192 1    
   141   71  193 1    
   142   71  194 1    
   143   72   73 2    
   144   72   74 am   BACKBONE|DICT|INTERRES
   145   74   75 1    
   146   74  195 1    
   147   75   76 1    
   148   75   77 1    
   149   75  196 1    
   150   76  197 1    
   151   76  198 1    
   152   76  199 1    
   153   77   78 2    
   154   77   79 am   BACKBONE|DICT|INTERRES
   155   79   80 1    
   156   79  200 1    
   157   80   81 1    
   158   80   82 1    
   159   80  201 1    
   160   81  202 1    
   161   81  203 1    
   162   81  204 1    
   163   82   83 2    
   164   82   84 am   BACKBONE|DICT|INTERRES
   165   84   85 1    
   166   84  205 1    
   167   85   86 1    
   168   85   87 1    
   169   85  206 1    
   170   86  207 1    
   171   86  208 1    
   172   86  209 1    
   173   87   88 2    
   174   87   89 am   BACKBONE|DICT|INTERRES
   175   89   90 1    
   176   89  210 1    
   177   90   91 1    
   178   90   92 1    
   179   90  211 1    
   180   91  212 1    
   181   91  213 1    
   182   91  214 1    
   183   92   93 2    
   184   92   94 am   BACKBONE|DICT|INTERRES
   185   94   95 1    
   186   94  215 1    
   187   95   96 1    
   188   95   97 1    
   189   95  216 1    
   190   96  217 1    
   191   96  218 1    
   192   96  219 1    
   193   97   98 2    
   194   97   99 am   BACKBONE|DICT|INTERRES
   195   99  100 1    
   196   99  220 1    
   197  100  101 1    
   198  100  102 1    
   199  100  221 1    
   200  101  222 1    
   201  101  223 1    
   202  101  224 1    
   203  102  103 2    
   204  102  104 am   BACKBONE|DICT|INTERRES
   205  104  105 1    
   206  104  225 1    
   207  105  106 1    
   208  105  107 1    
   209  105  226 1    
   210  106  227 1    
   211  106  228 1    
   212  106  229 1    
   213  107  108 2    
   214  107  109 am   BACKBONE|DICT|INTERRES
   215  109  110 1    
   216  109  230 1    
   217  110  111 1    
   218  110  112 1    
   219  110  231 1    
   220  111  232 1    
   221  111  233 1    
   222  111  234 1    
   223  112  113 2    
   224  112  114 am   BACKBONE|DICT|INTERRES
   225  114  115 1    
   226  114  235 1    
   227  115  116 1    
   228  115  117 1    
   229  115  236 1    
   230  116  237 1    
   231  116  238 1    
   232  116  239 1    
   233  117  118 2    
   234  117  119 am   BACKBONE|DICT|INTERRES
   235  119  120 1    
   236  119  240 1    
   237  120  121 1    
   238  120  124 1    
   239  120  241 1    
   240  121  122 am   BACKBONE|DICT|INTERRES
   241  121  123 2    
   242  122  242 1    
   243  122  243 1    
   244  124  125 1    
   245  124  244 1    
   246  124  245 1    
   247  125  126 1    
   248  126  246 1    
   249  126  247 1    
@<TRIPOS>SUBSTRUCTURE
     1 UNK         1 GROUP             0       ****    0 ROOT    
