@<TRIPOS>MOLECULE
3R540
247   249    1
SMALL
USER_CHARGES


@<TRIPOS>ATOM
      1 CA          5.9422  -14.1976  -45.8438 C.3       0 UNK        -0.1800 
      2 C           4.5143  -13.6744  -45.8589 C.2       0 UNK         0.5000 
      3 O           4.0785  -13.0607  -44.8862 O.2       0 UNK        -0.5000 
      4 N           3.7884  -13.9003  -46.9618 N.am      1 UNK        -0.5000 
      5 CA          2.3731  -13.5424  -47.1522 C.3       1 UNK         0.1400 
      6 C6          1.8361  -14.0352  -48.5173 C.3       23 UNK        -0.0398 
      7 S7          2.0083  -15.8362  -48.7325 S.3       23 UNK        -0.2404 
      8 C8          1.3821  -16.0364  -50.4296 C.3       23 UNK        -0.0205 
      9 C9          0.5103  -17.2750  -50.5325 C.ar      23 UNK        -0.0193 
     10 C10        -0.8697  -17.1763  -50.3400 C.ar      23 UNK        -0.1150 
     11 C11        -1.6788  -18.3153  -50.3905 C.ar      23 UNK        -0.0193 
     12 C12        -1.0897  -19.5607  -50.6242 C.ar      23 UNK        -0.1150 
     13 C13         0.2891  -19.6738  -50.8207 C.ar      23 UNK        -0.0193 
     14 C14         1.0828  -18.5229  -50.7908 C.ar      23 UNK        -0.1150 
     15 C15         0.9175  -21.0480  -51.0162 C.3       23 UNK        -0.0205 
     16 S16         2.2225  -21.4232  -49.7939 S.3       23 UNK        -0.2404 
     17 C17         1.4248  -21.0026  -48.2034 C.3       23 UNK        -0.0398 
     18 CA          0.9137  -22.2196  -47.4030 C.3       11 UNK         0.1400 
     19 N           0.5998  -21.8417  -46.0240 N.am      11 UNK        -0.5000 
     20 C           0.3085  -22.6993  -45.0381 C.2       10 UNK         0.5000 
     21 O           0.3161  -23.9213  -45.1724 O.2       10 UNK        -0.5000 
     22 CA         -0.0997  -22.0915  -43.6850 C.3       10 UNK         0.1400 
     23 CB          1.1412  -21.6902  -42.8743 C.3       10 UNK        -0.1800 
     24 N          -0.9952  -20.9420  -43.8274 N.am      10 UNK        -0.5000 
     25 C          -2.2251  -21.0012  -44.3593 C.2       9 UNK         0.5000 
     26 O          -2.7478  -22.0426  -44.7544 O.2       9 UNK        -0.5000 
     27 CA         -2.9823  -19.6709  -44.5224 C.3       9 UNK         0.1400 
     28 CB         -3.5763  -19.2078  -43.1841 C.3       9 UNK        -0.1800 
     29 N          -2.1452  -18.6103  -45.0814 N.am      9 UNK        -0.5000 
     30 C          -1.5730  -18.6481  -46.2932 C.2       8 UNK         0.5000 
     31 O          -1.7192  -19.5729  -47.0925 O.2       8 UNK        -0.5000 
     32 CA         -0.6313  -17.4817  -46.6385 C.3       8 UNK         0.1400 
     33 CB         -1.4223  -16.2255  -47.0391 C.3       8 UNK        -0.1800 
     34 N           0.2662  -17.1593  -45.5287 N.am      8 UNK        -0.5000 
     35 C           1.2116  -17.9814  -45.0521 C.2       7 UNK         0.5000 
     36 O           1.4593  -19.0902  -45.5241 O.2       7 UNK        -0.5000 
     37 CA          1.9698  -17.5048  -43.8015 C.3       7 UNK         0.1400 
     38 CB          3.0951  -16.5353  -44.1855 C.3       7 UNK        -0.1800 
     39 N           1.0809  -16.8640  -42.8319 N.am      7 UNK        -0.5000 
     40 C           0.1436  -17.5167  -42.1277 C.2       6 UNK         0.5000 
     41 O          -0.0376  -18.7312  -42.1965 O.2       6 UNK        -0.5000 
     42 CA         -0.7798  -16.6689  -41.2322 C.3       6 UNK         0.1400 
     43 CB         -0.1574  -16.4825  -39.8407 C.3       6 UNK        -0.1800 
     44 N          -1.0823  -15.3569  -41.8035 N.am      6 UNK        -0.5000 
     45 C          -1.6996  -15.1497  -42.9756 C.2       5 UNK         0.5000 
     46 O          -2.1574  -16.0579  -43.6682 O.2       5 UNK        -0.5000 
     47 CA         -1.7838  -13.6940  -43.4778 C.3       5 UNK         0.1400 
     48 CB         -3.1970  -13.1329  -43.2632 C.3       5 UNK        -0.1800 
     49 N          -0.8099  -12.8019  -42.8392 N.am      5 UNK        -0.5000 
     50 C           0.5166  -12.8685  -43.0145 C.2       4 UNK         0.5000 
     51 O           1.0699  -13.6816  -43.7569 O.2       4 UNK        -0.5000 
     52 CA          1.3587  -11.9336  -42.1402 C.3       4 UNK         0.1400 
     53 CB          1.8611  -12.6795  -40.8901 C.3       4 UNK        -0.1800 
     54 N           2.4906  -11.4124  -42.8988 N.am      4 UNK        -0.5000 
     55 C           3.1194  -10.2636  -42.6161 C.2       3 UNK         0.5000 
     56 O           2.8118   -9.5310  -41.6744 O.2       3 UNK        -0.5000 
     57 CA          4.2720   -9.8438  -43.5416 C.3       3 UNK         0.1400 
     58 CB          5.5798  -10.5480  -43.1455 C.3       3 UNK        -0.1800 
     59 N           3.9638  -10.1228  -44.9426 N.am      3 UNK        -0.5000 
     60 C           3.2936   -9.2875  -45.7492 C.2       2 UNK         0.5000 
     61 O           2.8864   -8.1801  -45.3954 O.2       2 UNK        -0.5000 
     62 CA          3.0448   -9.7465  -47.1997 C.3       2 UNK         0.1400 
     63 CB          4.0825   -9.1205  -48.1444 C.3       2 UNK        -0.1800 
     64 N           3.0842  -11.1999  -47.3546 N.am      2 UNK        -0.5000 
     65 C           2.0949  -12.0307  -46.9986 C.2       1 UNK         0.5000 
     66 O           1.0093  -11.6501  -46.5597 O.2       1 UNK        -0.5000 
     67 C          -0.2799  -22.9192  -48.0888 C.2       11 UNK         0.5000 
     68 O          -0.0947  -23.9776  -48.6900 O.2       11 UNK        -0.5000 
     69 N          -1.4887  -22.3563  -47.9429 N.am      12 UNK        -0.5000 
     70 CA         -2.7353  -22.9476  -48.4348 C.3       12 UNK         0.1400 
     71 CB         -3.8856  -21.9469  -48.2565 C.3       12 UNK        -0.1800 
     72 C          -3.0643  -24.2947  -47.7620 C.2       12 UNK         0.5000 
     73 O          -3.4781  -25.2299  -48.4467 O.2       12 UNK        -0.5000 
     74 N          -2.8342  -24.3915  -46.4446 N.am      13 UNK        -0.5000 
     75 CA         -2.9888  -25.6217  -45.6664 C.3       13 UNK         0.1400 
     76 CB         -2.8803  -25.3073  -44.1670 C.3       13 UNK        -0.1800 
     77 C          -1.9844  -26.7168  -46.0720 C.2       13 UNK         0.5000 
     78 O          -2.3734  -27.8802  -46.1735 O.2       13 UNK        -0.5000 
     79 N          -0.7270  -26.3270  -46.3265 N.am      14 UNK        -0.5000 
     80 CA          0.3390  -27.2056  -46.8128 C.3       14 UNK         0.1400 
     81 CB          1.6898  -26.4790  -46.7264 C.3       14 UNK        -0.1800 
     82 C           0.0823  -27.7138  -48.2431 C.2       14 UNK         0.5000 
     83 O           0.3271  -28.8884  -48.5218 O.2       14 UNK        -0.5000 
     84 N          -0.4337  -26.8334  -49.1128 N.am      15 UNK        -0.5000 
     85 CA         -0.8877  -27.1686  -50.4646 C.3       15 UNK         0.1400 
     86 CB         -1.1314  -25.8704  -51.2502 C.3       15 UNK        -0.1800 
     87 C          -2.1589  -28.0415  -50.4713 C.2       15 UNK         0.5000 
     88 O          -2.3660  -28.7998  -51.4192 O.2       15 UNK        -0.5000 
     89 N          -2.9768  -27.9054  -49.4170 N.am      16 UNK        -0.5000 
     90 CA         -4.2785  -28.5370  -49.1883 C.3       16 UNK         0.1400 
     91 CB         -4.1312  -30.0644  -49.0301 C.3       16 UNK        -0.1800 
     92 C          -5.3186  -28.1262  -50.2504 C.2       16 UNK         0.5000 
     93 O          -6.1324  -28.9486  -50.6763 O.2       16 UNK        -0.5000 
     94 N          -5.2613  -26.8571  -50.6692 N.am      17 UNK        -0.5000 
     95 CA         -6.0660  -26.2732  -51.7353 C.3       17 UNK         0.1400 
     96 CB         -5.5516  -26.7626  -53.1044 C.3       17 UNK        -0.1800 
     97 C          -5.9842  -24.7441  -51.6470 C.2       17 UNK         0.5000 
     98 O          -5.1132  -24.2080  -50.9558 O.2       17 UNK        -0.5000 
     99 N          -6.8607  -24.0614  -52.3936 N.am      18 UNK        -0.5000 
    100 CA        -6.8905  -22.6055  -52.5593 C.3       18 UNK         0.1400 
    101 CB        -8.2890  -22.1945  -53.0526 C.3       18 UNK        -0.1800 
    102 C         -5.7601  -22.1095  -53.4892 C.2       18 UNK         0.5000 
    103 O         -6.0236  -21.5102  -54.5347 O.2       18 UNK        -0.5000 
    104 N         -4.5155  -22.4008  -53.0927 N.am      19 UNK        -0.5000 
    105 CA        -3.2743  -22.0102  -53.7573 C.3       19 UNK         0.1400 
    106 CB        -2.0972  -22.6423  -52.9984 C.3       19 UNK        -0.1800 
    107 C         -3.1104  -20.4824  -53.8504 C.2       19 UNK         0.5000 
    108 O         -3.6961  -19.7525  -53.0497 O.2       19 UNK        -0.5000 
    109 N         -2.3371  -20.0342  -54.8503 N.am      20 UNK        -0.5000 
    110 CA        -2.0256  -18.6312  -55.1697 C.3       20 UNK         0.1400 
    111 CB        -1.1311  -18.0164  -54.0751 C.3       20 UNK        -0.1800 
    112 C         -3.2638  -17.7540  -55.4739 C.2       20 UNK         0.5000 
    113 O         -3.1773  -16.5272  -55.3994 O.2       20 UNK        -0.5000 
    114 N         -4.3864  -18.4029  -55.8208 N.am      21 UNK        -0.5000 
    115 CA        -5.7107  -17.8315  -56.0771 C.3       21 UNK         0.1400 
    116 CB        -5.6938  -16.9429  -57.3392 C.3       21 UNK        -0.1800 
    117 C         -6.3308  -17.1293  -54.8480 C.2       21 UNK         0.5000 
    118 O         -7.1012  -16.1813  -55.0132 O.2       21 UNK        -0.5000 
    119 N         -6.0107  -17.6121  -53.6378 N.am      22 UNK        -0.5000 
    120 CA        -6.5599  -17.1004  -52.3669 C.3       22 UNK         0.1400 
    121 C         -8.0649  -17.4264  -52.1218 C.2       22 UNK         0.5000 
    122 N         -8.7022  -18.2885  -52.9047 N.am      22 UNK        -0.7600 
    123 O         -8.6697  -16.8786  -51.2040 O.2       22 UNK        -0.5000 
    124 C124       -5.7140  -17.5367  -51.1440 C.3       23 UNK        -0.0398 
    125 S125       -3.9802  -16.9790  -51.2371 S.3       23 UNK        -0.2404 
    126 C126       -3.1824  -18.2214  -50.1675 C.3       23 UNK        -0.0205 
    127 H127        6.0671  -14.9139  -45.0318 H         1 UNK         0.0600 
    128 H128        6.6405  -13.3759  -45.6858 H         1 UNK         0.0600 
    129 H129        6.2028  -14.6932  -46.7791 H         1 UNK         0.0600 
    130 H130        4.2015  -14.4217  -47.7220 H         1 UNK         0.3000 
    131 H131        1.8081  -14.0475  -46.3663 H         1 UNK         0.0600 
    132 H132        0.7783  -13.7857  -48.6222 H         1 UNK         0.0800 
    133 H133        2.3560  -13.5363  -49.3375 H         1 UNK         0.0800 
    134 H134        0.8088  -15.1588  -50.7323 H         1 UNK         0.0800 
    135 H135        2.2240  -16.1059  -51.1198 H         1 UNK         0.0800 
    136 H136       -1.3151  -16.2118  -50.1424 H         1 UNK         0.1150 
    137 H137       -1.7084  -20.4459  -50.6373 H         1 UNK         0.1150 
    138 H138        2.1518  -18.6048  -50.9277 H         1 UNK         0.1150 
    139 H139        0.1601  -21.8311  -50.9607 H         1 UNK         0.0800 
    140 H140        1.3430  -21.1035  -52.0188 H         1 UNK         0.0800 
    141 H141        0.6311  -20.2674  -48.3309 H         1 UNK         0.0800 
    142 H142        2.1917  -20.4912  -47.6209 H         1 UNK         0.0800 
    143 H143        1.7266  -22.9470  -47.3502 H         1 UNK         0.0600 
    144 H144        0.6182  -20.8478  -45.8152 H         1 UNK         0.3000 
    145 H145       -0.6344  -22.8609  -43.1246 H         1 UNK         0.0600 
    146 H146        0.8659  -21.3524  -41.8752 H         1 UNK         0.0600 
    147 H147        1.8209  -22.5350  -42.7555 H         1 UNK         0.0600 
    148 H148        1.6962  -20.8863  -43.3584 H         1 UNK         0.0600 
    149 H149       -0.6504  -20.0535  -43.4754 H         1 UNK         0.3000 
    150 H150       -3.8059  -19.8415  -45.2187 H         1 UNK         0.0600 
    151 H151       -4.2421  -19.9659  -42.7702 H         1 UNK         0.0600 
    152 H152       -4.1578  -18.2937  -43.3060 H         1 UNK         0.0600 
    153 H153       -2.8001  -19.0133  -42.4441 H         1 UNK         0.0600 
    154 H154       -2.0048  -17.7858  -44.5041 H         1 UNK         0.3000 
    155 H155       -0.0217  -17.7906  -47.4900 H         1 UNK         0.0600 
    156 H156       -2.0221  -15.8369  -46.2180 H         1 UNK         0.0600 
    157 H157       -0.7565  -15.4297  -47.3711 H         1 UNK         0.0600 
    158 H158       -2.1075  -16.4382  -47.8581 H         1 UNK         0.0600 
    159 H159        0.1077  -16.2828  -45.0547 H         1 UNK         0.3000 
    160 H160        2.4207  -18.3793  -43.3278 H         1 UNK         0.0600 
    161 H161        2.6985  -15.6348  -44.6527 H         1 UNK         0.0600 
    162 H162        3.7854  -16.9954  -44.8936 H         1 UNK         0.0600 
    163 H163        3.6741  -16.2318  -43.3132 H         1 UNK         0.0600 
    164 H164        1.1429  -15.8576  -42.7557 H         1 UNK         0.3000 
    165 H165       -1.7216  -17.2092  -41.1185 H         1 UNK         0.0600 
    166 H166       -0.8356  -15.9512  -39.1727 H         1 UNK         0.0600 
    167 H167        0.0621  -17.4464  -39.3795 H         1 UNK         0.0600 
    168 H168        0.7766  -15.9209  -39.8884 H         1 UNK         0.0600 
    169 H169       -0.7538  -14.5528  -41.2913 H         1 UNK         0.3000 
    170 H170       -1.5789  -13.7077  -44.5505 H         1 UNK         0.0600 
    171 H171       -3.9443  -13.7596  -43.7521 H         1 UNK         0.0600 
    172 H172       -3.4538  -13.0814  -42.2044 H         1 UNK         0.0600 
    173 H173       -3.2917  -12.1310  -43.6823 H         1 UNK         0.0600 
    174 H174       -1.1866  -12.1148  -42.2017 H         1 UNK         0.3000 
    175 H175        0.7266  -11.0995  -41.8276 H         1 UNK         0.0600 
    176 H176        2.5149  -13.5110  -41.1570 H         1 UNK         0.0600 
    177 H177        2.4184  -12.0162  -40.2285 H         1 UNK         0.0600 
    178 H178        1.0298  -13.0856  -40.3127 H         1 UNK         0.0600 
    179 H179        2.8021  -11.9871  -43.6779 H         1 UNK         0.3000 
    180 H180        4.4281   -8.7700  -43.4160 H         1 UNK         0.0600 
    181 H181        5.4942  -11.6331  -43.2014 H         1 UNK         0.0600 
    182 H182        5.8592  -10.2969  -42.1217 H         1 UNK         0.0600 
    183 H183        6.4032  -10.2428  -43.7913 H         1 UNK         0.0600 
    184 H184        4.1902  -11.0537  -45.2717 H         1 UNK         0.3000 
    185 H185        2.0562   -9.3882  -47.4951 H         1 UNK         0.0600 
    186 H186        4.0635   -8.0317  -48.0795 H         1 UNK         0.0600 
    187 H187        5.0952   -9.4459  -47.9031 H         1 UNK         0.0600 
    188 H188        3.8819   -9.3859  -49.1826 H         1 UNK         0.0600 
    189 H189        3.9430  -11.5981  -47.7060 H         1 UNK         0.3000 
    190 H190       -1.5655  -21.4632  -47.4624 H         1 UNK         0.3000 
    191 H191       -2.6154  -23.1346  -49.5039 H         1 UNK         0.0600 
    192 H192       -4.0517  -21.7063  -47.2061 H         1 UNK         0.0600 
    193 H193       -4.8171  -22.3500  -48.6563 H         1 UNK         0.0600 
    194 H194       -3.6805  -21.0156  -48.7829 H         1 UNK         0.0600 
    195 H195       -2.5530  -23.5597  -45.9328 H         1 UNK         0.3000 
    196 H196       -3.9922  -26.0087  -45.8559 H         1 UNK         0.0600 
    197 H197       -3.0215  -26.2078  -43.5681 H         1 UNK         0.0600 
    198 H198       -3.6405  -24.5893  -43.8591 H         1 UNK         0.0600 
    199 H199       -1.9056  -24.8925  -43.9110 H         1 UNK         0.0600 
    200 H200       -0.4698  -25.3596  -46.1492 H         1 UNK         0.3000 
    201 H201        0.3813  -28.0758  -46.1545 H         1 UNK         0.0600 
    202 H202        1.9172  -26.1918  -45.6997 H         1 UNK         0.0600 
    203 H203        1.7016  -25.5753  -47.3363 H         1 UNK         0.0600 
    204 H204        2.5016  -27.1200  -47.0722 H         1 UNK         0.0600 
    205 H205       -0.5279  -25.8619  -48.8281 H         1 UNK         0.3000 
    206 H206       -0.0943  -27.7289  -50.9634 H         1 UNK         0.0600 
    207 H207       -0.2281  -25.2621  -51.3005 H         1 UNK         0.0600 
    208 H208       -1.4372  -26.0861  -52.2746 H         1 UNK         0.0600 
    209 H209       -1.9162  -25.2654  -50.7945 H         1 UNK         0.0600 
    210 H210       -2.7343  -27.1885  -48.7435 H         1 UNK         0.3000 
    211 H211       -4.6416  -28.1413  -48.2388 H         1 UNK         0.0600 
    212 H212       -3.8282  -30.5427  -49.9618 H         1 UNK         0.0600 
    213 H213       -5.0740  -30.5174  -48.7216 H         1 UNK         0.0600 
    214 H214       -3.3897  -30.3096  -48.2695 H         1 UNK         0.0600 
    215 H215       -4.6143  -26.2106  -50.2267 H         1 UNK         0.3000 
    216 H216       -7.1082  -26.5694  -51.6011 H         1 UNK         0.0600 
    217 H217       -4.5056  -26.4925  -53.2562 H         1 UNK         0.0600 
    218 H218       -6.1256  -26.3292  -53.9240 H         1 UNK         0.0600 
    219 H219       -5.6314  -27.8456  -53.1979 H         1 UNK         0.0600 
    220 H220       -7.5194  -24.5793  -52.9572 H         1 UNK         0.3000 
    221 H221       -6.7327  -22.1384  -51.5847 H         1 UNK         0.0600 
    222 H222       -9.0621  -22.5045  -52.3493 H         1 UNK         0.0600 
    223 H223       -8.5209  -22.6352  -54.0230 H         1 UNK         0.0600 
    224 H224       -8.3635  -21.1122  -53.1564 H         1 UNK         0.0600 
    225 H225       -4.4220  -22.9158  -52.2230 H         1 UNK         0.3000 
    226 H226       -3.2984  -22.4147  -54.7710 H         1 UNK         0.0600 
    227 H227       -2.1454  -23.7300  -53.0430 H         1 UNK         0.0600 
    228 H228       -1.1394  -22.3424  -53.4255 H         1 UNK         0.0600 
    229 H229       -2.0958  -22.3532  -51.9476 H         1 UNK         0.0600 
    230 H230       -1.9143  -20.7147  -55.4664 H         1 UNK         0.3000 
    231 H231       -1.4438  -18.6553  -56.0921 H         1 UNK         0.0600 
    232 H232       -1.6880  -17.8577  -53.1528 H         1 UNK         0.0600 
    233 H233       -0.7355  -17.0489  -54.3852 H         1 UNK         0.0600 
    234 H234       -0.2799  -18.6576  -53.8463 H         1 UNK         0.0600 
    235 H235       -4.3470  -19.4124  -55.8287 H         1 UNK         0.3000 
    236 H236       -6.3620  -18.6808  -56.2883 H         1 UNK         0.0600 
    237 H237       -6.7047  -16.6506  -57.6255 H         1 UNK         0.0600 
    238 H238       -5.1221  -16.0277  -57.1841 H         1 UNK         0.0600 
    239 H239       -5.2590  -17.4709  -58.1879 H         1 UNK         0.0600 
    240 H240       -5.3317  -18.3617  -53.5630 H         1 UNK         0.3000 
    241 H241       -6.5065  -16.0111  -52.4168 H         1 UNK         0.0600 
    242 H242       -9.6776  -18.4806  -52.7387 H         1 UNK         0.3800 
    243 H243       -8.2241  -18.7345  -53.6700 H         1 UNK         0.3800 
    244 H244       -5.7423  -18.6238  -51.0527 H         1 UNK         0.0800 
    245 H245       -6.1333  -17.1387  -50.2183 H         1 UNK         0.0800 
    246 H246       -3.3830  -17.9891  -49.1216 H         1 UNK         0.0800 
    247 H247       -3.6381  -19.1931  -50.3597 H         1 UNK         0.0800 
@<TRIPOS>BOND
     1    1    2 1    
     2    1  127 1    
     3    1  128 1    
     4    1  129 1    
     5    2    3 2    
     6    2    4 am   BACKBONE|DICT|INTERRES
     7    4    5 1    
     8    4  130 1    
     9    5    6 1    
    10    5   65 1    
    11    5  131 1    
    12    6    7 1    
    13    6  132 1    
    14    6  133 1    
    15    7    8 1    
    16    8    9 1    
    17    8  134 1    
    18    8  135 1    
    19    9   10 ar   
    20    9   14 ar   
    21   10   11 ar   
    22   10  136 1    
    23   11   12 ar   
    24   11  126 1    
    25   12   13 ar   
    26   12  137 1    
    27   13   14 ar   
    28   13   15 1    
    29   14  138 1    
    30   15   16 1    
    31   15  139 1    
    32   15  140 1    
    33   16   17 1    
    34   17   18 1    
    35   17  141 1    
    36   17  142 1    
    37   18   19 1    
    38   18   67 1    
    39   18  143 1    
    40   19   20 am   BACKBONE|DICT|INTERRES
    41   19  144 1    
    42   20   21 2    
    43   20   22 1    
    44   22   23 1    
    45   22   24 1    
    46   22  145 1    
    47   23  146 1    
    48   23  147 1    
    49   23  148 1    
    50   24   25 am   BACKBONE|DICT|INTERRES
    51   24  149 1    
    52   25   26 2    
    53   25   27 1    
    54   27   28 1    
    55   27   29 1    
    56   27  150 1    
    57   28  151 1    
    58   28  152 1    
    59   28  153 1    
    60   29   30 am   BACKBONE|DICT|INTERRES
    61   29  154 1    
    62   30   31 2    
    63   30   32 1    
    64   32   33 1    
    65   32   34 1    
    66   32  155 1    
    67   33  156 1    
    68   33  157 1    
    69   33  158 1    
    70   34   35 am   BACKBONE|DICT|INTERRES
    71   34  159 1    
    72   35   36 2    
    73   35   37 1    
    74   37   38 1    
    75   37   39 1    
    76   37  160 1    
    77   38  161 1    
    78   38  162 1    
    79   38  163 1    
    80   39   40 am   BACKBONE|DICT|INTERRES
    81   39  164 1    
    82   40   41 2    
    83   40   42 1    
    84   42   43 1    
    85   42   44 1    
    86   42  165 1    
    87   43  166 1    
    88   43  167 1    
    89   43  168 1    
    90   44   45 am   BACKBONE|DICT|INTERRES
    91   44  169 1    
    92   45   46 2    
    93   45   47 1    
    94   47   48 1    
    95   47   49 1    
    96   47  170 1    
    97   48  171 1    
    98   48  172 1    
    99   48  173 1    
   100   49   50 am   BACKBONE|DICT|INTERRES
   101   49  174 1    
   102   50   51 2    
   103   50   52 1    
   104   52   53 1    
   105   52   54 1    
   106   52  175 1    
   107   53  176 1    
   108   53  177 1    
   109   53  178 1    
   110   54   55 am   BACKBONE|DICT|INTERRES
   111   54  179 1    
   112   55   56 2    
   113   55   57 1    
   114   57   58 1    
   115   57   59 1    
   116   57  180 1    
   117   58  181 1    
   118   58  182 1    
   119   58  183 1    
   120   59   60 am   BACKBONE|DICT|INTERRES
   121   59  184 1    
   122   60   61 2    
   123   60   62 1    
   124   62   63 1    
   125   62   64 1    
   126   62  185 1    
   127   63  186 1    
   128   63  187 1    
   129   63  188 1    
   130   64   65 am   BACKBONE|DICT|INTERRES
   131   64  189 1    
   132   65   66 2    
   133   67   68 2    
   134   67   69 am   BACKBONE|DICT|INTERRES
   135   69   70 1    
   136   69  190 1    
   137   70   71 1    
   138   70   72 1    
   139   70  191 1    
   140   71  192 1    
   141   71  193 1    
   142   71  194 1    
   143   72   73 2    
   144   72   74 am   BACKBONE|DICT|INTERRES
   145   74   75 1    
   146   74  195 1    
   147   75   76 1    
   148   75   77 1    
   149   75  196 1    
   150   76  197 1    
   151   76  198 1    
   152   76  199 1    
   153   77   78 2    
   154   77   79 am   BACKBONE|DICT|INTERRES
   155   79   80 1    
   156   79  200 1    
   157   80   81 1    
   158   80   82 1    
   159   80  201 1    
   160   81  202 1    
   161   81  203 1    
   162   81  204 1    
   163   82   83 2    
   164   82   84 am   BACKBONE|DICT|INTERRES
   165   84   85 1    
   166   84  205 1    
   167   85   86 1    
   168   85   87 1    
   169   85  206 1    
   170   86  207 1    
   171   86  208 1    
   172   86  209 1    
   173   87   88 2    
   174   87   89 am   BACKBONE|DICT|INTERRES
   175   89   90 1    
   176   89  210 1    
   177   90   91 1    
   178   90   92 1    
   179   90  211 1    
   180   91  212 1    
   181   91  213 1    
   182   91  214 1    
   183   92   93 2    
   184   92   94 am   BACKBONE|DICT|INTERRES
   185   94   95 1    
   186   94  215 1    
   187   95   96 1    
   188   95   97 1    
   189   95  216 1    
   190   96  217 1    
   191   96  218 1    
   192   96  219 1    
   193   97   98 2    
   194   97   99 am   BACKBONE|DICT|INTERRES
   195   99  100 1    
   196   99  220 1    
   197  100  101 1    
   198  100  102 1    
   199  100  221 1    
   200  101  222 1    
   201  101  223 1    
   202  101  224 1    
   203  102  103 2    
   204  102  104 am   BACKBONE|DICT|INTERRES
   205  104  105 1    
   206  104  225 1    
   207  105  106 1    
   208  105  107 1    
   209  105  226 1    
   210  106  227 1    
   211  106  228 1    
   212  106  229 1    
   213  107  108 2    
   214  107  109 am   BACKBONE|DICT|INTERRES
   215  109  110 1    
   216  109  230 1    
   217  110  111 1    
   218  110  112 1    
   219  110  231 1    
   220  111  232 1    
   221  111  233 1    
   222  111  234 1    
   223  112  113 2    
   224  112  114 am   BACKBONE|DICT|INTERRES
   225  114  115 1    
   226  114  235 1    
   227  115  116 1    
   228  115  117 1    
   229  115  236 1    
   230  116  237 1    
   231  116  238 1    
   232  116  239 1    
   233  117  118 2    
   234  117  119 am   BACKBONE|DICT|INTERRES
   235  119  120 1    
   236  119  240 1    
   237  120  121 1    
   238  120  124 1    
   239  120  241 1    
   240  121  122 am   BACKBONE|DICT|INTERRES
   241  121  123 2    
   242  122  242 1    
   243  122  243 1    
   244  124  125 1    
   245  124  244 1    
   246  124  245 1    
   247  125  126 1    
   248  126  246 1    
   249  126  247 1    
@<TRIPOS>SUBSTRUCTURE
     1 UNK         1 GROUP             0       ****    0 ROOT    
