@<TRIPOS>MOLECULE
3R540
247   249    1
SMALL
USER_CHARGES


@<TRIPOS>ATOM
      1 CA          5.1844  -10.2953  -49.6968 C.3       0 UNK        -0.1800 
      2 C           4.3691  -11.5800  -49.6523 C.2       0 UNK         0.5000 
      3 O           4.9314  -12.6678  -49.7785 O.2       0 UNK        -0.5000 
      4 N           3.0498  -11.4597  -49.4738 N.am      1 UNK        -0.5000 
      5 CA          2.1095  -12.5770  -49.3896 C.3       1 UNK         0.1400 
      6 C6          1.7330  -13.1505  -50.7827 C.3       23 UNK        -0.0398 
      7 S7          1.1159  -14.8658  -50.6794 S.3       23 UNK        -0.2404 
      8 C8          2.5501  -15.7868  -51.3110 C.3       23 UNK        -0.0205 
      9 C9          2.2897  -17.2843  -51.2967 C.ar      23 UNK        -0.0193 
     10 C10         1.5087  -17.8685  -52.2977 C.ar      23 UNK        -0.1150 
     11 C11         1.2587  -19.2483  -52.3023 C.ar      23 UNK        -0.0193 
     12 C12         1.8162  -20.0356  -51.2888 C.ar      23 UNK        -0.1150 
     13 C13         2.6096  -19.4659  -50.2880 C.ar      23 UNK        -0.0193 
     14 C14         2.8386  -18.0878  -50.2952 C.ar      23 UNK        -0.1150 
     15 C15         3.2502  -20.3387  -49.2178 C.3       23 UNK        -0.0205 
     16 S16         2.5241  -20.0632  -47.5725 S.3       23 UNK        -0.2404 
     17 C17         0.8928  -20.8590  -47.7427 C.3       23 UNK        -0.0398 
     18 CA          0.8518  -22.2641  -47.0975 C.3       11 UNK         0.1400 
     19 N           1.0973  -22.2103  -45.6554 N.am      11 UNK        -0.5000 
     20 C           1.2784  -23.2744  -44.8627 C.2       10 UNK         0.5000 
     21 O           1.3236  -24.4348  -45.2773 O.2       10 UNK        -0.5000 
     22 CA          1.4439  -22.9764  -43.3590 C.3       10 UNK         0.1400 
     23 CB          1.8621  -24.2083  -42.5297 C.3       10 UNK        -0.1800 
     24 N           2.3407  -21.8463  -43.1070 N.am      10 UNK        -0.5000 
     25 C           3.6411  -21.7376  -43.4184 C.2       9 UNK         0.5000 
     26 O           4.2996  -22.6347  -43.9463 O.2       9 UNK        -0.5000 
     27 CA          4.3333  -20.3977  -43.0880 C.3       9 UNK         0.1400 
     28 CB          4.6409  -19.6205  -44.3770 C.3       9 UNK        -0.1800 
     29 N           3.5507  -19.5371  -42.1983 N.am      9 UNK        -0.5000 
     30 C           3.3731  -19.7396  -40.8860 C.2       8 UNK         0.5000 
     31 O           3.9222  -20.6414  -40.2523 O.2       8 UNK        -0.5000 
     32 CA          2.3798  -18.8018  -40.1727 C.3       8 UNK         0.1400 
     33 CB          3.0755  -17.5061  -39.7296 C.3       8 UNK        -0.1800 
     34 N           1.2091  -18.4779  -40.9944 N.am      8 UNK        -0.5000 
     35 C           0.2895  -19.3700  -41.3923 C.2       7 UNK         0.5000 
     36 O           0.3147  -20.5601  -41.0803 O.2       7 UNK        -0.5000 
     37 CA         -0.8192  -18.8667  -42.3332 C.3       7 UNK         0.1400 
     38 CB         -1.9247  -18.1493  -41.5455 C.3       7 UNK        -0.1800 
     39 N          -0.3047  -17.9900  -43.3851 N.am      7 UNK        -0.5000 
     40 C           0.5083  -18.3924  -44.3726 C.2       6 UNK         0.5000 
     41 O           0.8444  -19.5651  -44.5368 O.2       6 UNK        -0.5000 
     42 CA          1.0732  -17.3031  -45.3051 C.3       6 UNK         0.1400 
     43 CB          0.0945  -16.9710  -46.4407 C.3       6 UNK        -0.1800 
     44 N           1.4164  -16.0746  -44.5913 N.am      6 UNK        -0.5000 
     45 C           2.3717  -15.9789  -43.6573 C.2       5 UNK         0.5000 
     46 O           3.0929  -16.9148  -43.3161 O.2       5 UNK        -0.5000 
     47 CA          2.5059  -14.6223  -42.9478 C.3       5 UNK         0.1400 
     48 CB          3.2844  -13.6203  -43.8143 C.3       5 UNK        -0.1800 
     49 N           1.2007  -14.0655  -42.5921 N.am      5 UNK        -0.5000 
     50 C           0.3921  -14.5798  -41.6545 C.2       4 UNK         0.5000 
     51 O           0.6752  -15.5643  -40.9725 O.2       4 UNK        -0.5000 
     52 CA         -0.9781  -13.9017  -41.4758 C.3       4 UNK         0.1400 
     53 CB         -0.8592  -12.6702  -40.5657 C.3       4 UNK        -0.1800 
     54 N          -1.5817  -13.5084  -42.7496 N.am      4 UNK        -0.5000 
     55 C          -2.0060  -14.3721  -43.6826 C.2       3 UNK         0.5000 
     56 O          -1.9530  -15.5946  -43.5595 O.2       3 UNK        -0.5000 
     57 CA         -2.5281  -13.7655  -44.9972 C.3       3 UNK         0.1400 
     58 CB         -4.0047  -13.3653  -44.8610 C.3       3 UNK        -0.1800 
     59 N          -1.7481  -12.6128  -45.4592 N.am      3 UNK        -0.5000 
     60 C          -0.4455  -12.6574  -45.7659 C.2       2 UNK         0.5000 
     61 O           0.2585  -13.6591  -45.6178 O.2       2 UNK        -0.5000 
     62 CA          0.1913  -11.3610  -46.2956 C.3       2 UNK         0.1400 
     63 CB          0.8538  -10.5815  -45.1494 C.3       2 UNK        -0.1800 
     64 N           1.1961  -11.6646  -47.3146 N.am      2 UNK        -0.5000 
     65 C           0.9061  -12.1373  -48.5347 C.2       1 UNK         0.5000 
     66 O          -0.2405  -12.1921  -48.9834 O.2       1 UNK        -0.5000 
     67 C          -0.5036  -22.9343  -47.3951 C.2       11 UNK         0.5000 
     68 O          -1.4804  -22.6790  -46.6857 O.2       11 UNK        -0.5000 
     69 N          -0.5580  -23.7316  -48.4712 N.am      12 UNK        -0.5000 
     70 CA         -1.7498  -24.4696  -48.9040 C.3       12 UNK         0.1400 
     71 CB         -1.3954  -25.3540  -50.1074 C.3       12 UNK        -0.1800 
     72 C          -2.9560  -23.5734  -49.2397 C.2       12 UNK         0.5000 
     73 O          -4.0949  -24.0071  -49.0659 O.2       12 UNK        -0.5000 
     74 N          -2.6903  -22.3394  -49.6865 N.am      13 UNK        -0.5000 
     75 CA         -3.7125  -21.3372  -49.9769 C.3       13 UNK         0.1400 
     76 CB         -3.1268  -20.2694  -50.9113 C.3       13 UNK        -0.1800 
     77 C          -4.3045  -20.7037  -48.7061 C.2       13 UNK         0.5000 
     78 O          -5.4966  -20.3997  -48.6870 O.2       13 UNK        -0.5000 
     79 N          -3.4817  -20.5510  -47.6584 N.am      14 UNK        -0.5000 
     80 CA         -3.9033  -20.0558  -46.3455 C.3       14 UNK         0.1400 
     81 CB         -2.6828  -19.5379  -45.5728 C.3       14 UNK        -0.1800 
     82 C          -4.6426  -21.1394  -45.5428 C.2       14 UNK         0.5000 
     83 O          -5.6114  -20.8322  -44.8483 O.2       14 UNK        -0.5000 
     84 N          -4.1983  -22.3949  -45.6929 N.am      15 UNK        -0.5000 
     85 CA         -4.8471  -23.5902  -45.1506 C.3       15 UNK         0.1400 
     86 CB         -3.8554  -24.7614  -45.2323 C.3       15 UNK        -0.1800 
     87 C          -6.1634  -23.9543  -45.8713 C.2       15 UNK         0.5000 
     88 O          -6.9307  -24.7607  -45.3449 O.2       15 UNK        -0.5000 
     89 N          -6.3845  -23.3735  -47.0615 N.am      16 UNK        -0.5000 
     90 CA         -7.5011  -23.6022  -47.9860 C.3       16 UNK         0.1400 
     91 CB         -8.8429  -23.1727  -47.3576 C.3       16 UNK        -0.1800 
     92 C          -7.5284  -25.0366  -48.5578 C.2       16 UNK         0.5000 
     93 O          -8.5949  -25.5502  -48.9000 O.2       16 UNK        -0.5000 
     94 N          -6.3437  -25.6494  -48.6650 N.am      17 UNK        -0.5000 
     95 CA         -6.1195  -26.9607  -49.2656 C.3       17 UNK         0.1400 
     96 CB         -4.8631  -27.5854  -48.6390 C.3       17 UNK        -0.1800 
     97 C          -5.9691  -26.8583  -50.7932 C.2       17 UNK         0.5000 
     98 O          -6.4060  -27.7619  -51.5069 O.2       17 UNK        -0.5000 
     99 N          -5.3705  -25.7578  -51.2660 N.am      18 UNK        -0.5000 
    100 CA        -5.1643  -25.4518  -52.6762 C.3       18 UNK         0.1400 
    101 CB        -3.9557  -26.2326  -53.2289 C.3       18 UNK        -0.1800 
    102 C         -4.9853  -23.9356  -52.8055 C.2       18 UNK         0.5000 
    103 O         -3.8726  -23.4375  -52.6349 O.2       18 UNK        -0.5000 
    104 N         -6.0931  -23.2251  -53.0586 N.am      19 UNK        -0.5000 
    105 CA        -6.1345  -21.7669  -53.2141 C.3       19 UNK         0.1400 
    106 CB        -7.5956  -21.3066  -53.3226 C.3       19 UNK        -0.1800 
    107 C         -5.3129  -21.2521  -54.4101 C.2       19 UNK         0.5000 
    108 O         -4.6754  -20.2039  -54.2954 O.2       19 UNK        -0.5000 
    109 N         -5.3362  -22.0099  -55.5185 N.am      20 UNK        -0.5000 
    110 CA        -4.6133  -21.7657  -56.7713 C.3       20 UNK         0.1400 
    111 CB        -3.1125  -22.0796  -56.5681 C.3       20 UNK        -0.1800 
    112 C         -4.8886  -20.3546  -57.3426 C.2       20 UNK         0.5000 
    113 O         -6.0317  -19.8937  -57.2985 O.2       20 UNK        -0.5000 
    114 N         -3.8433  -19.6877  -57.8459 N.am      21 UNK        -0.5000 
    115 CA        -3.8590  -18.2682  -58.2059 C.3       21 UNK         0.1400 
    116 CB        -2.8515  -18.0421  -59.3449 C.3       21 UNK        -0.1800 
    117 C         -3.5265  -17.3588  -57.0026 C.2       21 UNK         0.5000 
    118 O         -3.6902  -16.1421  -57.1039 O.2       21 UNK        -0.5000 
    119 N         -3.0382  -17.9524  -55.9055 N.am      22 UNK        -0.5000 
    120 CA        -2.6097  -17.2662  -54.6782 C.3       22 UNK         0.1400 
    121 C         -3.7925  -16.6886  -53.8546 C.2       22 UNK         0.5000 
    122 N         -4.8963  -17.4130  -53.7224 N.am      22 UNK        -0.7600 
    123 O         -3.7088  -15.5780  -53.3381 O.2       22 UNK        -0.5000 
    124 C124       -1.7348  -18.1840  -53.7876 C.3       23 UNK        -0.0398 
    125 S125       -0.2975  -18.8779  -54.6732 S.3       23 UNK        -0.2404 
    126 C126        0.4259  -19.9485  -53.3810 C.3       23 UNK        -0.0205 
    127 H127        4.5575   -9.4121  -49.5717 H         1 UNK         0.0600 
    128 H128        5.7016  -10.2124  -50.6527 H         1 UNK         0.0600 
    129 H129        5.9312  -10.2972  -48.9029 H         1 UNK         0.0600 
    130 H130        2.6386  -10.5420  -49.3644 H         1 UNK         0.3000 
    131 H131        2.5973  -13.3715  -48.8195 H         1 UNK         0.0600 
    132 H132        0.9881  -12.5283  -51.2813 H         1 UNK         0.0800 
    133 H133        2.6025  -13.1394  -51.4408 H         1 UNK         0.0800 
    134 H134        3.4287  -15.5446  -50.7104 H         1 UNK         0.0800 
    135 H135        2.7715  -15.4648  -52.3298 H         1 UNK         0.0800 
    136 H136        1.1033  -17.2296  -53.0678 H         1 UNK         0.1150 
    137 H137        1.6432  -21.1028  -51.2893 H         1 UNK         0.1150 
    138 H138        3.4492  -17.6440  -49.5212 H         1 UNK         0.1150 
    139 H139        3.1756  -21.3963  -49.4756 H         1 UNK         0.0800 
    140 H140        4.3164  -20.1129  -49.1700 H         1 UNK         0.0800 
    141 H141        0.6285  -20.9058  -48.7998 H         1 UNK         0.0800 
    142 H142        0.1513  -20.2087  -47.2764 H         1 UNK         0.0800 
    143 H143        1.6407  -22.8736  -47.5432 H         1 UNK         0.0600 
    144 H144        1.0699  -21.2843  -45.2334 H         1 UNK         0.3000 
    145 H145        0.4600  -22.6644  -43.0059 H         1 UNK         0.0600 
    146 H146        1.9472  -23.9589  -41.4720 H         1 UNK         0.0600 
    147 H147        1.1227  -25.0053  -42.6162 H         1 UNK         0.0600 
    148 H148        2.8194  -24.6142  -42.8574 H         1 UNK         0.0600 
    149 H149        1.8974  -21.0370  -42.6929 H         1 UNK         0.3000 
    150 H150        5.2798  -20.6325  -42.5970 H         1 UNK         0.0600 
    151 H151        5.2265  -20.2223  -45.0730 H         1 UNK         0.0600 
    152 H152        5.2129  -18.7169  -44.1659 H         1 UNK         0.0600 
    153 H153        3.7255  -19.3235  -44.8888 H         1 UNK         0.0600 
    154 H154        3.1251  -18.7183  -42.6249 H         1 UNK         0.3000 
    155 H155        2.0251  -19.3172  -39.2778 H         1 UNK         0.0600 
    156 H156        3.9406  -17.7218  -39.1014 H         1 UNK         0.0600 
    157 H157        2.4014  -16.8761  -39.1491 H         1 UNK         0.0600 
    158 H158        3.4254  -16.9241  -40.5824 H         1 UNK         0.0600 
    159 H159        1.0936  -17.5030  -41.2535 H         1 UNK         0.3000 
    160 H160       -1.2634  -19.7412  -42.8132 H         1 UNK         0.0600 
    161 H161       -2.7578  -17.8796  -42.1948 H         1 UNK         0.0600 
    162 H162       -1.5581  -17.2367  -41.0752 H         1 UNK         0.0600 
    163 H163       -2.3219  -18.7897  -40.7570 H         1 UNK         0.0600 
    164 H164       -0.6041  -17.0203  -43.3563 H         1 UNK         0.3000 
    165 H165        1.9902  -17.6918  -45.7513 H         1 UNK         0.0600 
    166 H166        0.5144  -16.2248  -47.1159 H         1 UNK         0.0600 
    167 H167       -0.1276  -17.8546  -47.0383 H         1 UNK         0.0600 
    168 H168       -0.8486  -16.5802  -46.0575 H         1 UNK         0.0600 
    169 H169        0.8938  -15.2386  -44.8431 H         1 UNK         0.3000 
    170 H170        3.0698  -14.7807  -42.0261 H         1 UNK         0.0600 
    171 H171        3.4092  -12.6672  -43.3002 H         1 UNK         0.0600 
    172 H172        4.2814  -13.9992  -44.0421 H         1 UNK         0.0600 
    173 H173        2.7851  -13.4281  -44.7640 H         1 UNK         0.0600 
    174 H174        0.8671  -13.2946  -43.1504 H         1 UNK         0.3000 
    175 H175       -1.6438  -14.6199  -40.9923 H         1 UNK         0.0600 
    176 H176       -0.4257  -12.9388  -39.6014 H         1 UNK         0.0600 
    177 H177       -0.2257  -11.9001  -41.0076 H         1 UNK         0.0600 
    178 H178       -1.8368  -12.2294  -40.3695 H         1 UNK         0.0600 
    179 H179       -1.6582  -12.5196  -42.9365 H         1 UNK         0.3000 
    180 H180       -2.4563  -14.5397  -45.7641 H         1 UNK         0.0600 
    181 H181       -4.6097  -14.2120  -44.5335 H         1 UNK         0.0600 
    182 H182       -4.1407  -12.5638  -44.1339 H         1 UNK         0.0600 
    183 H183       -4.4113  -13.0273  -45.8142 H         1 UNK         0.0600 
    184 H184       -2.2567  -11.7514  -45.5975 H         1 UNK         0.3000 
    185 H185       -0.5851  -10.7363  -46.7426 H         1 UNK         0.0600 
    186 H186        0.1261  -10.3245  -44.3787 H         1 UNK         0.0600 
    187 H187        1.6472  -11.1576  -44.6724 H         1 UNK         0.0600 
    188 H188        1.2881   -9.6481  -45.5081 H         1 UNK         0.0600 
    189 H189        2.1596  -11.6589  -47.0138 H         1 UNK         0.3000 
    190 H190        0.2822  -23.8917  -49.0082 H         1 UNK         0.3000 
    191 H191       -2.0473  -25.1219  -48.0811 H         1 UNK         0.0600 
    192 H192       -0.5811  -26.0388  -49.8705 H         1 UNK         0.0600 
    193 H193       -1.0971  -24.7591  -50.9718 H         1 UNK         0.0600 
    194 H194       -2.2501  -25.9618  -50.4065 H         1 UNK         0.0600 
    195 H195       -1.7292  -22.0763  -49.8385 H         1 UNK         0.3000 
    196 H196       -4.5324  -21.8338  -50.4957 H         1 UNK         0.0600 
    197 H197       -3.8748  -19.5174  -51.1666 H         1 UNK         0.0600 
    198 H198       -2.7922  -20.7214  -51.8452 H         1 UNK         0.0600 
    199 H199       -2.2778  -19.7537  -50.4608 H         1 UNK         0.0600 
    200 H200       -2.5365  -20.8985  -47.7266 H         1 UNK         0.3000 
    201 H201       -4.5897  -19.2185  -46.4899 H         1 UNK         0.0600 
    202 H202       -2.9788  -19.1354  -44.6035 H         1 UNK         0.0600 
    203 H203       -1.9472  -20.3228  -45.3931 H         1 UNK         0.0600 
    204 H204       -2.1919  -18.7338  -46.1180 H         1 UNK         0.0600 
    205 H205       -3.3380  -22.5430  -46.2136 H         1 UNK         0.3000 
    206 H206       -5.0826  -23.4083  -44.1001 H         1 UNK         0.0600 
    207 H207       -2.9239  -24.5292  -44.7154 H         1 UNK         0.0600 
    208 H208       -4.2698  -25.6584  -44.7706 H         1 UNK         0.0600 
    209 H209       -3.6128  -25.0077  -46.2660 H         1 UNK         0.0600 
    210 H210       -5.6692  -22.7466  -47.4012 H         1 UNK         0.3000 
    211 H211       -7.3170  -22.9472  -48.8389 H         1 UNK         0.0600 
    212 H212       -9.6437  -23.1888  -48.0976 H         1 UNK         0.0600 
    213 H213       -8.7861  -22.1574  -46.9650 H         1 UNK         0.0600 
    214 H214       -9.1400  -23.8325  -46.5422 H         1 UNK         0.0600 
    215 H215       -5.5136  -25.1094  -48.4397 H         1 UNK         0.3000 
    216 H216       -6.9707  -27.6097  -49.0486 H         1 UNK         0.0600 
    217 H217       -4.6689  -28.5743  -49.0562 H         1 UNK         0.0600 
    218 H218       -4.9790  -27.7034  -47.5614 H         1 UNK         0.0600 
    219 H219       -3.9772  -26.9742  -48.8142 H         1 UNK         0.0600 
    220 H220       -5.0416  -25.0572  -50.6097 H         1 UNK         0.3000 
    221 H221       -6.0511  -25.7426  -53.2437 H         1 UNK         0.0600 
    222 H222       -3.0424  -26.0112  -52.6768 H         1 UNK         0.0600 
    223 H223       -4.1216  -27.3087  -53.1811 H         1 UNK         0.0600 
    224 H224       -3.7755  -25.9786  -54.2741 H         1 UNK         0.0600 
    225 H225       -6.9725  -23.7117  -53.1574 H         1 UNK         0.3000 
    226 H226       -5.7126  -21.3158  -52.3165 H         1 UNK         0.0600 
    227 H227       -7.6559  -20.2221  -53.4242 H         1 UNK         0.0600 
    228 H228       -8.0944  -21.7450  -54.1877 H         1 UNK         0.0600 
    229 H229       -8.1624  -21.5799  -52.4323 H         1 UNK         0.0600 
    230 H230       -5.9218  -22.8320  -55.5075 H         1 UNK         0.3000 
    231 H231       -5.0081  -22.4733  -57.5015 H         1 UNK         0.0600 
    232 H232       -2.9789  -23.0760  -56.1462 H         1 UNK         0.0600 
    233 H233       -2.6350  -21.3723  -55.8883 H         1 UNK         0.0600 
    234 H234       -2.5672  -22.0623  -57.5123 H         1 UNK         0.0600 
    235 H235       -2.9435  -20.1460  -57.8702 H         1 UNK         0.3000 
    236 H236       -4.8506  -17.9887  -58.5681 H         1 UNK         0.0600 
    237 H237       -3.0963  -18.6522  -60.2146 H         1 UNK         0.0600 
    238 H238       -2.8544  -17.0007  -59.6692 H         1 UNK         0.0600 
    239 H239       -1.8341  -18.2872  -59.0374 H         1 UNK         0.0600 
    240 H240       -2.9813  -18.9590  -55.8853 H         1 UNK         0.3000 
    241 H241       -1.9905  -16.4193  -54.9808 H         1 UNK         0.0600 
    242 H242       -5.6750  -17.0481  -53.1987 H         1 UNK         0.3800 
    243 H243       -4.9240  -18.3637  -54.0836 H         1 UNK         0.3800 
    244 H244       -1.3760  -17.6379  -52.9135 H         1 UNK         0.0800 
    245 H245       -2.3315  -19.0145  -53.4102 H         1 UNK         0.0800 
    246 H246        1.0658  -20.6777  -53.8796 H         1 UNK         0.0800 
    247 H247       -0.3731  -20.5196  -52.9059 H         1 UNK         0.0800 
@<TRIPOS>BOND
     1    1    2 1    
     2    1  127 1    
     3    1  128 1    
     4    1  129 1    
     5    2    3 2    
     6    2    4 am   BACKBONE|DICT|INTERRES
     7    4    5 1    
     8    4  130 1    
     9    5    6 1    
    10    5   65 1    
    11    5  131 1    
    12    6    7 1    
    13    6  132 1    
    14    6  133 1    
    15    7    8 1    
    16    8    9 1    
    17    8  134 1    
    18    8  135 1    
    19    9   10 ar   
    20    9   14 ar   
    21   10   11 ar   
    22   10  136 1    
    23   11   12 ar   
    24   11  126 1    
    25   12   13 ar   
    26   12  137 1    
    27   13   14 ar   
    28   13   15 1    
    29   14  138 1    
    30   15   16 1    
    31   15  139 1    
    32   15  140 1    
    33   16   17 1    
    34   17   18 1    
    35   17  141 1    
    36   17  142 1    
    37   18   19 1    
    38   18   67 1    
    39   18  143 1    
    40   19   20 am   BACKBONE|DICT|INTERRES
    41   19  144 1    
    42   20   21 2    
    43   20   22 1    
    44   22   23 1    
    45   22   24 1    
    46   22  145 1    
    47   23  146 1    
    48   23  147 1    
    49   23  148 1    
    50   24   25 am   BACKBONE|DICT|INTERRES
    51   24  149 1    
    52   25   26 2    
    53   25   27 1    
    54   27   28 1    
    55   27   29 1    
    56   27  150 1    
    57   28  151 1    
    58   28  152 1    
    59   28  153 1    
    60   29   30 am   BACKBONE|DICT|INTERRES
    61   29  154 1    
    62   30   31 2    
    63   30   32 1    
    64   32   33 1    
    65   32   34 1    
    66   32  155 1    
    67   33  156 1    
    68   33  157 1    
    69   33  158 1    
    70   34   35 am   BACKBONE|DICT|INTERRES
    71   34  159 1    
    72   35   36 2    
    73   35   37 1    
    74   37   38 1    
    75   37   39 1    
    76   37  160 1    
    77   38  161 1    
    78   38  162 1    
    79   38  163 1    
    80   39   40 am   BACKBONE|DICT|INTERRES
    81   39  164 1    
    82   40   41 2    
    83   40   42 1    
    84   42   43 1    
    85   42   44 1    
    86   42  165 1    
    87   43  166 1    
    88   43  167 1    
    89   43  168 1    
    90   44   45 am   BACKBONE|DICT|INTERRES
    91   44  169 1    
    92   45   46 2    
    93   45   47 1    
    94   47   48 1    
    95   47   49 1    
    96   47  170 1    
    97   48  171 1    
    98   48  172 1    
    99   48  173 1    
   100   49   50 am   BACKBONE|DICT|INTERRES
   101   49  174 1    
   102   50   51 2    
   103   50   52 1    
   104   52   53 1    
   105   52   54 1    
   106   52  175 1    
   107   53  176 1    
   108   53  177 1    
   109   53  178 1    
   110   54   55 am   BACKBONE|DICT|INTERRES
   111   54  179 1    
   112   55   56 2    
   113   55   57 1    
   114   57   58 1    
   115   57   59 1    
   116   57  180 1    
   117   58  181 1    
   118   58  182 1    
   119   58  183 1    
   120   59   60 am   BACKBONE|DICT|INTERRES
   121   59  184 1    
   122   60   61 2    
   123   60   62 1    
   124   62   63 1    
   125   62   64 1    
   126   62  185 1    
   127   63  186 1    
   128   63  187 1    
   129   63  188 1    
   130   64   65 am   BACKBONE|DICT|INTERRES
   131   64  189 1    
   132   65   66 2    
   133   67   68 2    
   134   67   69 am   BACKBONE|DICT|INTERRES
   135   69   70 1    
   136   69  190 1    
   137   70   71 1    
   138   70   72 1    
   139   70  191 1    
   140   71  192 1    
   141   71  193 1    
   142   71  194 1    
   143   72   73 2    
   144   72   74 am   BACKBONE|DICT|INTERRES
   145   74   75 1    
   146   74  195 1    
   147   75   76 1    
   148   75   77 1    
   149   75  196 1    
   150   76  197 1    
   151   76  198 1    
   152   76  199 1    
   153   77   78 2    
   154   77   79 am   BACKBONE|DICT|INTERRES
   155   79   80 1    
   156   79  200 1    
   157   80   81 1    
   158   80   82 1    
   159   80  201 1    
   160   81  202 1    
   161   81  203 1    
   162   81  204 1    
   163   82   83 2    
   164   82   84 am   BACKBONE|DICT|INTERRES
   165   84   85 1    
   166   84  205 1    
   167   85   86 1    
   168   85   87 1    
   169   85  206 1    
   170   86  207 1    
   171   86  208 1    
   172   86  209 1    
   173   87   88 2    
   174   87   89 am   BACKBONE|DICT|INTERRES
   175   89   90 1    
   176   89  210 1    
   177   90   91 1    
   178   90   92 1    
   179   90  211 1    
   180   91  212 1    
   181   91  213 1    
   182   91  214 1    
   183   92   93 2    
   184   92   94 am   BACKBONE|DICT|INTERRES
   185   94   95 1    
   186   94  215 1    
   187   95   96 1    
   188   95   97 1    
   189   95  216 1    
   190   96  217 1    
   191   96  218 1    
   192   96  219 1    
   193   97   98 2    
   194   97   99 am   BACKBONE|DICT|INTERRES
   195   99  100 1    
   196   99  220 1    
   197  100  101 1    
   198  100  102 1    
   199  100  221 1    
   200  101  222 1    
   201  101  223 1    
   202  101  224 1    
   203  102  103 2    
   204  102  104 am   BACKBONE|DICT|INTERRES
   205  104  105 1    
   206  104  225 1    
   207  105  106 1    
   208  105  107 1    
   209  105  226 1    
   210  106  227 1    
   211  106  228 1    
   212  106  229 1    
   213  107  108 2    
   214  107  109 am   BACKBONE|DICT|INTERRES
   215  109  110 1    
   216  109  230 1    
   217  110  111 1    
   218  110  112 1    
   219  110  231 1    
   220  111  232 1    
   221  111  233 1    
   222  111  234 1    
   223  112  113 2    
   224  112  114 am   BACKBONE|DICT|INTERRES
   225  114  115 1    
   226  114  235 1    
   227  115  116 1    
   228  115  117 1    
   229  115  236 1    
   230  116  237 1    
   231  116  238 1    
   232  116  239 1    
   233  117  118 2    
   234  117  119 am   BACKBONE|DICT|INTERRES
   235  119  120 1    
   236  119  240 1    
   237  120  121 1    
   238  120  124 1    
   239  120  241 1    
   240  121  122 am   BACKBONE|DICT|INTERRES
   241  121  123 2    
   242  122  242 1    
   243  122  243 1    
   244  124  125 1    
   245  124  244 1    
   246  124  245 1    
   247  125  126 1    
   248  126  246 1    
   249  126  247 1    
@<TRIPOS>SUBSTRUCTURE
     1 UNK         1 GROUP             0       ****    0 ROOT    
