@<TRIPOS>MOLECULE
3R540
247   249    1
SMALL
USER_CHARGES


@<TRIPOS>ATOM
      1 CA          6.2867   -7.7080  -48.2600 C.3       0 UNK        -0.1800 
      2 C           6.2239   -9.1648  -48.6966 C.2       0 UNK         0.5000 
      3 O           7.2592   -9.7573  -49.0009 O.2       0 UNK        -0.5000 
      4 N           5.0145   -9.7399  -48.7317 N.am      1 UNK        -0.5000 
      5 CA          4.7537  -11.1404  -49.0884 C.3       1 UNK         0.1400 
      6 C6          3.2394  -11.3769  -49.3147 C.3       23 UNK        -0.0398 
      7 S7          2.8586  -12.9206  -50.2105 S.3       23 UNK        -0.2404 
      8 C8          2.2309  -13.9630  -48.8565 C.3       23 UNK        -0.0205 
      9 C9          1.6389  -15.2549  -49.3942 C.ar      23 UNK        -0.0193 
     10 C10         0.3200  -15.2743  -49.8565 C.ar      23 UNK        -0.1150 
     11 C11        -0.2404  -16.4521  -50.3567 C.ar      23 UNK        -0.0193 
     12 C12         0.5373  -17.6106  -50.4088 C.ar      23 UNK        -0.1150 
     13 C13         1.8534  -17.6119  -49.9348 C.ar      23 UNK        -0.0193 
     14 C14         2.3990  -16.4285  -49.4266 C.ar      23 UNK        -0.1150 
     15 C15         2.6862  -18.8872  -49.9871 C.3       23 UNK        -0.0205 
     16 S16         2.4070  -19.9632  -48.5407 S.3       23 UNK        -0.2404 
     17 C17         0.6722  -20.4474  -48.8094 C.3       23 UNK        -0.0398 
     18 CA          0.2234  -21.6971  -48.0207 C.3       11 UNK         0.1400 
     19 N           0.2156  -21.4975  -46.5666 N.am      11 UNK        -0.5000 
     20 C          -0.0727  -22.4526  -45.6688 C.2       10 UNK         0.5000 
     21 O          -0.2827  -23.6285  -45.9661 O.2       10 UNK        -0.5000 
     22 CA         -0.2151  -22.0183  -44.1988 C.3       10 UNK         0.1400 
     23 CB          1.1552  -21.9142  -43.5132 C.3       10 UNK        -0.1800 
     24 N          -0.9513  -20.7612  -44.0547 N.am      10 UNK        -0.5000 
     25 C          -2.2426  -20.6020  -44.3811 C.2       9 UNK         0.5000 
     26 O          -2.9601  -21.5183  -44.7814 O.2       9 UNK        -0.5000 
     27 CA         -2.8210  -19.1767  -44.2917 C.3       9 UNK         0.1400 
     28 CB         -3.2225  -18.8351  -42.8498 C.3       9 UNK        -0.1800 
     29 N          -1.8980  -18.1625  -44.8010 N.am      9 UNK        -0.5000 
     30 C          -1.4795  -18.0872  -46.0727 C.2       8 UNK         0.5000 
     31 O          -1.8864  -18.8235  -46.9706 O.2       8 UNK        -0.5000 
     32 CA         -0.3781  -17.0556  -46.3769 C.3       8 UNK         0.1400 
     33 CB         -0.9796  -15.6652  -46.6303 C.3       8 UNK        -0.1800 
     34 N           0.6158  -16.9763  -45.3045 N.am      8 UNK        -0.5000 
     35 C           1.4380  -17.9793  -44.9642 C.2       7 UNK         0.5000 
     36 O           1.4543  -19.0698  -45.5301 O.2       7 UNK        -0.5000 
     37 CA          2.3520  -17.7438  -43.7501 C.3       7 UNK         0.1400 
     38 CB          3.5373  -16.8506  -44.1334 C.3       7 UNK        -0.1800 
     39 N           1.6284  -17.1400  -42.6321 N.am      7 UNK        -0.5000 
     40 C           0.6718  -17.7674  -41.9310 C.2       6 UNK         0.5000 
     41 O           0.3518  -18.9408  -42.1162 O.2       6 UNK        -0.5000 
     42 CA         -0.0898  -16.9361  -40.8795 C.3       6 UNK         0.1400 
     43 CB          0.5933  -17.0482  -39.5087 C.3       6 UNK        -0.1800 
     44 N          -0.2130  -15.5226  -41.2380 N.am      6 UNK        -0.5000 
     45 C          -0.8017  -15.0509  -42.3464 C.2       5 UNK         0.5000 
     46 O          -1.3891  -15.7664  -43.1577 O.2       5 UNK        -0.5000 
     47 CA         -0.6782  -13.5382  -42.6204 C.3       5 UNK         0.1400 
     48 CB         -2.0165  -12.8343  -42.3511 C.3       5 UNK        -0.1800 
     49 N           0.3764  -12.8734  -41.8450 N.am      5 UNK        -0.5000 
     50 C           1.6914  -13.0964  -41.9722 C.2       4 UNK         0.5000 
     51 O           2.1804  -13.9089  -42.7625 O.2       4 UNK        -0.5000 
     52 CA          2.5989  -12.3274  -41.0043 C.3       4 UNK         0.1400 
     53 CB          2.6519  -13.0336  -39.6367 C.3       4 UNK        -0.1800 
     54 N           3.9408  -12.2375  -41.5677 N.am      4 UNK        -0.5000 
     55 C           4.8504  -11.3063  -41.2551 C.2       3 UNK         0.5000 
     56 O           4.6544  -10.4148  -40.4277 O.2       3 UNK        -0.5000 
     57 CA          6.2119  -11.3733  -41.9770 C.3       3 UNK         0.1400 
     58 CB          7.2603  -12.0478  -41.0783 C.3       3 UNK        -0.1800 
     59 N           6.1659  -12.0777  -43.2608 N.am      3 UNK        -0.5000 
     60 C           5.5837  -11.6021  -44.3681 C.2       2 UNK         0.5000 
     61 O           5.0295  -10.5007  -44.4366 O.2       2 UNK        -0.5000 
     62 CA          5.6140  -12.5231  -45.5955 C.3       2 UNK         0.1400 
     63 CB          4.7066  -13.7488  -45.3840 C.3       2 UNK        -0.1800 
     64 N           5.1702  -11.7649  -46.7575 N.am      2 UNK        -0.5000 
     65 C           5.3273  -12.1167  -48.0379 C.2       1 UNK         0.5000 
     66 O           5.9016  -13.1444  -48.4009 O.2       1 UNK        -0.5000 
     67 C          -1.1559  -22.1515  -48.5388 C.2       11 UNK         0.5000 
     68 O          -1.2224  -23.1154  -49.2993 O.2       11 UNK        -0.5000 
     69 N          -2.2271  -21.4720  -48.1028 N.am      12 UNK        -0.5000 
     70 CA         -3.6104  -21.7984  -48.4500 C.3       12 UNK         0.1400 
     71 CB         -4.5578  -20.7301  -47.8853 C.3       12 UNK        -0.1800 
     72 C          -4.0221  -23.2021  -47.9752 C.2       12 UNK         0.5000 
     73 O          -4.6236  -23.9471  -48.7486 O.2       12 UNK        -0.5000 
     74 N          -3.6571  -23.5539  -46.7344 N.am      13 UNK        -0.5000 
     75 CA         -3.8712  -24.8764  -46.1463 C.3       13 UNK         0.1400 
     76 CB         -3.4804  -24.8525  -44.6613 C.3       13 UNK        -0.1800 
     77 C          -3.1179  -25.9897  -46.8972 C.2       13 UNK         0.5000 
     78 O          -3.7126  -27.0279  -47.1903 O.2       13 UNK        -0.5000 
     79 N          -1.8449  -25.7368  -47.2378 N.am      14 UNK        -0.5000 
     80 CA         -1.0033  -26.6248  -48.0459 C.3       14 UNK         0.1400 
     81 CB          0.4371  -26.0923  -48.0668 C.3       14 UNK        -0.1800 
     82 C          -1.5360  -26.8169  -49.4792 C.2       14 UNK         0.5000 
     83 O          -1.4324  -27.9152  -50.0252 O.2       14 UNK        -0.5000 
     84 N          -2.1524  -25.7669  -50.0358 N.am      15 UNK        -0.5000 
     85 CA         -2.8553  -25.7560  -51.3187 C.3       15 UNK         0.1400 
     86 CB         -2.8142  -24.3303  -51.8976 C.3       15 UNK        -0.1800 
     87 C          -4.3005  -26.2963  -51.2272 C.2       15 UNK         0.5000 
     88 O          -5.1382  -25.9050  -52.0384 O.2       15 UNK        -0.5000 
     89 N          -4.5782  -27.1765  -50.2532 N.am      16 UNK        -0.5000 
     90 CA         -5.8388  -27.8936  -50.0322 C.3       16 UNK         0.1400 
     91 CB         -6.0715  -28.9258  -51.1554 C.3       16 UNK        -0.1800 
     92 C          -7.0431  -26.9541  -49.8161 C.2       16 UNK         0.5000 
     93 O          -8.1007  -27.1523  -50.4165 O.2       16 UNK        -0.5000 
     94 N          -6.8400  -25.9426  -48.9607 N.am      17 UNK        -0.5000 
     95 CA         -7.7644  -24.8497  -48.6442 C.3       17 UNK         0.1400 
     96 CB         -9.0688  -25.3709  -48.0038 C.3       17 UNK        -0.1800 
     97 C          -7.9913  -23.9304  -49.8611 C.2       17 UNK         0.5000 
     98 O          -9.1332  -23.6551  -50.2343 O.2       17 UNK        -0.5000 
     99 N          -6.8723  -23.4705  -50.4393 N.am      18 UNK        -0.5000 
    100 CA        -6.7630  -22.5309  -51.5589 C.3       18 UNK         0.1400 
    101 CB        -7.2740  -21.1380  -51.1344 C.3       18 UNK        -0.1800 
    102 C         -7.4183  -23.0459  -52.8592 C.2       18 UNK         0.5000 
    103 O         -8.1054  -22.2919  -53.5513 O.2       18 UNK        -0.5000 
    104 N         -7.1959  -24.3270  -53.1795 N.am      19 UNK        -0.5000 
    105 CA        -7.6621  -24.9677  -54.4061 C.3       19 UNK         0.1400 
    106 CB        -7.6429  -26.4946  -54.2222 C.3       19 UNK        -0.1800 
    107 C         -6.7880  -24.5177  -55.5905 C.2       19 UNK         0.5000 
    108 O         -5.6745  -25.0205  -55.7536 O.2       19 UNK        -0.5000 
    109 N         -7.2996  -23.5487  -56.3641 N.am      20 UNK        -0.5000 
    110 CA        -6.6374  -22.8735  -57.4888 C.3       20 UNK         0.1400 
    111 CB        -6.4050  -23.8504  -58.6611 C.3       20 UNK        -0.1800 
    112 C         -5.3584  -22.1197  -57.0597 C.2       20 UNK         0.5000 
    113 O         -4.3498  -22.1420  -57.7681 O.2       20 UNK        -0.5000 
    114 N         -5.4304  -21.4665  -55.8958 N.am      21 UNK        -0.5000 
    115 CA        -4.3628  -20.6908  -55.2742 C.3       21 UNK         0.1400 
    116 CB        -3.4835  -21.6283  -54.4261 C.3       21 UNK        -0.1800 
    117 C         -4.9952  -19.5899  -54.4098 C.2       21 UNK         0.5000 
    118 O         -6.2150  -19.5822  -54.2248 O.2       21 UNK        -0.5000 
    119 N         -4.1618  -18.6844  -53.8877 N.am      22 UNK        -0.5000 
    120 CA        -4.5570  -17.7089  -52.8614 C.3       22 UNK         0.1400 
    121 C         -4.7171  -18.3491  -51.4510 C.2       22 UNK         0.5000 
    122 N         -5.4300  -17.6917  -50.5459 N.am      22 UNK        -0.7600 
    123 O         -4.1877  -19.4192  -51.1598 O.2       22 UNK        -0.5000 
    124 C124       -3.6275  -16.4665  -52.8502 C.3       23 UNK        -0.0398 
    125 S125       -1.8516  -16.8164  -52.5908 S.3       23 UNK        -0.2404 
    126 C126       -1.6929  -16.4823  -50.8074 C.3       23 UNK        -0.0205 
    127 H127        6.9084   -7.6099  -47.3702 H         1 UNK         0.0600 
    128 H128        5.2982   -7.3103  -48.0290 H         1 UNK         0.0600 
    129 H129        6.7223   -7.0974  -49.0508 H         1 UNK         0.0600 
    130 H130        4.2054   -9.1912  -48.4770 H         1 UNK         0.3000 
    131 H131        5.2711  -11.3321  -50.0312 H         1 UNK         0.0600 
    132 H132        2.6886  -11.3374  -48.3732 H         1 UNK         0.0800 
    133 H133        2.8344  -10.5668  -49.9229 H         1 UNK         0.0800 
    134 H134        1.4685  -13.4204  -48.2954 H         1 UNK         0.0800 
    135 H135        3.0382  -14.1783  -48.1550 H         1 UNK         0.0800 
    136 H136       -0.2707  -14.3696  -49.8198 H         1 UNK         0.1150 
    137 H137        0.1061  -18.5149  -50.8128 H         1 UNK         0.1150 
    138 H138        3.4173  -16.4185  -49.0637 H         1 UNK         0.1150 
    139 H139        2.4683  -19.4390  -50.9027 H         1 UNK         0.0800 
    140 H140        3.7467  -18.6353  -50.0339 H         1 UNK         0.0800 
    141 H141        0.5485  -20.6244  -49.8796 H         1 UNK         0.0800 
    142 H142        0.0377  -19.5975  -48.5592 H         1 UNK         0.0800 
    143 H143        0.9296  -22.5027  -48.2324 H         1 UNK         0.0600 
    144 H144        0.4491  -20.5657  -46.2335 H         1 UNK         0.3000 
    145 H145       -0.7853  -22.7931  -43.6822 H         1 UNK         0.0600 
    146 H146        1.0485  -21.6763  -42.4548 H         1 UNK         0.0600 
    147 H147        1.6964  -22.8586  -43.5814 H         1 UNK         0.0600 
    148 H148        1.7808  -21.1461  -43.9665 H         1 UNK         0.0600 
    149 H149       -0.4348  -19.9719  -43.6816 H         1 UNK         0.3000 
    150 H150       -3.7207  -19.1433  -44.9094 H         1 UNK         0.0600 
    151 H151       -3.9738  -19.5340  -42.4804 H         1 UNK         0.0600 
    152 H152       -3.6475  -17.8333  -42.7839 H         1 UNK         0.0600 
    153 H153       -2.3711  -18.8834  -42.1719 H         1 UNK         0.0600 
    154 H154       -1.5545  -17.4744  -44.1379 H         1 UNK         0.3000 
    155 H155        0.1368  -17.3740  -47.2858 H         1 UNK         0.0600 
    156 H156       -1.5338  -15.2963  -45.7673 H         1 UNK         0.0600 
    157 H157       -1.6695  -15.6915  -47.4747 H         1 UNK         0.0600 
    158 H158       -0.2041  -14.9369  -46.8668 H         1 UNK         0.0600 
    159 H159        0.6262  -16.1309  -44.7540 H         1 UNK         0.3000 
    160 H160        2.7420  -18.7110  -43.4257 H         1 UNK         0.0600 
    161 H161        4.2146  -16.7049  -43.2918 H         1 UNK         0.0600 
    162 H162        3.1946  -15.8711  -44.4642 H         1 UNK         0.0600 
    163 H163        4.1140  -17.2910  -44.9478 H         1 UNK         0.0600 
    164 H164        1.8179  -16.1642  -42.4413 H         1 UNK         0.3000 
    165 H165       -1.0975  -17.3468  -40.7965 H         1 UNK         0.0600 
    166 H166        0.0200  -16.5322  -38.7383 H         1 UNK         0.0600 
    167 H167        0.6829  -18.0911  -39.2015 H         1 UNK         0.0600 
    168 H168        1.5974  -16.6222  -39.5229 H         1 UNK         0.0600 
    169 H169        0.2353  -14.8604  -40.6236 H         1 UNK         0.3000 
    170 H170       -0.4383  -13.4234  -43.6795 H         1 UNK         0.0600 
    171 H171       -2.8197  -13.2833  -42.9373 H         1 UNK         0.0600 
    172 H172       -2.3013  -12.8997  -41.3002 H         1 UNK         0.0600 
    173 H173       -1.9698  -11.7796  -42.6227 H         1 UNK         0.0600 
    174 H174        0.0626  -12.2005  -41.1600 H         1 UNK         0.3000 
    175 H175        2.1922  -11.3211  -40.8824 H         1 UNK         0.0600 
    176 H176        3.0579  -14.0425  -39.7223 H         1 UNK         0.0600 
    177 H177        3.2734  -12.4835  -38.9300 H         1 UNK         0.0600 
    178 H178        1.6584  -13.1143  -39.1944 H         1 UNK         0.0600 
    179 H179        4.1428  -12.9197  -42.2869 H         1 UNK         0.3000 
    180 H180        6.5338  -10.3463  -42.1625 H         1 UNK         0.0600 
    181 H181        7.0015  -13.0862  -40.8674 H         1 UNK         0.0600 
    182 H182        7.3463  -11.5305  -40.1217 H         1 UNK         0.0600 
    183 H183        8.2466  -12.0338  -41.5426 H         1 UNK         0.0600 
    184 H184        6.6008  -12.9889  -43.2870 H         1 UNK         0.3000 
    185 H185        6.6444  -12.8475  -45.7543 H         1 UNK         0.0600 
    186 H186        5.0158  -14.3159  -44.5060 H         1 UNK         0.0600 
    187 H187        3.6655  -13.4569  -45.2387 H         1 UNK         0.0600 
    188 H188        4.7475  -14.4313  -46.2328 H         1 UNK         0.0600 
    189 H189        4.7490  -10.8735  -46.5252 H         1 UNK         0.3000 
    190 H190       -2.0877  -20.6530  -47.5167 H         1 UNK         0.3000 
    191 H191       -3.6916  -21.7788  -49.5388 H         1 UNK         0.0600 
    192 H192       -4.5005  -20.6697  -46.7991 H         1 UNK         0.0600 
    193 H193       -5.5933  -20.9490  -48.1465 H         1 UNK         0.0600 
    194 H194       -4.3197  -19.7452  -48.2872 H         1 UNK         0.0600 
    195 H195       -3.2062  -22.8603  -46.1434 H         1 UNK         0.3000 
    196 H196       -4.9386  -25.0973  -46.2108 H         1 UNK         0.0600 
    197 H197       -3.6536  -25.8235  -44.1958 H         1 UNK         0.0600 
    198 H198       -4.0690  -24.1179  -44.1116 H         1 UNK         0.0600 
    199 H199       -2.4275  -24.6052  -44.5249 H         1 UNK         0.0600 
    200 H200       -1.4158  -24.8701  -46.9240 H         1 UNK         0.3000 
    201 H201       -0.9961  -27.6041  -47.5633 H         1 UNK         0.0600 
    202 H202        0.8479  -26.0283  -47.0591 H         1 UNK         0.0600 
    203 H203        0.4932  -25.0995  -48.5137 H         1 UNK         0.0600 
    204 H204        1.0891  -26.7499  -48.6431 H         1 UNK         0.0600 
    205 H205       -2.1389  -24.8849  -49.5331 H         1 UNK         0.3000 
    206 H206       -2.3216  -26.4081  -52.0125 H         1 UNK         0.0600 
    207 H207       -1.7906  -23.9632  -51.9725 H         1 UNK         0.0600 
    208 H208       -3.2398  -24.3019  -52.9012 H         1 UNK         0.0600 
    209 H209       -3.3759  -23.6299  -51.2791 H         1 UNK         0.0600 
    210 H210       -3.8387  -27.3939  -49.5988 H         1 UNK         0.3000 
    211 H211       -5.7150  -28.4460  -49.0995 H         1 UNK         0.0600 
    212 H212       -6.2375  -28.4447  -52.1194 H         1 UNK         0.0600 
    213 H213       -6.9444  -29.5444  -50.9439 H         1 UNK         0.0600 
    214 H214       -5.2177  -29.5955  -51.2579 H         1 UNK         0.0600 
    215 H215       -5.9037  -25.8296  -48.5924 H         1 UNK         0.3000 
    216 H216       -7.2633  -24.2386  -47.8920 H         1 UNK         0.0600 
    217 H217       -9.6814  -24.5421  -47.6473 H         1 UNK         0.0600 
    218 H218       -8.8589  -26.0112  -47.1472 H         1 UNK         0.0600 
    219 H219       -9.6751  -25.9400  -48.7086 H         1 UNK         0.0600 
    220 H220       -5.9907  -23.7716  -50.0312 H         1 UNK         0.3000 
    221 H221       -5.6979  -22.4357  -51.7732 H         1 UNK         0.0600 
    222 H222       -8.3431  -21.1429  -50.9219 H         1 UNK         0.0600 
    223 H223       -6.7550  -20.7817  -50.2456 H         1 UNK         0.0600 
    224 H224       -7.1037  -20.4009  -51.9177 H         1 UNK         0.0600 
    225 H225       -6.5582  -24.8788  -52.6080 H         1 UNK         0.3000 
    226 H226       -8.6968  -24.6706  -54.5901 H         1 UNK         0.0600 
    227 H227       -8.0334  -26.9972  -55.1076 H         1 UNK         0.0600 
    228 H228       -6.6342  -26.8713  -54.0506 H         1 UNK         0.0600 
    229 H229       -8.2586  -26.7972  -53.3748 H         1 UNK         0.0600 
    230 H230       -8.2019  -23.1719  -56.1061 H         1 UNK         0.3000 
    231 H231       -7.3331  -22.1087  -57.8367 H         1 UNK         0.0600 
    232 H232       -7.3295  -24.3534  -58.9444 H         1 UNK         0.0600 
    233 H233       -5.6687  -24.6157  -58.4139 H         1 UNK         0.0600 
    234 H234       -6.0413  -23.3218  -59.5429 H         1 UNK         0.0600 
    235 H235       -6.3100  -21.4350  -55.3933 H         1 UNK         0.3000 
    236 H236       -3.7575  -20.2108  -56.0459 H         1 UNK         0.0600 
    237 H237       -3.0546  -22.4267  -55.0319 H         1 UNK         0.0600 
    238 H238       -2.6541  -21.0896  -53.9667 H         1 UNK         0.0600 
    239 H239       -4.0583  -22.0909  -53.6235 H         1 UNK         0.0600 
    240 H240       -3.1691  -18.7651  -54.0530 H         1 UNK         0.3000 
    241 H241       -5.5492  -17.3443  -53.1353 H         1 UNK         0.0600 
    242 H242       -5.5334  -18.0920  -49.6280 H         1 UNK         0.3800 
    243 H243       -5.8844  -16.8171  -50.7567 H         1 UNK         0.3800 
    244 H244       -3.7138  -15.9579  -53.8112 H         1 UNK         0.0800 
    245 H245       -3.9710  -15.7370  -52.1153 H         1 UNK         0.0800 
    246 H246       -2.1802  -15.5354  -50.5707 H         1 UNK         0.0800 
    247 H247       -2.2217  -17.2524  -50.2437 H         1 UNK         0.0800 
@<TRIPOS>BOND
     1    1    2 1    
     2    1  127 1    
     3    1  128 1    
     4    1  129 1    
     5    2    3 2    
     6    2    4 am   BACKBONE|DICT|INTERRES
     7    4    5 1    
     8    4  130 1    
     9    5    6 1    
    10    5   65 1    
    11    5  131 1    
    12    6    7 1    
    13    6  132 1    
    14    6  133 1    
    15    7    8 1    
    16    8    9 1    
    17    8  134 1    
    18    8  135 1    
    19    9   10 ar   
    20    9   14 ar   
    21   10   11 ar   
    22   10  136 1    
    23   11   12 ar   
    24   11  126 1    
    25   12   13 ar   
    26   12  137 1    
    27   13   14 ar   
    28   13   15 1    
    29   14  138 1    
    30   15   16 1    
    31   15  139 1    
    32   15  140 1    
    33   16   17 1    
    34   17   18 1    
    35   17  141 1    
    36   17  142 1    
    37   18   19 1    
    38   18   67 1    
    39   18  143 1    
    40   19   20 am   BACKBONE|DICT|INTERRES
    41   19  144 1    
    42   20   21 2    
    43   20   22 1    
    44   22   23 1    
    45   22   24 1    
    46   22  145 1    
    47   23  146 1    
    48   23  147 1    
    49   23  148 1    
    50   24   25 am   BACKBONE|DICT|INTERRES
    51   24  149 1    
    52   25   26 2    
    53   25   27 1    
    54   27   28 1    
    55   27   29 1    
    56   27  150 1    
    57   28  151 1    
    58   28  152 1    
    59   28  153 1    
    60   29   30 am   BACKBONE|DICT|INTERRES
    61   29  154 1    
    62   30   31 2    
    63   30   32 1    
    64   32   33 1    
    65   32   34 1    
    66   32  155 1    
    67   33  156 1    
    68   33  157 1    
    69   33  158 1    
    70   34   35 am   BACKBONE|DICT|INTERRES
    71   34  159 1    
    72   35   36 2    
    73   35   37 1    
    74   37   38 1    
    75   37   39 1    
    76   37  160 1    
    77   38  161 1    
    78   38  162 1    
    79   38  163 1    
    80   39   40 am   BACKBONE|DICT|INTERRES
    81   39  164 1    
    82   40   41 2    
    83   40   42 1    
    84   42   43 1    
    85   42   44 1    
    86   42  165 1    
    87   43  166 1    
    88   43  167 1    
    89   43  168 1    
    90   44   45 am   BACKBONE|DICT|INTERRES
    91   44  169 1    
    92   45   46 2    
    93   45   47 1    
    94   47   48 1    
    95   47   49 1    
    96   47  170 1    
    97   48  171 1    
    98   48  172 1    
    99   48  173 1    
   100   49   50 am   BACKBONE|DICT|INTERRES
   101   49  174 1    
   102   50   51 2    
   103   50   52 1    
   104   52   53 1    
   105   52   54 1    
   106   52  175 1    
   107   53  176 1    
   108   53  177 1    
   109   53  178 1    
   110   54   55 am   BACKBONE|DICT|INTERRES
   111   54  179 1    
   112   55   56 2    
   113   55   57 1    
   114   57   58 1    
   115   57   59 1    
   116   57  180 1    
   117   58  181 1    
   118   58  182 1    
   119   58  183 1    
   120   59   60 am   BACKBONE|DICT|INTERRES
   121   59  184 1    
   122   60   61 2    
   123   60   62 1    
   124   62   63 1    
   125   62   64 1    
   126   62  185 1    
   127   63  186 1    
   128   63  187 1    
   129   63  188 1    
   130   64   65 am   BACKBONE|DICT|INTERRES
   131   64  189 1    
   132   65   66 2    
   133   67   68 2    
   134   67   69 am   BACKBONE|DICT|INTERRES
   135   69   70 1    
   136   69  190 1    
   137   70   71 1    
   138   70   72 1    
   139   70  191 1    
   140   71  192 1    
   141   71  193 1    
   142   71  194 1    
   143   72   73 2    
   144   72   74 am   BACKBONE|DICT|INTERRES
   145   74   75 1    
   146   74  195 1    
   147   75   76 1    
   148   75   77 1    
   149   75  196 1    
   150   76  197 1    
   151   76  198 1    
   152   76  199 1    
   153   77   78 2    
   154   77   79 am   BACKBONE|DICT|INTERRES
   155   79   80 1    
   156   79  200 1    
   157   80   81 1    
   158   80   82 1    
   159   80  201 1    
   160   81  202 1    
   161   81  203 1    
   162   81  204 1    
   163   82   83 2    
   164   82   84 am   BACKBONE|DICT|INTERRES
   165   84   85 1    
   166   84  205 1    
   167   85   86 1    
   168   85   87 1    
   169   85  206 1    
   170   86  207 1    
   171   86  208 1    
   172   86  209 1    
   173   87   88 2    
   174   87   89 am   BACKBONE|DICT|INTERRES
   175   89   90 1    
   176   89  210 1    
   177   90   91 1    
   178   90   92 1    
   179   90  211 1    
   180   91  212 1    
   181   91  213 1    
   182   91  214 1    
   183   92   93 2    
   184   92   94 am   BACKBONE|DICT|INTERRES
   185   94   95 1    
   186   94  215 1    
   187   95   96 1    
   188   95   97 1    
   189   95  216 1    
   190   96  217 1    
   191   96  218 1    
   192   96  219 1    
   193   97   98 2    
   194   97   99 am   BACKBONE|DICT|INTERRES
   195   99  100 1    
   196   99  220 1    
   197  100  101 1    
   198  100  102 1    
   199  100  221 1    
   200  101  222 1    
   201  101  223 1    
   202  101  224 1    
   203  102  103 2    
   204  102  104 am   BACKBONE|DICT|INTERRES
   205  104  105 1    
   206  104  225 1    
   207  105  106 1    
   208  105  107 1    
   209  105  226 1    
   210  106  227 1    
   211  106  228 1    
   212  106  229 1    
   213  107  108 2    
   214  107  109 am   BACKBONE|DICT|INTERRES
   215  109  110 1    
   216  109  230 1    
   217  110  111 1    
   218  110  112 1    
   219  110  231 1    
   220  111  232 1    
   221  111  233 1    
   222  111  234 1    
   223  112  113 2    
   224  112  114 am   BACKBONE|DICT|INTERRES
   225  114  115 1    
   226  114  235 1    
   227  115  116 1    
   228  115  117 1    
   229  115  236 1    
   230  116  237 1    
   231  116  238 1    
   232  116  239 1    
   233  117  118 2    
   234  117  119 am   BACKBONE|DICT|INTERRES
   235  119  120 1    
   236  119  240 1    
   237  120  121 1    
   238  120  124 1    
   239  120  241 1    
   240  121  122 am   BACKBONE|DICT|INTERRES
   241  121  123 2    
   242  122  242 1    
   243  122  243 1    
   244  124  125 1    
   245  124  244 1    
   246  124  245 1    
   247  125  126 1    
   248  126  246 1    
   249  126  247 1    
@<TRIPOS>SUBSTRUCTURE
     1 UNK         1 GROUP             0       ****    0 ROOT    
