@<TRIPOS>MOLECULE
3R540
247   249    1
SMALL
USER_CHARGES


@<TRIPOS>ATOM
      1 CA         -0.5763  -11.7323  -43.6274 C.3       0 UNK        -0.1800 
      2 C          -0.8401  -11.6032  -45.1207 C.2       0 UNK         0.5000 
      3 O          -0.3141  -10.6925  -45.7591 O.2       0 UNK        -0.5000 
      4 N          -1.6618  -12.5052  -45.6731 N.am      1 UNK        -0.5000 
      5 CA         -2.0085  -12.5646  -47.0992 C.3       1 UNK         0.1400 
      6 C6         -3.2930  -13.4033  -47.3139 C.3       23 UNK        -0.0398 
      7 S7         -4.1249  -13.0299  -48.8945 S.3       23 UNK        -0.2404 
      8 C8         -4.7019  -14.6768  -49.4169 C.3       23 UNK        -0.0205 
      9 C9         -3.5633  -15.6486  -49.6964 C.ar      23 UNK        -0.0193 
     10 C10        -2.6647  -15.4020  -50.7391 C.ar      23 UNK        -0.1150 
     11 C11        -1.6532  -16.3191  -51.0352 C.ar      23 UNK        -0.0193 
     12 C12        -1.5441  -17.4870  -50.2782 C.ar      23 UNK        -0.1150 
     13 C13        -2.4310  -17.7451  -49.2301 C.ar      23 UNK        -0.0193 
     14 C14        -3.4364  -16.8188  -48.9407 C.ar      23 UNK        -0.1150 
     15 C15        -2.3426  -19.0519  -48.4564 C.3       23 UNK        -0.0205 
     16 S16        -0.7017  -19.3219  -47.7202 S.3       23 UNK        -0.2404 
     17 C17        -0.4119  -21.0901  -48.0566 C.3       23 UNK        -0.0398 
     18 CA         -0.9483  -22.0789  -46.9929 C.3       11 UNK         0.1400 
     19 N          -0.4013  -21.8749  -45.6452 N.am      11 UNK        -0.5000 
     20 C          -0.4314  -22.8244  -44.6967 C.2       10 UNK         0.5000 
     21 O          -0.9265  -23.9386  -44.8677 O.2       10 UNK        -0.5000 
     22 CA          0.1438  -22.4743  -43.3132 C.3       10 UNK         0.1400 
     23 CB          1.6799  -22.4597  -43.3329 C.3       10 UNK        -0.1800 
     24 N          -0.3681  -21.2111  -42.7848 N.am      10 UNK        -0.5000 
     25 C          -1.6528  -20.9877  -42.4726 C.2       9 UNK         0.5000 
     26 O          -2.5428  -21.8285  -42.5976 O.2       9 UNK        -0.5000 
     27 CA         -2.0127  -19.5798  -41.9639 C.3       9 UNK         0.1400 
     28 CB         -1.6768  -19.4335  -40.4724 C.3       9 UNK        -0.1800 
     29 N          -1.3467  -18.5224  -42.7215 N.am      9 UNK        -0.5000 
     30 C          -1.5482  -18.2862  -44.0253 C.2       8 UNK         0.5000 
     31 O          -2.3668  -18.8942  -44.7133 O.2       8 UNK        -0.5000 
     32 CA         -0.6451  -17.2255  -44.6757 C.3       8 UNK         0.1400 
     33 CB         -1.1426  -15.8081  -44.3554 C.3       8 UNK        -0.1800 
     34 N           0.7564  -17.3628  -44.2771 N.am      8 UNK        -0.5000 
     35 C           1.5215  -18.4462  -44.4850 C.2       7 UNK         0.5000 
     36 O           1.1405  -19.4666  -45.0552 O.2       7 UNK        -0.5000 
     37 CA          2.9425  -18.4044  -43.9009 C.3       7 UNK         0.1400 
     38 CB          3.8910  -17.5994  -44.8036 C.3       7 UNK        -0.1800 
     39 N           2.9513  -17.8551  -42.5457 N.am      7 UNK        -0.5000 
     40 C           2.4057  -18.4637  -41.4822 C.2       6 UNK         0.5000 
     41 O           1.8835  -19.5777  -41.5224 O.2       6 UNK        -0.5000 
     42 CA          2.4055  -17.6702  -40.1632 C.3       6 UNK         0.1400 
     43 CB          3.7521  -17.8188  -39.4394 C.3       6 UNK        -0.1800 
     44 N           2.1188  -16.2497  -40.3710 N.am      6 UNK        -0.5000 
     45 C           0.9388  -15.7718  -40.7913 C.2       5 UNK         0.5000 
     46 O          -0.0483  -16.4766  -41.0012 O.2       5 UNK        -0.5000 
     47 CA          0.8704  -14.2595  -41.0772 C.3       5 UNK         0.1400 
     48 CB          0.5416  -13.4759  -39.7985 C.3       5 UNK        -0.1800 
     49 N           2.1028  -13.7314  -41.6728 N.am      5 UNK        -0.5000 
     50 C           2.5680  -14.0923  -42.8751 C.2       4 UNK         0.5000 
     51 O           1.9921  -14.8955  -43.6142 O.2       4 UNK        -0.5000 
     52 CA          3.9140  -13.4976  -43.3079 C.3       4 UNK         0.1400 
     53 CB          5.0726  -14.1442  -42.5250 C.3       4 UNK        -0.1800 
     54 N           4.0749  -13.7520  -44.7336 N.am      4 UNK        -0.5000 
     55 C           4.9158  -13.1367  -45.5700 C.2       3 UNK         0.5000 
     56 O           5.6992  -12.2517  -45.2234 O.2       3 UNK        -0.5000 
     57 CA          4.8845  -13.5893  -47.0455 C.3       3 UNK         0.1400 
     58 CB          6.0409  -14.5618  -47.3261 C.3       3 UNK        -0.1800 
     59 N           3.6267  -14.2287  -47.4492 N.am      3 UNK        -0.5000 
     60 C           2.4492  -13.5996  -47.5677 C.2       2 UNK         0.5000 
     61 O           2.3108  -12.3938  -47.3539 O.2       2 UNK        -0.5000 
     62 CA          1.2360  -14.4545  -47.9971 C.3       2 UNK         0.1400 
     63 CB          1.3731  -15.9411  -47.6173 C.3       2 UNK        -0.1800 
     64 N           0.0122  -13.9338  -47.3919 N.am      2 UNK        -0.5000 
     65 C          -0.8308  -13.0673  -47.9695 C.2       1 UNK         0.5000 
     66 O          -0.6991  -12.6482  -49.1207 O.2       1 UNK        -0.5000 
     67 C          -2.4870  -22.1907  -47.0044 C.2       11 UNK         0.5000 
     68 O          -3.0271  -22.9318  -47.8244 O.2       11 UNK        -0.5000 
     69 N          -3.1712  -21.4988  -46.0807 N.am      12 UNK        -0.5000 
     70 CA         -4.6142  -21.6347  -45.8786 C.3       12 UNK         0.1400 
     71 CB         -5.1213  -20.5134  -44.9607 C.3       12 UNK        -0.1800 
     72 C          -5.0031  -23.0170  -45.3189 C.2       12 UNK         0.5000 
     73 O          -6.0546  -23.5417  -45.6878 O.2       12 UNK        -0.5000 
     74 N          -4.1514  -23.5854  -44.4524 N.am      13 UNK        -0.5000 
     75 CA         -4.3204  -24.9213  -43.8840 C.3       13 UNK         0.1400 
     76 CB         -3.4037  -25.0945  -42.6630 C.3       13 UNK        -0.1800 
     77 C          -4.0884  -26.0400  -44.9160 C.2       13 UNK         0.5000 
     78 O          -4.8828  -26.9810  -44.9612 O.2       13 UNK        -0.5000 
     79 N          -3.0309  -25.9244  -45.7314 N.am      14 UNK        -0.5000 
     80 CA         -2.7042  -26.8849  -46.7833 C.3       14 UNK         0.1400 
     81 CB         -1.9934  -28.1125  -46.1829 C.3       14 UNK        -0.1800 
     82 C          -1.8382  -26.2273  -47.8665 C.2       14 UNK         0.5000 
     83 O          -0.7863  -25.6688  -47.5526 O.2       14 UNK        -0.5000 
     84 N          -2.2714  -26.3554  -49.1238 N.am      15 UNK        -0.5000 
     85 CA         -1.5906  -25.9157  -50.3387 C.3       15 UNK         0.1400 
     86 CB         -1.5723  -24.3780  -50.4337 C.3       15 UNK        -0.1800 
     87 C          -2.3030  -26.5513  -51.5456 C.2       15 UNK         0.5000 
     88 O          -3.3365  -27.2059  -51.3747 O.2       15 UNK        -0.5000 
     89 N          -1.7423  -26.3520  -52.7412 N.am      16 UNK        -0.5000 
     90 CA         -2.2601  -26.8395  -54.0171 C.3       16 UNK         0.1400 
     91 CB         -1.6407  -28.2151  -54.3237 C.3       16 UNK        -0.1800 
     92 C          -1.9346  -25.8160  -55.1167 C.2       16 UNK         0.5000 
     93 O          -1.2171  -24.8473  -54.8567 O.2       16 UNK        -0.5000 
     94 N          -2.4733  -26.0415  -56.3242 N.am      17 UNK        -0.5000 
     95 CA         -2.2707  -25.2353  -57.5390 C.3       17 UNK         0.1400 
     96 CB         -0.8197  -25.3782  -58.0452 C.3       17 UNK        -0.1800 
     97 C          -2.7065  -23.7618  -57.3734 C.2       17 UNK         0.5000 
     98 O          -2.0359  -22.8538  -57.8662 O.2       17 UNK        -0.5000 
     99 N          -3.8172  -23.5658  -56.6469 N.am      18 UNK        -0.5000 
    100 CA        -4.4495  -22.2941  -56.2701 C.3       18 UNK         0.1400 
    101 CB        -4.8393  -21.4624  -57.5090 C.3       18 UNK        -0.1800 
    102 C         -3.6613  -21.4525  -55.2441 C.2       18 UNK         0.5000 
    103 O         -4.1507  -20.3956  -54.8416 O.2       18 UNK        -0.5000 
    104 N         -2.5037  -21.9357  -54.7671 N.am      19 UNK        -0.5000 
    105 CA        -1.6479  -21.2510  -53.7888 C.3       19 UNK         0.1400 
    106 CB        -0.2647  -21.9190  -53.7623 C.3       19 UNK        -0.1800 
    107 C         -2.2492  -21.1653  -52.3695 C.2       19 UNK         0.5000 
    108 O         -1.6465  -20.5435  -51.4988 O.2       19 UNK        -0.5000 
    109 N         -3.4264  -21.7715  -52.1624 N.am      20 UNK        -0.5000 
    110 CA        -4.2489  -21.6391  -50.9614 C.3       20 UNK         0.1400 
    111 CB        -5.3033  -22.7577  -50.9597 C.3       20 UNK        -0.1800 
    112 C         -4.9318  -20.2606  -50.8372 C.2       20 UNK         0.5000 
    113 O         -5.3733  -19.9164  -49.7405 O.2       20 UNK        -0.5000 
    114 N         -5.0242  -19.5091  -51.9443 N.am      21 UNK        -0.5000 
    115 CA        -5.6411  -18.1814  -51.9893 C.3       21 UNK         0.1400 
    116 CB        -7.1383  -18.3256  -52.3122 C.3       21 UNK        -0.1800 
    117 C         -4.9584  -17.2196  -52.9783 C.2       21 UNK         0.5000 
    118 O         -5.1415  -16.0099  -52.8412 O.2       21 UNK        -0.5000 
    119 N         -4.2118  -17.7471  -53.9600 N.am      22 UNK        -0.5000 
    120 CA        -3.4962  -16.9937  -55.0068 C.3       22 UNK         0.1400 
    121 C         -4.4208  -16.2412  -56.0151 C.2       22 UNK         0.5000 
    122 N         -5.6953  -16.5944  -56.1323 N.am      22 UNK        -0.7600 
    123 O         -3.9761  -15.3472  -56.7306 O.2       22 UNK        -0.5000 
    124 C124       -2.3512  -16.0996  -54.4491 C.3       23 UNK        -0.0398 
    125 S125       -1.0379  -17.0721  -53.6344 S.3       23 UNK        -0.2404 
    126 C126       -0.6713  -16.0590  -52.1658 C.3       23 UNK        -0.0205 
    127 H127       -0.8584  -10.8129  -43.1146 H         1 UNK         0.0600 
    128 H128        0.4836  -11.9107  -43.4493 H         1 UNK         0.0600 
    129 H129       -1.1417  -12.5532  -43.1863 H         1 UNK         0.0600 
    130 H130       -2.0938  -13.2017  -45.0840 H         1 UNK         0.3000 
    131 H131       -2.2224  -11.5406  -47.4144 H         1 UNK         0.0600 
    132 H132       -3.0784  -14.4696  -47.2290 H         1 UNK         0.0800 
    133 H133       -4.0168  -13.1835  -46.5278 H         1 UNK         0.0800 
    134 H134       -5.2968  -14.5677  -50.3248 H         1 UNK         0.0800 
    135 H135       -5.3765  -15.0740  -48.6568 H         1 UNK         0.0800 
    136 H136       -2.7648  -14.5004  -51.3267 H         1 UNK         0.1150 
    137 H137       -0.7740  -18.2076  -50.5155 H         1 UNK         0.1150 
    138 H138       -4.1381  -17.0237  -48.1445 H         1 UNK         0.1150 
    139 H139       -3.0902  -19.0847  -47.6625 H         1 UNK         0.0800 
    140 H140       -2.5822  -19.8654  -49.1364 H         1 UNK         0.0800 
    141 H141        0.6678  -21.2199  -48.1378 H         1 UNK         0.0800 
    142 H142       -0.8008  -21.3421  -49.0444 H         1 UNK         0.0800 
    143 H143       -0.5890  -23.0582  -47.3136 H         1 UNK         0.0600 
    144 H144        0.0229  -20.9707  -45.4467 H         1 UNK         0.3000 
    145 H145       -0.1670  -23.2621  -42.6236 H         1 UNK         0.0600 
    146 H146        2.0848  -22.2914  -42.3350 H         1 UNK         0.0600 
    147 H147        2.0727  -23.4136  -43.6866 H         1 UNK         0.0600 
    148 H148        2.0721  -21.6826  -43.9878 H         1 UNK         0.0600 
    149 H149        0.3101  -20.4732  -42.6328 H         1 UNK         0.3000 
    150 H150       -3.0900  -19.4487  -42.0842 H         1 UNK         0.0600 
    151 H151       -2.1772  -20.2020  -39.8820 H         1 UNK         0.0600 
    152 H152       -2.0006  -18.4656  -40.0894 H         1 UNK         0.0600 
    153 H153       -0.6056  -19.5226  -40.2894 H         1 UNK         0.0600 
    154 H154       -0.6878  -17.9400  -42.2143 H         1 UNK         0.3000 
    155 H155       -0.6936  -17.3513  -45.7560 H         1 UNK         0.0600 
    156 H156       -1.1926  -15.6293  -43.2818 H         1 UNK         0.0600 
    157 H157       -2.1425  -15.6499  -44.7609 H         1 UNK         0.0600 
    158 H158       -0.4866  -15.0540  -44.7866 H         1 UNK         0.0600 
    159 H159        1.1779  -16.5516  -43.8330 H         1 UNK         0.3000 
    160 H160        3.3147  -19.4299  -43.8516 H         1 UNK         0.0600 
    161 H161        3.5718  -16.5645  -44.9110 H         1 UNK         0.0600 
    162 H162        3.9321  -18.0317  -45.8041 H         1 UNK         0.0600 
    163 H163        4.9068  -17.5977  -44.4083 H         1 UNK         0.0600 
    164 H164        3.3219  -16.9246  -42.4328 H         1 UNK         0.3000 
    165 H165        1.6246  -18.0867  -39.5233 H         1 UNK         0.0600 
    166 H166        3.7352  -17.3204  -38.4700 H         1 UNK         0.0600 
    167 H167        3.9837  -18.8694  -39.2595 H         1 UNK         0.0600 
    168 H168        4.5729  -17.3962  -40.0203 H         1 UNK         0.0600 
    169 H169        2.8760  -15.6009  -40.2169 H         1 UNK         0.3000 
    170 H170        0.0586  -14.1012  -41.7886 H         1 UNK         0.0600 
    171 H171       -0.3815  -13.8394  -39.3448 H         1 UNK         0.0600 
    172 H172        1.3326  -13.5679  -39.0534 H         1 UNK         0.0600 
    173 H173        0.4014  -12.4160  -40.0118 H         1 UNK         0.0600 
    174 H174        2.6260  -13.0693  -41.1179 H         1 UNK         0.3000 
    175 H175        3.8929  -12.4205  -43.1312 H         1 UNK         0.0600 
    176 H176        5.1214  -15.2204  -42.6955 H         1 UNK         0.0600 
    177 H177        6.0332  -13.7190  -42.8156 H         1 UNK         0.0600 
    178 H178        4.9647  -13.9841  -41.4517 H         1 UNK         0.0600 
    179 H179        3.4162  -14.4261  -45.1009 H         1 UNK         0.3000 
    180 H180        5.0274  -12.7001  -47.6631 H         1 UNK         0.0600 
    181 H181        7.0010  -14.1130  -47.0678 H         1 UNK         0.0600 
    182 H182        6.0841  -14.8309  -48.3816 H         1 UNK         0.0600 
    183 H183        5.9424  -15.4812  -46.7473 H         1 UNK         0.0600 
    184 H184        3.6707  -15.2168  -47.6509 H         1 UNK         0.3000 
    185 H185        1.1650  -14.3940  -49.0849 H         1 UNK         0.0600 
    186 H186        2.1785  -16.4257  -48.1698 H         1 UNK         0.0600 
    187 H187        1.5726  -16.0663  -46.5538 H         1 UNK         0.0600 
    188 H188        0.4596  -16.4878  -47.8523 H         1 UNK         0.0600 
    189 H189       -0.1329  -14.1575  -46.4202 H         1 UNK         0.3000 
    190 H190       -2.6791  -20.8552  -45.4701 H         1 UNK         0.3000 
    191 H191       -5.1027  -21.5203  -46.8490 H         1 UNK         0.0600 
    192 H192       -4.6332  -20.5389  -43.9861 H         1 UNK         0.0600 
    193 H193       -6.1956  -20.6000  -44.7937 H         1 UNK         0.0600 
    194 H194       -4.9403  -19.5332  -45.4021 H         1 UNK         0.0600 
    195 H195       -3.3321  -23.0667  -44.1575 H         1 UNK         0.3000 
    196 H196       -5.3513  -25.0063  -43.5336 H         1 UNK         0.0600 
    197 H197       -3.5401  -26.0772  -42.2102 H         1 UNK         0.0600 
    198 H198       -3.6242  -24.3507  -41.8971 H         1 UNK         0.0600 
    199 H199       -2.3508  -24.9996  -42.9266 H         1 UNK         0.0600 
    200 H200       -2.3919  -25.1393  -45.6300 H         1 UNK         0.3000 
    201 H201       -3.6332  -27.2191  -47.2507 H         1 UNK         0.0600 
    202 H202       -2.6369  -28.6436  -45.4815 H         1 UNK         0.0600 
    203 H203       -1.0840  -27.8270  -45.6526 H         1 UNK         0.0600 
    204 H204       -1.7115  -28.8209  -46.9629 H         1 UNK         0.0600 
    205 H205       -3.1276  -26.8622  -49.3171 H         1 UNK         0.3000 
    206 H206       -0.5657  -26.2911  -50.3205 H         1 UNK         0.0600 
    207 H207       -2.5792  -23.9695  -50.3782 H         1 UNK         0.0600 
    208 H208       -0.9908  -23.9350  -49.6265 H         1 UNK         0.0600 
    209 H209       -1.1271  -24.0358  -51.3673 H         1 UNK         0.0600 
    210 H210       -0.9398  -25.7417  -52.8302 H         1 UNK         0.3000 
    211 H211       -3.3470  -26.9318  -53.9652 H         1 UNK         0.0600 
    212 H212       -0.5551  -28.1547  -54.4112 H         1 UNK         0.0600 
    213 H213       -2.0241  -28.6256  -55.2583 H         1 UNK         0.0600 
    214 H214       -1.8725  -28.9348  -53.5384 H         1 UNK         0.0600 
    215 H215       -3.0617  -26.8551  -56.4402 H         1 UNK         0.3000 
    216 H216       -2.9260  -25.6579  -58.3020 H         1 UNK         0.0600 
    217 H217       -0.6929  -24.8935  -59.0139 H         1 UNK         0.0600 
    218 H218       -0.5477  -26.4262  -58.1708 H         1 UNK         0.0600 
    219 H219       -0.1039  -24.9264  -57.3576 H         1 UNK         0.0600 
    220 H220       -4.2713  -24.3911  -56.2810 H         1 UNK         0.3000 
    221 H221       -5.3767  -22.5703  -55.7662 H         1 UNK         0.0600 
    222 H222       -3.9656  -21.0704  -58.0300 H         1 UNK         0.0600 
    223 H223       -5.4166  -22.0558  -58.2179 H         1 UNK         0.0600 
    224 H224       -5.4551  -20.6075  -57.2267 H         1 UNK         0.0600 
    225 H225       -2.1650  -22.8271  -55.1089 H         1 UNK         0.3000 
    226 H226       -1.5129  -20.2235  -54.1332 H         1 UNK         0.0600 
    227 H227        0.1628  -21.9867  -54.7628 H         1 UNK         0.0600 
    228 H228        0.4324  -21.3463  -53.1493 H         1 UNK         0.0600 
    229 H229       -0.3106  -22.9248  -53.3469 H         1 UNK         0.0600 
    230 H230       -3.8339  -22.2759  -52.9347 H         1 UNK         0.3000 
    231 H231       -3.6064  -21.7689  -50.0905 H         1 UNK         0.0600 
    232 H232       -4.8425  -23.7437  -51.0164 H         1 UNK         0.0600 
    233 H233       -5.9934  -22.6613  -51.7988 H         1 UNK         0.0600 
    234 H234       -5.8942  -22.7315  -50.0430 H         1 UNK         0.0600 
    235 H235       -4.6440  -19.8707  -52.8089 H         1 UNK         0.3000 
    236 H236       -5.5454  -17.7102  -51.0086 H         1 UNK         0.0600 
    237 H237       -7.2944  -18.8204  -53.2714 H         1 UNK         0.0600 
    238 H238       -7.6524  -18.9075  -51.5470 H         1 UNK         0.0600 
    239 H239       -7.6260  -17.3511  -52.3594 H         1 UNK         0.0600 
    240 H240       -4.1746  -18.7537  -54.0860 H         1 UNK         0.3000 
    241 H241       -3.0220  -17.7590  -55.6222 H         1 UNK         0.0600 
    242 H242       -6.0743  -17.3359  -55.5662 H         1 UNK         0.3800 
    243 H243       -6.2855  -16.1129  -56.7924 H         1 UNK         0.3800 
    244 H244       -1.8683  -15.5423  -55.2530 H         1 UNK         0.0800 
    245 H245       -2.7488  -15.3511  -53.7636 H         1 UNK         0.0800 
    246 H246       -0.6562  -15.0019  -52.4357 H         1 UNK         0.0800 
    247 H247        0.3359  -16.2970  -51.8207 H         1 UNK         0.0800 
@<TRIPOS>BOND
     1    1    2 1    
     2    1  127 1    
     3    1  128 1    
     4    1  129 1    
     5    2    3 2    
     6    2    4 am   BACKBONE|DICT|INTERRES
     7    4    5 1    
     8    4  130 1    
     9    5    6 1    
    10    5   65 1    
    11    5  131 1    
    12    6    7 1    
    13    6  132 1    
    14    6  133 1    
    15    7    8 1    
    16    8    9 1    
    17    8  134 1    
    18    8  135 1    
    19    9   10 ar   
    20    9   14 ar   
    21   10   11 ar   
    22   10  136 1    
    23   11   12 ar   
    24   11  126 1    
    25   12   13 ar   
    26   12  137 1    
    27   13   14 ar   
    28   13   15 1    
    29   14  138 1    
    30   15   16 1    
    31   15  139 1    
    32   15  140 1    
    33   16   17 1    
    34   17   18 1    
    35   17  141 1    
    36   17  142 1    
    37   18   19 1    
    38   18   67 1    
    39   18  143 1    
    40   19   20 am   BACKBONE|DICT|INTERRES
    41   19  144 1    
    42   20   21 2    
    43   20   22 1    
    44   22   23 1    
    45   22   24 1    
    46   22  145 1    
    47   23  146 1    
    48   23  147 1    
    49   23  148 1    
    50   24   25 am   BACKBONE|DICT|INTERRES
    51   24  149 1    
    52   25   26 2    
    53   25   27 1    
    54   27   28 1    
    55   27   29 1    
    56   27  150 1    
    57   28  151 1    
    58   28  152 1    
    59   28  153 1    
    60   29   30 am   BACKBONE|DICT|INTERRES
    61   29  154 1    
    62   30   31 2    
    63   30   32 1    
    64   32   33 1    
    65   32   34 1    
    66   32  155 1    
    67   33  156 1    
    68   33  157 1    
    69   33  158 1    
    70   34   35 am   BACKBONE|DICT|INTERRES
    71   34  159 1    
    72   35   36 2    
    73   35   37 1    
    74   37   38 1    
    75   37   39 1    
    76   37  160 1    
    77   38  161 1    
    78   38  162 1    
    79   38  163 1    
    80   39   40 am   BACKBONE|DICT|INTERRES
    81   39  164 1    
    82   40   41 2    
    83   40   42 1    
    84   42   43 1    
    85   42   44 1    
    86   42  165 1    
    87   43  166 1    
    88   43  167 1    
    89   43  168 1    
    90   44   45 am   BACKBONE|DICT|INTERRES
    91   44  169 1    
    92   45   46 2    
    93   45   47 1    
    94   47   48 1    
    95   47   49 1    
    96   47  170 1    
    97   48  171 1    
    98   48  172 1    
    99   48  173 1    
   100   49   50 am   BACKBONE|DICT|INTERRES
   101   49  174 1    
   102   50   51 2    
   103   50   52 1    
   104   52   53 1    
   105   52   54 1    
   106   52  175 1    
   107   53  176 1    
   108   53  177 1    
   109   53  178 1    
   110   54   55 am   BACKBONE|DICT|INTERRES
   111   54  179 1    
   112   55   56 2    
   113   55   57 1    
   114   57   58 1    
   115   57   59 1    
   116   57  180 1    
   117   58  181 1    
   118   58  182 1    
   119   58  183 1    
   120   59   60 am   BACKBONE|DICT|INTERRES
   121   59  184 1    
   122   60   61 2    
   123   60   62 1    
   124   62   63 1    
   125   62   64 1    
   126   62  185 1    
   127   63  186 1    
   128   63  187 1    
   129   63  188 1    
   130   64   65 am   BACKBONE|DICT|INTERRES
   131   64  189 1    
   132   65   66 2    
   133   67   68 2    
   134   67   69 am   BACKBONE|DICT|INTERRES
   135   69   70 1    
   136   69  190 1    
   137   70   71 1    
   138   70   72 1    
   139   70  191 1    
   140   71  192 1    
   141   71  193 1    
   142   71  194 1    
   143   72   73 2    
   144   72   74 am   BACKBONE|DICT|INTERRES
   145   74   75 1    
   146   74  195 1    
   147   75   76 1    
   148   75   77 1    
   149   75  196 1    
   150   76  197 1    
   151   76  198 1    
   152   76  199 1    
   153   77   78 2    
   154   77   79 am   BACKBONE|DICT|INTERRES
   155   79   80 1    
   156   79  200 1    
   157   80   81 1    
   158   80   82 1    
   159   80  201 1    
   160   81  202 1    
   161   81  203 1    
   162   81  204 1    
   163   82   83 2    
   164   82   84 am   BACKBONE|DICT|INTERRES
   165   84   85 1    
   166   84  205 1    
   167   85   86 1    
   168   85   87 1    
   169   85  206 1    
   170   86  207 1    
   171   86  208 1    
   172   86  209 1    
   173   87   88 2    
   174   87   89 am   BACKBONE|DICT|INTERRES
   175   89   90 1    
   176   89  210 1    
   177   90   91 1    
   178   90   92 1    
   179   90  211 1    
   180   91  212 1    
   181   91  213 1    
   182   91  214 1    
   183   92   93 2    
   184   92   94 am   BACKBONE|DICT|INTERRES
   185   94   95 1    
   186   94  215 1    
   187   95   96 1    
   188   95   97 1    
   189   95  216 1    
   190   96  217 1    
   191   96  218 1    
   192   96  219 1    
   193   97   98 2    
   194   97   99 am   BACKBONE|DICT|INTERRES
   195   99  100 1    
   196   99  220 1    
   197  100  101 1    
   198  100  102 1    
   199  100  221 1    
   200  101  222 1    
   201  101  223 1    
   202  101  224 1    
   203  102  103 2    
   204  102  104 am   BACKBONE|DICT|INTERRES
   205  104  105 1    
   206  104  225 1    
   207  105  106 1    
   208  105  107 1    
   209  105  226 1    
   210  106  227 1    
   211  106  228 1    
   212  106  229 1    
   213  107  108 2    
   214  107  109 am   BACKBONE|DICT|INTERRES
   215  109  110 1    
   216  109  230 1    
   217  110  111 1    
   218  110  112 1    
   219  110  231 1    
   220  111  232 1    
   221  111  233 1    
   222  111  234 1    
   223  112  113 2    
   224  112  114 am   BACKBONE|DICT|INTERRES
   225  114  115 1    
   226  114  235 1    
   227  115  116 1    
   228  115  117 1    
   229  115  236 1    
   230  116  237 1    
   231  116  238 1    
   232  116  239 1    
   233  117  118 2    
   234  117  119 am   BACKBONE|DICT|INTERRES
   235  119  120 1    
   236  119  240 1    
   237  120  121 1    
   238  120  124 1    
   239  120  241 1    
   240  121  122 am   BACKBONE|DICT|INTERRES
   241  121  123 2    
   242  122  242 1    
   243  122  243 1    
   244  124  125 1    
   245  124  244 1    
   246  124  245 1    
   247  125  126 1    
   248  126  246 1    
   249  126  247 1    
@<TRIPOS>SUBSTRUCTURE
     1 UNK         1 GROUP             0       ****    0 ROOT    
