@<TRIPOS>MOLECULE
3R540
247   249    1
SMALL
USER_CHARGES


@<TRIPOS>ATOM
      1 CA          5.8725  -14.2916  -45.9671 C.3       0 UNK        -0.1800 
      2 C           4.4716  -13.7363  -45.7669 C.2       0 UNK         0.5000 
      3 O           4.0381  -13.5677  -44.6264 O.2       0 UNK        -0.5000 
      4 N           3.7507  -13.4640  -46.8625 N.am      1 UNK        -0.5000 
      5 CA          2.3977  -12.8923  -46.8452 C.3       1 UNK         0.1400 
      6 C6          1.6899  -12.9970  -48.2174 C.3       23 UNK        -0.0398 
      7 S7          1.3739  -14.7304  -48.7017 S.3       23 UNK        -0.2404 
      8 C8         -0.3569  -14.6254  -49.2557 C.3       23 UNK        -0.0205 
      9 C9         -0.9148  -15.9868  -49.6454 C.ar      23 UNK        -0.0193 
     10 C10        -0.8246  -16.4400  -50.9640 C.ar      23 UNK        -0.1150 
     11 C11        -1.3783  -17.6712  -51.3266 C.ar      23 UNK        -0.0193 
     12 C12        -2.0048  -18.4593  -50.3573 C.ar      23 UNK        -0.1150 
     13 C13        -2.1130  -18.0172  -49.0333 C.ar      23 UNK        -0.0193 
     14 C14        -1.5594  -16.7818  -48.6940 C.ar      23 UNK        -0.1150 
     15 C15        -2.7973  -18.8274  -47.9302 C.3       23 UNK        -0.0205 
     16 S16        -3.7880  -20.2515  -48.5048 S.3       23 UNK        -0.2404 
     17 C17        -3.9760  -21.2278  -46.9758 C.3       23 UNK        -0.0398 
     18 CA         -2.8791  -22.3126  -46.8714 C.3       11 UNK         0.1400 
     19 N          -1.5579  -21.7235  -46.6519 N.am      11 UNK        -0.5000 
     20 C          -0.3928  -22.3238  -46.9153 C.2       10 UNK         0.5000 
     21 O          -0.2862  -23.4746  -47.3350 O.2       10 UNK        -0.5000 
     22 CA          0.8677  -21.5026  -46.5991 C.3       10 UNK         0.1400 
     23 CB          1.1531  -20.4944  -47.7225 C.3       10 UNK        -0.1800 
     24 N           0.7632  -20.8101  -45.3101 N.am      10 UNK        -0.5000 
     25 C           0.7476  -21.4601  -44.1359 C.2       9 UNK         0.5000 
     26 O           0.8169  -22.6845  -44.0411 O.2       9 UNK        -0.5000 
     27 CA          0.5991  -20.6351  -42.8468 C.3       9 UNK         0.1400 
     28 CB          1.9766  -20.2884  -42.2626 C.3       9 UNK        -0.1800 
     29 N          -0.2163  -19.4247  -42.9691 N.am      9 UNK        -0.5000 
     30 C          -1.5235  -19.4249  -43.2785 C.2       8 UNK         0.5000 
     31 O          -2.1233  -20.4144  -43.7015 O.2       8 UNK        -0.5000 
     32 CA         -2.2951  -18.1120  -43.0736 C.3       8 UNK         0.1400 
     33 CB         -2.5891  -17.8879  -41.5822 C.3       8 UNK        -0.1800 
     34 N          -1.5359  -16.9790  -43.5907 N.am      8 UNK        -0.5000 
     35 C          -1.9133  -16.2166  -44.6252 C.2       7 UNK         0.5000 
     36 O          -3.0123  -16.2872  -45.1753 O.2       7 UNK        -0.5000 
     37 CA         -0.8612  -15.2266  -45.1641 C.3       7 UNK         0.1400 
     38 CB         -0.9606  -13.8907  -44.4146 C.3       7 UNK        -0.1800 
     39 N           0.5148  -15.7211  -45.0783 N.am      7 UNK        -0.5000 
     40 C           0.9808  -16.9155  -45.4810 C.2       6 UNK         0.5000 
     41 O           0.3124  -17.7682  -46.0635 O.2       6 UNK        -0.5000 
     42 CA          2.4255  -17.2560  -45.0742 C.3       6 UNK         0.1400 
     43 CB          3.3713  -17.1461  -46.2773 C.3       6 UNK        -0.1800 
     44 N           2.9270  -16.4406  -43.9605 N.am      6 UNK        -0.5000 
     45 C           2.4270  -16.4446  -42.7146 C.2       5 UNK         0.5000 
     46 O           1.4474  -17.1114  -42.3727 O.2       5 UNK        -0.5000 
     47 CA          3.0863  -15.4830  -41.7181 C.3       5 UNK         0.1400 
     48 CB          4.6176  -15.6363  -41.6869 C.3       5 UNK        -0.1800 
     49 N           2.7461  -14.1114  -42.0832 N.am      5 UNK        -0.5000 
     50 C           1.7294  -13.4087  -41.5661 C.2       4 UNK         0.5000 
     51 O           0.9683  -13.8499  -40.7039 O.2       4 UNK        -0.5000 
     52 CA          1.5174  -11.9810  -42.1173 C.3       4 UNK         0.1400 
     53 CB          0.8290  -11.0392  -41.1077 C.3       4 UNK        -0.1800 
     54 N           2.7381  -11.3766  -42.6594 N.am      4 UNK        -0.5000 
     55 C           3.8594  -11.0474  -41.9978 C.2       3 UNK         0.5000 
     56 O           3.9976  -11.1686  -40.7802 O.2       3 UNK        -0.5000 
     57 CA          5.0404  -10.5139  -42.8361 C.3       3 UNK         0.1400 
     58 CB          6.2405  -11.4723  -42.7507 C.3       3 UNK        -0.1800 
     59 N           4.6936  -10.3266  -44.2464 N.am      3 UNK        -0.5000 
     60 C           4.1016   -9.2391  -44.7591 C.2       2 UNK         0.5000 
     61 O           3.8481   -8.2263  -44.1068 O.2       2 UNK        -0.5000 
     62 CA          3.7014   -9.3073  -46.2471 C.3       2 UNK         0.1400 
     63 CB          4.7875   -8.6683  -47.1257 C.3       2 UNK        -0.1800 
     64 N           3.4525  -10.6751  -46.7142 N.am      2 UNK        -0.5000 
     65 C           2.4145  -11.4365  -46.3359 C.2       1 UNK         0.5000 
     66 O           1.5343  -11.0538  -45.5658 O.2       1 UNK        -0.5000 
     67 C          -3.2125  -23.3616  -45.7938 C.2       11 UNK         0.5000 
     68 O          -3.9097  -24.3308  -46.0931 O.2       11 UNK        -0.5000 
     69 N          -2.6886  -23.1760  -44.5732 N.am      12 UNK        -0.5000 
     70 CA         -2.7543  -24.1596  -43.4934 C.3       12 UNK         0.1400 
     71 CB         -2.3281  -23.5031  -42.1720 C.3       12 UNK        -0.1800 
     72 C          -1.8951  -25.4037  -43.7898 C.2       12 UNK         0.5000 
     73 O          -2.3380  -26.5210  -43.5209 O.2       12 UNK        -0.5000 
     74 N          -0.6930  -25.1918  -44.3463 N.am      13 UNK        -0.5000 
     75 CA          0.2313  -26.2513  -44.7488 C.3       13 UNK         0.1400 
     76 CB          1.6235  -25.6564  -45.0110 C.3       13 UNK        -0.1800 
     77 C          -0.2612  -27.0385  -45.9753 C.2       13 UNK         0.5000 
     78 O          -0.1708  -28.2673  -45.9757 O.2       13 UNK        -0.5000 
     79 N          -0.7730  -26.3302  -46.9894 N.am      14 UNK        -0.5000 
     80 CA         -1.2744  -26.9112  -48.2272 C.3       14 UNK         0.1400 
     81 CB         -0.1413  -26.9745  -49.2671 C.3       14 UNK        -0.1800 
     82 C          -2.4606  -26.0857  -48.7373 C.2       14 UNK         0.5000 
     83 O          -2.2658  -24.9887  -49.2636 O.2       14 UNK        -0.5000 
     84 N          -3.6714  -26.6519  -48.6346 N.am      15 UNK        -0.5000 
     85 CA         -4.9213  -26.0685  -49.1427 C.3       15 UNK         0.1400 
     86 CB         -6.1011  -26.9515  -48.7115 C.3       15 UNK        -0.1800 
     87 C          -4.9351  -25.8572  -50.6718 C.2       15 UNK         0.5000 
     88 O          -5.7208  -25.0510  -51.1716 O.2       15 UNK        -0.5000 
     89 N          -4.0237  -26.5396  -51.3802 N.am      16 UNK        -0.5000 
     90 CA         -3.7102  -26.3524  -52.7948 C.3       16 UNK         0.1400 
     91 CB         -2.5826  -27.3177  -53.1888 C.3       16 UNK        -0.1800 
     92 C          -3.3274  -24.9045  -53.1607 C.2       16 UNK         0.5000 
     93 O          -3.6242  -24.4803  -54.2746 O.2       16 UNK        -0.5000 
     94 N          -2.7227  -24.1588  -52.2217 N.am      17 UNK        -0.5000 
     95 CA         -2.3883  -22.7417  -52.3888 C.3       17 UNK         0.1400 
     96 CB         -1.4976  -22.2914  -51.2199 C.3       17 UNK        -0.1800 
     97 C          -3.6375  -21.8453  -52.5012 C.2       17 UNK         0.5000 
     98 O          -3.6332  -20.8807  -53.2674 O.2       17 UNK        -0.5000 
     99 N          -4.6970  -22.1963  -51.7601 N.am      18 UNK        -0.5000 
    100 CA        -5.9949  -21.5331  -51.8335 C.3       18 UNK         0.1400 
    101 CB        -6.7967  -21.8019  -50.5507 C.3       18 UNK        -0.1800 
    102 C         -6.7782  -21.9864  -53.0761 C.2       18 UNK         0.5000 
    103 O         -7.3402  -21.1439  -53.7767 O.2       18 UNK        -0.5000 
    104 N         -6.7888  -23.3025  -53.3334 N.am      19 UNK        -0.5000 
    105 CA        -7.5024  -23.9234  -54.4521 C.3       19 UNK         0.1400 
    106 CB        -7.4759  -25.4498  -54.2902 C.3       19 UNK        -0.1800 
    107 C         -6.9564  -23.5155  -55.8339 C.2       19 UNK         0.5000 
    108 O         -7.7417  -23.3415  -56.7665 O.2       19 UNK        -0.5000 
    109 N         -5.6333  -23.3494  -55.9337 N.am      20 UNK        -0.5000 
    110 CA        -4.9186  -22.9024  -57.1215 C.3       20 UNK         0.1400 
    111 CB        -4.2239  -24.1143  -57.7700 C.3       20 UNK        -0.1800 
    112 C         -3.9243  -21.8003  -56.6999 C.2       20 UNK         0.5000 
    113 O         -2.7466  -22.0950  -56.4988 O.2       20 UNK        -0.5000 
    114 N         -4.3559  -20.5434  -56.5294 N.am      21 UNK        -0.5000 
    115 CA        -5.7022  -20.0089  -56.7511 C.3       21 UNK         0.1400 
    116 CB        -5.8855  -19.6649  -58.2450 C.3       21 UNK        -0.1800 
    117 C         -5.9622  -18.7896  -55.8452 C.2       21 UNK         0.5000 
    118 O         -6.7339  -17.9065  -56.2241 O.2       21 UNK        -0.5000 
    119 N         -5.2962  -18.7299  -54.6842 N.am      22 UNK        -0.5000 
    120 CA        -5.3574  -17.5848  -53.7597 C.3       22 UNK         0.1400 
    121 C         -6.6657  -17.4676  -52.9213 C.2       22 UNK         0.5000 
    122 N         -7.5720  -18.4364  -52.9338 N.am      22 UNK        -0.7600 
    123 O         -6.8733  -16.4587  -52.2528 O.2       22 UNK        -0.5000 
    124 C124       -4.1064  -17.5214  -52.8531 C.3       23 UNK        -0.0398 
    125 S125       -2.5638  -17.2655  -53.8008 S.3       23 UNK        -0.2404 
    126 C126       -1.3386  -18.1395  -52.7735 C.3       23 UNK        -0.0205 
    127 H127        6.6097  -13.6010  -45.5578 H         1 UNK         0.0600 
    128 H128        6.0987  -14.4490  -47.0218 H         1 UNK         0.0600 
    129 H129        5.9749  -15.2457  -45.4507 H         1 UNK         0.0600 
    130 H130        4.1383  -13.6536  -47.7761 H         1 UNK         0.3000 
    131 H131        1.8096  -13.4646  -46.1263 H         1 UNK         0.0600 
    132 H132        0.7391  -12.4612  -48.1912 H         1 UNK         0.0800 
    133 H133        2.2844  -12.5201  -48.9984 H         1 UNK         0.0800 
    134 H134       -0.9694  -14.1890  -48.4658 H         1 UNK         0.0800 
    135 H135       -0.4205  -13.9421  -50.1040 H         1 UNK         0.0800 
    136 H136       -0.3444  -15.8264  -51.7133 H         1 UNK         0.1150 
    137 H137       -2.4256  -19.4077  -50.6540 H         1 UNK         0.1150 
    138 H138       -1.6397  -16.4440  -47.6754 H         1 UNK         0.1150 
    139 H139       -2.0242  -19.1634  -47.2412 H         1 UNK         0.0800 
    140 H140       -3.4523  -18.1702  -47.3559 H         1 UNK         0.0800 
    141 H141       -4.9661  -21.6863  -47.0096 H         1 UNK         0.0800 
    142 H142       -3.9710  -20.5710  -46.1038 H         1 UNK         0.0800 
    143 H143       -2.8518  -22.8484  -47.8223 H         1 UNK         0.0600 
    144 H144       -1.5389  -20.8026  -46.2408 H         1 UNK         0.3000 
    145 H145        1.7113  -22.1945  -46.5470 H         1 UNK         0.0600 
    146 H146        1.2641  -21.0025  -48.6813 H         1 UNK         0.0600 
    147 H147        2.0773  -19.9494  -47.5358 H         1 UNK         0.0600 
    148 H148        0.3488  -19.7667  -47.8332 H         1 UNK         0.0600 
    149 H149        0.6440  -19.8048  -45.3330 H         1 UNK         0.3000 
    150 H150        0.0962  -21.2746  -42.1194 H         1 UNK         0.0600 
    151 H151        2.5575  -19.6562  -42.9319 H         1 UNK         0.0600 
    152 H152        2.5604  -21.1920  -42.0823 H         1 UNK         0.0600 
    153 H153        1.8822  -19.7695  -41.3085 H         1 UNK         0.0600 
    154 H154        0.2262  -18.5680  -42.6509 H         1 UNK         0.3000 
    155 H155       -3.2492  -18.2116  -43.5954 H         1 UNK         0.0600 
    156 H156       -1.6732  -17.7702  -41.0014 H         1 UNK         0.0600 
    157 H157       -3.1411  -18.7295  -41.1616 H         1 UNK         0.0600 
    158 H158       -3.1954  -16.9943  -41.4332 H         1 UNK         0.0600 
    159 H159       -0.6036  -16.8500  -43.2186 H         1 UNK         0.3000 
    160 H160       -1.0751  -15.0262  -46.2113 H         1 UNK         0.0600 
    161 H161       -0.2859  -13.1473  -44.8379 H         1 UNK         0.0600 
    162 H162       -0.7245  -14.0061  -43.3563 H         1 UNK         0.0600 
    163 H163       -1.9696  -13.4814  -44.4807 H         1 UNK         0.0600 
    164 H164        1.1661  -15.1301  -44.5854 H         1 UNK         0.3000 
    165 H165        2.4298  -18.2960  -44.7478 H         1 UNK         0.0600 
    166 H166        4.4040  -17.3528  -45.9966 H         1 UNK         0.0600 
    167 H167        3.0962  -17.8618  -47.0519 H         1 UNK         0.0600 
    168 H168        3.3303  -16.1601  -46.7344 H         1 UNK         0.0600 
    169 H169        3.6903  -15.8110  -44.1658 H         1 UNK         0.3000 
    170 H170        2.7060  -15.7195  -40.7221 H         1 UNK         0.0600 
    171 H171        5.0511  -15.0205  -40.8986 H         1 UNK         0.0600 
    172 H172        5.0849  -15.3396  -42.6265 H         1 UNK         0.0600 
    173 H173        4.9036  -16.6695  -41.4855 H         1 UNK         0.0600 
    174 H174        3.2879  -13.6981  -42.8370 H         1 UNK         0.3000 
    175 H175        0.8438  -12.0855  -42.9671 H         1 UNK         0.0600 
    176 H176       -0.1607  -11.4104  -40.8394 H         1 UNK         0.0600 
    177 H177        1.4014  -10.9433  -40.1849 H         1 UNK         0.0600 
    178 H178        0.6964  -10.0417  -41.5267 H         1 UNK         0.0600 
    179 H179        2.7299  -11.2337  -43.6607 H         1 UNK         0.3000 
    180 H180        5.3398   -9.5549  -42.4083 H         1 UNK         0.0600 
    181 H181        5.9920  -12.4673  -43.1206 H         1 UNK         0.0600 
    182 H182        6.5790  -11.5839  -41.7199 H         1 UNK         0.0600 
    183 H183        7.0859  -11.0998  -43.3294 H         1 UNK         0.0600 
    184 H184        4.8464  -11.1201  -44.8510 H         1 UNK         0.3000 
    185 H185        2.7807   -8.7323  -46.3677 H         1 UNK         0.0600 
    186 H186        4.9795   -7.6382  -46.8220 H         1 UNK         0.0600 
    187 H187        5.7311   -9.2113  -47.0591 H         1 UNK         0.0600 
    188 H188        4.4853   -8.6456  -48.1728 H         1 UNK         0.0600 
    189 H189        4.1410  -11.0722  -47.3370 H         1 UNK         0.3000 
    190 H190       -2.1976  -22.3104  -44.3760 H         1 UNK         0.3000 
    191 H191       -3.7924  -24.4830  -43.3913 H         1 UNK         0.0600 
    192 H192       -2.9378  -22.6270  -41.9499 H         1 UNK         0.0600 
    193 H193       -2.4397  -24.1984  -41.3392 H         1 UNK         0.0600 
    194 H194       -1.2852  -23.1892  -42.1976 H         1 UNK         0.0600 
    195 H195       -0.3693  -24.2391  -44.4775 H         1 UNK         0.3000 
    196 H196        0.3206  -26.9545  -43.9180 H         1 UNK         0.0600 
    197 H197        2.3286  -26.4298  -45.3177 H         1 UNK         0.0600 
    198 H198        2.0263  -25.1881  -44.1129 H         1 UNK         0.0600 
    199 H199        1.5984  -24.9026  -45.7988 H         1 UNK         0.0600 
    200 H200       -0.7807  -25.3131  -46.9477 H         1 UNK         0.3000 
    201 H201       -1.6255  -27.9293  -48.0457 H         1 UNK         0.0600 
    202 H202       -0.5027  -27.3692  -50.2173 H         1 UNK         0.0600 
    203 H203        0.6665  -27.6244  -48.9305 H         1 UNK         0.0600 
    204 H204        0.2826  -25.9877  -49.4592 H         1 UNK         0.0600 
    205 H205       -3.7527  -27.5510  -48.1819 H         1 UNK         0.3000 
    206 H206       -5.0404  -25.0859  -48.6812 H         1 UNK         0.0600 
    207 H207       -6.1548  -27.0341  -47.6258 H         1 UNK         0.0600 
    208 H208       -7.0487  -26.5307  -49.0507 H         1 UNK         0.0600 
    209 H209       -6.0222  -27.9583  -49.1236 H         1 UNK         0.0600 
    210 H210       -3.4345  -27.1843  -50.8760 H         1 UNK         0.3000 
    211 H211       -4.6001  -26.6183  -53.3653 H         1 UNK         0.0600 
    212 H212       -1.6690  -27.1200  -52.6267 H         1 UNK         0.0600 
    213 H213       -2.3424  -27.2246  -54.2489 H         1 UNK         0.0600 
    214 H214       -2.8695  -28.3545  -53.0123 H         1 UNK         0.0600 
    215 H215       -2.5279  -24.5652  -51.3126 H         1 UNK         0.3000 
    216 H216       -1.8190  -22.6361  -53.3149 H         1 UNK         0.0600 
    217 H217       -1.1464  -21.2702  -51.3666 H         1 UNK         0.0600 
    218 H218       -0.6158  -22.9254  -51.1267 H         1 UNK         0.0600 
    219 H219       -2.0308  -22.3241  -50.2686 H         1 UNK         0.0600 
    220 H220       -4.6458  -23.0361  -51.2003 H         1 UNK         0.3000 
    221 H221       -5.8320  -20.4559  -51.9041 H         1 UNK         0.0600 
    222 H222       -7.0111  -22.8619  -50.4151 H         1 UNK         0.0600 
    223 H223       -6.2603  -21.4550  -49.6685 H         1 UNK         0.0600 
    224 H224       -7.7520  -21.2762  -50.5753 H         1 UNK         0.0600 
    225 H225       -6.3265  -23.9275  -52.6800 H         1 UNK         0.3000 
    226 H226       -8.5428  -23.5961  -54.3984 H         1 UNK         0.0600 
    227 H227       -8.0970  -25.9311  -55.0466 H         1 UNK         0.0600 
    228 H228       -6.4669  -25.8447  -54.3991 H         1 UNK         0.0600 
    229 H229       -7.8548  -25.7539  -53.3141 H         1 UNK         0.0600 
    230 H230       -5.0417  -23.5532  -55.1315 H         1 UNK         0.3000 
    231 H231       -5.6088  -22.4957  -57.8595 H         1 UNK         0.0600 
    232 H232       -3.5392  -24.6077  -57.0790 H         1 UNK         0.0600 
    233 H233       -3.6488  -23.8113  -58.6457 H         1 UNK         0.0600 
    234 H234       -4.9535  -24.8543  -58.0991 H         1 UNK         0.0600 
    235 H235       -3.6841  -19.8570  -56.2163 H         1 UNK         0.3000 
    236 H236       -6.4500  -20.7473  -56.4649 H         1 UNK         0.0600 
    237 H237       -5.6773  -20.5117  -58.8970 H         1 UNK         0.0600 
    238 H238       -6.9092  -19.3500  -58.4512 H         1 UNK         0.0600 
    239 H239       -5.2254  -18.8509  -58.5469 H         1 UNK         0.0600 
    240 H240       -4.7067  -19.5045  -54.3961 H         1 UNK         0.3000 
    241 H241       -5.3428  -16.6803  -54.3713 H         1 UNK         0.0600 
    242 H242       -7.4295  -19.2928  -53.4618 H         1 UNK         0.3800 
    243 H243       -8.4161  -18.3220  -52.3966 H         1 UNK         0.3800 
    244 H244       -4.0358  -18.4370  -52.2659 H         1 UNK         0.0800 
    245 H245       -4.1818  -16.7026  -52.1351 H         1 UNK         0.0800 
    246 H246       -0.3426  -17.9717  -53.1852 H         1 UNK         0.0800 
    247 H247       -1.5190  -19.2132  -52.8383 H         1 UNK         0.0800 
@<TRIPOS>BOND
     1    1    2 1    
     2    1  127 1    
     3    1  128 1    
     4    1  129 1    
     5    2    3 2    
     6    2    4 am   BACKBONE|DICT|INTERRES
     7    4    5 1    
     8    4  130 1    
     9    5    6 1    
    10    5   65 1    
    11    5  131 1    
    12    6    7 1    
    13    6  132 1    
    14    6  133 1    
    15    7    8 1    
    16    8    9 1    
    17    8  134 1    
    18    8  135 1    
    19    9   10 ar   
    20    9   14 ar   
    21   10   11 ar   
    22   10  136 1    
    23   11   12 ar   
    24   11  126 1    
    25   12   13 ar   
    26   12  137 1    
    27   13   14 ar   
    28   13   15 1    
    29   14  138 1    
    30   15   16 1    
    31   15  139 1    
    32   15  140 1    
    33   16   17 1    
    34   17   18 1    
    35   17  141 1    
    36   17  142 1    
    37   18   19 1    
    38   18   67 1    
    39   18  143 1    
    40   19   20 am   BACKBONE|DICT|INTERRES
    41   19  144 1    
    42   20   21 2    
    43   20   22 1    
    44   22   23 1    
    45   22   24 1    
    46   22  145 1    
    47   23  146 1    
    48   23  147 1    
    49   23  148 1    
    50   24   25 am   BACKBONE|DICT|INTERRES
    51   24  149 1    
    52   25   26 2    
    53   25   27 1    
    54   27   28 1    
    55   27   29 1    
    56   27  150 1    
    57   28  151 1    
    58   28  152 1    
    59   28  153 1    
    60   29   30 am   BACKBONE|DICT|INTERRES
    61   29  154 1    
    62   30   31 2    
    63   30   32 1    
    64   32   33 1    
    65   32   34 1    
    66   32  155 1    
    67   33  156 1    
    68   33  157 1    
    69   33  158 1    
    70   34   35 am   BACKBONE|DICT|INTERRES
    71   34  159 1    
    72   35   36 2    
    73   35   37 1    
    74   37   38 1    
    75   37   39 1    
    76   37  160 1    
    77   38  161 1    
    78   38  162 1    
    79   38  163 1    
    80   39   40 am   BACKBONE|DICT|INTERRES
    81   39  164 1    
    82   40   41 2    
    83   40   42 1    
    84   42   43 1    
    85   42   44 1    
    86   42  165 1    
    87   43  166 1    
    88   43  167 1    
    89   43  168 1    
    90   44   45 am   BACKBONE|DICT|INTERRES
    91   44  169 1    
    92   45   46 2    
    93   45   47 1    
    94   47   48 1    
    95   47   49 1    
    96   47  170 1    
    97   48  171 1    
    98   48  172 1    
    99   48  173 1    
   100   49   50 am   BACKBONE|DICT|INTERRES
   101   49  174 1    
   102   50   51 2    
   103   50   52 1    
   104   52   53 1    
   105   52   54 1    
   106   52  175 1    
   107   53  176 1    
   108   53  177 1    
   109   53  178 1    
   110   54   55 am   BACKBONE|DICT|INTERRES
   111   54  179 1    
   112   55   56 2    
   113   55   57 1    
   114   57   58 1    
   115   57   59 1    
   116   57  180 1    
   117   58  181 1    
   118   58  182 1    
   119   58  183 1    
   120   59   60 am   BACKBONE|DICT|INTERRES
   121   59  184 1    
   122   60   61 2    
   123   60   62 1    
   124   62   63 1    
   125   62   64 1    
   126   62  185 1    
   127   63  186 1    
   128   63  187 1    
   129   63  188 1    
   130   64   65 am   BACKBONE|DICT|INTERRES
   131   64  189 1    
   132   65   66 2    
   133   67   68 2    
   134   67   69 am   BACKBONE|DICT|INTERRES
   135   69   70 1    
   136   69  190 1    
   137   70   71 1    
   138   70   72 1    
   139   70  191 1    
   140   71  192 1    
   141   71  193 1    
   142   71  194 1    
   143   72   73 2    
   144   72   74 am   BACKBONE|DICT|INTERRES
   145   74   75 1    
   146   74  195 1    
   147   75   76 1    
   148   75   77 1    
   149   75  196 1    
   150   76  197 1    
   151   76  198 1    
   152   76  199 1    
   153   77   78 2    
   154   77   79 am   BACKBONE|DICT|INTERRES
   155   79   80 1    
   156   79  200 1    
   157   80   81 1    
   158   80   82 1    
   159   80  201 1    
   160   81  202 1    
   161   81  203 1    
   162   81  204 1    
   163   82   83 2    
   164   82   84 am   BACKBONE|DICT|INTERRES
   165   84   85 1    
   166   84  205 1    
   167   85   86 1    
   168   85   87 1    
   169   85  206 1    
   170   86  207 1    
   171   86  208 1    
   172   86  209 1    
   173   87   88 2    
   174   87   89 am   BACKBONE|DICT|INTERRES
   175   89   90 1    
   176   89  210 1    
   177   90   91 1    
   178   90   92 1    
   179   90  211 1    
   180   91  212 1    
   181   91  213 1    
   182   91  214 1    
   183   92   93 2    
   184   92   94 am   BACKBONE|DICT|INTERRES
   185   94   95 1    
   186   94  215 1    
   187   95   96 1    
   188   95   97 1    
   189   95  216 1    
   190   96  217 1    
   191   96  218 1    
   192   96  219 1    
   193   97   98 2    
   194   97   99 am   BACKBONE|DICT|INTERRES
   195   99  100 1    
   196   99  220 1    
   197  100  101 1    
   198  100  102 1    
   199  100  221 1    
   200  101  222 1    
   201  101  223 1    
   202  101  224 1    
   203  102  103 2    
   204  102  104 am   BACKBONE|DICT|INTERRES
   205  104  105 1    
   206  104  225 1    
   207  105  106 1    
   208  105  107 1    
   209  105  226 1    
   210  106  227 1    
   211  106  228 1    
   212  106  229 1    
   213  107  108 2    
   214  107  109 am   BACKBONE|DICT|INTERRES
   215  109  110 1    
   216  109  230 1    
   217  110  111 1    
   218  110  112 1    
   219  110  231 1    
   220  111  232 1    
   221  111  233 1    
   222  111  234 1    
   223  112  113 2    
   224  112  114 am   BACKBONE|DICT|INTERRES
   225  114  115 1    
   226  114  235 1    
   227  115  116 1    
   228  115  117 1    
   229  115  236 1    
   230  116  237 1    
   231  116  238 1    
   232  116  239 1    
   233  117  118 2    
   234  117  119 am   BACKBONE|DICT|INTERRES
   235  119  120 1    
   236  119  240 1    
   237  120  121 1    
   238  120  124 1    
   239  120  241 1    
   240  121  122 am   BACKBONE|DICT|INTERRES
   241  121  123 2    
   242  122  242 1    
   243  122  243 1    
   244  124  125 1    
   245  124  244 1    
   246  124  245 1    
   247  125  126 1    
   248  126  246 1    
   249  126  247 1    
@<TRIPOS>SUBSTRUCTURE
     1 UNK         1 GROUP             0       ****    0 ROOT    
