@<TRIPOS>MOLECULE
3R540
247   249    1
SMALL
USER_CHARGES


@<TRIPOS>ATOM
      1 CA          7.0454  -14.2983  -46.8398 C.3       0 UNK        -0.1800 
      2 C           6.0120  -13.4987  -46.0601 C.2       0 UNK         0.5000 
      3 O           6.1149  -13.3885  -44.8382 O.2       0 UNK        -0.5000 
      4 N           5.0272  -12.9241  -46.7616 N.am      1 UNK        -0.5000 
      5 CA          3.8976  -12.1663  -46.2070 C.3       1 UNK         0.1400 
      6 C6          2.6813  -12.1568  -47.1675 C.3       23 UNK        -0.0398 
      7 S7          2.0159  -13.8215  -47.4978 S.3       23 UNK        -0.2404 
      8 C8          2.6965  -14.1591  -49.1511 C.3       23 UNK        -0.0205 
      9 C9          1.9609  -15.3074  -49.8196 C.ar      23 UNK        -0.0193 
     10 C10         0.6969  -15.0851  -50.3694 C.ar      23 UNK        -0.1150 
     11 C11        -0.0105  -16.1239  -50.9769 C.ar      23 UNK        -0.0193 
     12 C12         0.5699  -17.3958  -51.0472 C.ar      23 UNK        -0.1150 
     13 C13         1.8439  -17.6283  -50.5188 C.ar      23 UNK        -0.0193 
     14 C14         2.5317  -16.5811  -49.8967 C.ar      23 UNK        -0.1150 
     15 C15         2.4892  -19.0019  -50.6430 C.3       23 UNK        -0.0205 
     16 S16         2.1778  -20.0522  -49.1895 S.3       23 UNK        -0.2404 
     17 C17         0.4187  -20.4701  -49.4207 C.3       23 UNK        -0.0398 
     18 CA         -0.0315  -21.6478  -48.5232 C.3       11 UNK         0.1400 
     19 N          -0.0648  -21.3001  -47.0994 N.am      11 UNK        -0.5000 
     20 C          -0.3056  -22.1620  -46.1000 C.2       10 UNK         0.5000 
     21 O          -0.4564  -23.3729  -46.2610 O.2       10 UNK        -0.5000 
     22 CA         -0.4812  -21.5614  -44.6924 C.3       10 UNK         0.1400 
     23 CB          0.8749  -21.2505  -44.0426 C.3       10 UNK        -0.1800 
     24 N          -1.3191  -20.3607  -44.7140 N.am      10 UNK        -0.5000 
     25 C          -2.6159  -20.3600  -45.0551 C.2       9 UNK         0.5000 
     26 O          -3.2554  -21.3839  -45.2928 O.2       9 UNK        -0.5000 
     27 CA         -3.3029  -18.9923  -45.2065 C.3       9 UNK         0.1400 
     28 CB         -3.8841  -18.5146  -43.8673 C.3       9 UNK        -0.1800 
     29 N          -2.3947  -17.9806  -45.7440 N.am      9 UNK        -0.5000 
     30 C          -1.9888  -17.9268  -47.0209 C.2       8 UNK         0.5000 
     31 O          -2.3684  -18.7101  -47.8946 O.2       8 UNK        -0.5000 
     32 CA         -0.9513  -16.8385  -47.3624 C.3       8 UNK         0.1400 
     33 CB         -1.6499  -15.4944  -47.6145 C.3       8 UNK        -0.1800 
     34 N           0.0636  -16.6661  -46.3193 N.am      8 UNK        -0.5000 
     35 C           0.9281  -17.6203  -45.9439 C.2       7 UNK         0.5000 
     36 O           0.9722  -18.7324  -46.4622 O.2       7 UNK        -0.5000 
     37 CA          1.8365  -17.3291  -44.7327 C.3       7 UNK         0.1400 
     38 CB          3.1727  -16.7183  -45.1801 C.3       7 UNK        -0.1800 
     39 N           1.2109  -16.4763  -43.7187 N.am      7 UNK        -0.5000 
     40 C           0.0528  -16.7520  -43.0963 C.2       6 UNK         0.5000 
     41 O          -0.5718  -17.7973  -43.2785 O.2       6 UNK        -0.5000 
     42 CA         -0.5351  -15.6965  -42.1350 C.3       6 UNK         0.1400 
     43 CB         -0.4588  -16.1932  -40.6833 C.3       6 UNK        -0.1800 
     44 N           0.1054  -14.3837  -42.2154 N.am      6 UNK        -0.5000 
     45 C           0.0977  -13.5623  -43.2750 C.2       5 UNK         0.5000 
     46 O          -0.5439  -13.7810  -44.3028 O.2       5 UNK        -0.5000 
     47 CA          1.0073  -12.3173  -43.1881 C.3       5 UNK         0.1400 
     48 CB          0.1855  -11.0653  -42.8513 C.3       5 UNK        -0.1800 
     49 N           2.1052  -12.4411  -42.2192 N.am      5 UNK        -0.5000 
     50 C           3.0777  -13.3628  -42.2569 C.2       4 UNK         0.5000 
     51 O           3.1445  -14.2271  -43.1304 O.2       4 UNK        -0.5000 
     52 CA          4.1236  -13.3154  -41.1241 C.3       4 UNK         0.1400 
     53 CB          5.2311  -14.3700  -41.2970 C.3       4 UNK        -0.1800 
     54 N           4.7428  -11.9952  -41.0243 N.am      4 UNK        -0.5000 
     55 C           4.2393  -10.9385  -40.3716 C.2       3 UNK         0.5000 
     56 O           3.1814  -10.9680  -39.7422 O.2       3 UNK        -0.5000 
     57 CA          5.0274   -9.6187  -40.4916 C.3       3 UNK         0.1400 
     58 CB          6.0953   -9.5219  -39.3918 C.3       3 UNK        -0.1800 
     59 N           5.6666   -9.4819  -41.8033 N.am      3 UNK        -0.5000 
     60 C           4.9941   -9.3008  -42.9486 C.2       2 UNK         0.5000 
     61 O           3.7805   -9.0923  -42.9907 O.2       2 UNK        -0.5000 
     62 CA          5.7854   -9.4251  -44.2650 C.3       2 UNK         0.1400 
     63 CB          7.3151   -9.4886  -44.0818 C.3       2 UNK        -0.1800 
     64 N           5.3457  -10.6408  -44.9427 N.am      2 UNK        -0.5000 
     65 C           4.3086  -10.7362  -45.7812 C.2       1 UNK         0.5000 
     66 O           3.6971   -9.7584  -46.2162 O.2       1 UNK        -0.5000 
     67 C          -1.3844  -22.2066  -49.0057 C.2       11 UNK         0.5000 
     68 O          -1.3913  -23.2121  -49.7141 O.2       11 UNK        -0.5000 
     69 N          -2.4986  -21.5827  -48.5898 N.am      12 UNK        -0.5000 
     70 CA         -3.8575  -22.0487  -48.8795 C.3       12 UNK         0.1400 
     71 CB         -4.8972  -21.0458  -48.3550 C.3       12 UNK        -0.1800 
     72 C          -4.1327  -23.4457  -48.3004 C.2       12 UNK         0.5000 
     73 O          -4.6243  -24.3115  -49.0230 O.2       12 UNK        -0.5000 
     74 N          -3.7887  -23.6450  -47.0207 N.am      13 UNK        -0.5000 
     75 CA         -3.9251  -24.9153  -46.3088 C.3       13 UNK         0.1400 
     76 CB         -3.5655  -24.7178  -44.8287 C.3       13 UNK        -0.1800 
     77 C          -3.0849  -26.0424  -46.9344 C.2       13 UNK         0.5000 
     78 O          -3.5996  -27.1467  -47.1168 O.2       13 UNK        -0.5000 
     79 N          -1.8282  -25.7312  -47.2857 N.am      14 UNK        -0.5000 
     80 CA         -0.9067  -26.6331  -47.9786 C.3       14 UNK         0.1400 
     81 CB          0.4849  -25.9879  -48.0591 C.3       14 UNK        -0.1800 
     82 C          -1.4067  -27.0289  -49.3795 C.2       14 UNK         0.5000 
     83 O          -1.3413  -28.2045  -49.7405 O.2       14 UNK        -0.5000 
     84 N          -1.9523  -26.0578  -50.1220 N.am      15 UNK        -0.5000 
     85 CA         -2.5696  -26.2317  -51.4365 C.3       15 UNK         0.1400 
     86 CB         -2.4736  -24.9052  -52.2055 C.3       15 UNK        -0.1800 
     87 C          -4.0206  -26.7514  -51.3447 C.2       15 UNK         0.5000 
     88 O          -4.9103  -26.2034  -51.9966 O.2       15 UNK        -0.5000 
     89 N          -4.2278  -27.8028  -50.5386 N.am      16 UNK        -0.5000 
     90 CA         -5.4590  -28.5832  -50.3712 C.3       16 UNK         0.1400 
     91 CB         -5.6483  -29.5172  -51.5836 C.3       16 UNK        -0.1800 
     92 C          -6.7149  -27.7393  -50.0594 C.2       16 UNK         0.5000 
     93 O          -7.7830  -27.9956  -50.6179 O.2       16 UNK        -0.5000 
     94 N          -6.5522  -26.7510  -49.1680 N.am      17 UNK        -0.5000 
     95 CA         -7.5572  -25.7716  -48.7421 C.3       17 UNK         0.1400 
     96 CB         -8.7299  -26.4534  -48.0054 C.3       17 UNK        -0.1800 
     97 C          -8.0042  -24.8600  -49.9042 C.2       17 UNK         0.5000 
     98 O          -9.1889  -24.8056  -50.2400 O.2       17 UNK        -0.5000 
     99 N          -7.0216  -24.1529  -50.4782 N.am      18 UNK        -0.5000 
    100 CA        -7.1350  -23.1560  -51.5467 C.3       18 UNK         0.1400 
    101 CB        -7.9660  -21.9418  -51.0776 C.3       18 UNK        -0.1800 
    102 C         -7.6398  -23.7442  -52.8796 C.2       18 UNK         0.5000 
    103 O         -8.4733  -23.1316  -53.5518 O.2       18 UNK        -0.5000 
    104 N         -7.1154  -24.9161  -53.2611 N.am      19 UNK        -0.5000 
    105 CA        -7.3931  -25.5782  -54.5351 C.3       19 UNK         0.1400 
    106 CB        -7.0448  -27.0716  -54.4161 C.3       19 UNK        -0.1800 
    107 C         -6.6280  -24.8808  -55.6774 C.2       19 UNK         0.5000 
    108 O         -5.5650  -25.3495  -56.0884 O.2       19 UNK        -0.5000 
    109 N         -7.1780  -23.7457  -56.1325 N.am      20 UNK        -0.5000 
    110 CA        -6.6258  -22.8235  -57.1316 C.3       20 UNK         0.1400 
    111 CB        -6.5242  -23.4968  -58.5171 C.3       20 UNK        -0.1800 
    112 C         -5.3034  -22.1792  -56.6627 C.2       20 UNK         0.5000 
    113 O         -4.3384  -22.1029  -57.4260 O.2       20 UNK        -0.5000 
    114 N         -5.2906  -21.7278  -55.4037 N.am      21 UNK        -0.5000 
    115 CA        -4.1721  -21.0575  -54.7504 C.3       21 UNK         0.1400 
    116 CB        -3.3325  -22.0945  -53.9912 C.3       21 UNK        -0.1800 
    117 C         -4.7277  -20.0025  -53.7866 C.2       21 UNK         0.5000 
    118 O         -5.8281  -20.1821  -53.2592 O.2       21 UNK        -0.5000 
    119 N         -3.9590  -18.9301  -53.5737 N.am      22 UNK        -0.5000 
    120 CA        -4.3231  -17.8082  -52.6942 C.3       22 UNK         0.1400 
    121 C         -4.1416  -18.0816  -51.1733 C.2       22 UNK         0.5000 
    122 N         -3.2898  -19.0150  -50.7671 N.am      22 UNK        -0.7600 
    123 O         -4.7639  -17.4136  -50.3527 O.2       22 UNK        -0.5000 
    124 C124       -3.6064  -16.4986  -53.1208 C.3       23 UNK        -0.0398 
    125 S125       -1.7792  -16.6088  -53.1057 S.3       23 UNK        -0.2404 
    126 C126       -1.4253  -15.8672  -51.4778 C.3       23 UNK        -0.0205 
    127 H127        8.0375  -13.8709  -46.6952 H         1 UNK         0.0600 
    128 H128        6.8299  -14.3073  -47.9085 H         1 UNK         0.0600 
    129 H129        7.0621  -15.3298  -46.4878 H         1 UNK         0.0600 
    130 H130        5.0292  -13.0164  -47.7662 H         1 UNK         0.3000 
    131 H131        3.5789  -12.6716  -45.2938 H         1 UNK         0.0600 
    132 H132        1.8626  -11.5797  -46.7340 H         1 UNK         0.0800 
    133 H133        2.9327  -11.6596  -48.1056 H         1 UNK         0.0800 
    134 H134        3.7610  -14.3811  -49.0683 H         1 UNK         0.0800 
    135 H135        2.6095  -13.2715  -49.7795 H         1 UNK         0.0800 
    136 H136        0.2532  -14.1020  -50.2956 H         1 UNK         0.1150 
    137 H137        0.0269  -18.2077  -51.5095 H         1 UNK         0.1150 
    138 H138        3.5118  -16.7583  -49.4767 H         1 UNK         0.1150 
    139 H139        2.1406  -19.5068  -51.5452 H         1 UNK         0.0800 
    140 H140        3.5674  -18.8865  -50.7627 H         1 UNK         0.0800 
    141 H141        0.2740  -20.7157  -50.4746 H         1 UNK         0.0800 
    142 H142       -0.1834  -19.5823  -49.2238 H         1 UNK         0.0800 
    143 H143        0.6963  -22.4541  -48.6372 H         1 UNK         0.0600 
    144 H144        0.1300  -20.3272  -46.8713 H         1 UNK         0.3000 
    145 H145       -0.9864  -22.3052  -44.0727 H         1 UNK         0.0600 
    146 H146        0.7492  -20.7919  -43.0616 H         1 UNK         0.0600 
    147 H147        1.4538  -22.1643  -43.9046 H         1 UNK         0.0600 
    148 H148        1.4749  -20.5783  -44.6542 H         1 UNK         0.0600 
    149 H149       -0.8761  -19.4775  -44.4877 H         1 UNK         0.3000 
    150 H150       -4.1322  -19.1091  -45.9065 H         1 UNK         0.0600 
    151 H151       -4.6148  -19.2293  -43.4866 H         1 UNK         0.0600 
    152 H152       -4.3934  -17.5571  -43.9771 H         1 UNK         0.0600 
    153 H153       -3.1142  -18.4002  -43.1045 H         1 UNK         0.0600 
    154 H154       -1.9747  -17.3511  -45.0748 H         1 UNK         0.3000 
    155 H155       -0.4412  -17.1428  -48.2776 H         1 UNK         0.0600 
    156 H156       -2.1323  -15.1159  -46.7124 H         1 UNK         0.0600 
    157 H157       -2.4179  -15.5901  -48.3829 H         1 UNK         0.0600 
    158 H158       -0.9416  -14.7393  -47.9542 H         1 UNK         0.0600 
    159 H159        0.0826  -15.7760  -45.8398 H         1 UNK         0.3000 
    160 H160        2.0533  -18.2863  -44.2559 H         1 UNK         0.0600 
    161 H161        3.0460  -15.7049  -45.5585 H         1 UNK         0.0600 
    162 H162        3.6323  -17.3113  -45.9719 H         1 UNK         0.0600 
    163 H163        3.8812  -16.6747  -44.3528 H         1 UNK         0.0600 
    164 H164        1.6948  -15.6102  -43.5052 H         1 UNK         0.3000 
    165 H165       -1.5868  -15.5722  -42.4006 H         1 UNK         0.0600 
    166 H166       -0.9434  -15.4950  -40.0005 H         1 UNK         0.0600 
    167 H167       -0.9615  -17.1549  -40.5711 H         1 UNK         0.0600 
    168 H168        0.5738  -16.3227  -40.3568 H         1 UNK         0.0600 
    169 H169        0.6644  -14.1120  -41.4206 H         1 UNK         0.3000 
    170 H170        1.4514  -12.1766  -44.1748 H         1 UNK         0.0600 
    171 H171       -0.6239  -10.9234  -43.5688 H         1 UNK         0.0600 
    172 H172       -0.2617  -11.1331  -41.8589 H         1 UNK         0.0600 
    173 H173        0.8055  -10.1688  -42.8808 H         1 UNK         0.0600 
    174 H174        2.1251  -11.7667  -41.4632 H         1 UNK         0.3000 
    175 H175        3.5994  -13.5374  -40.1923 H         1 UNK         0.0600 
    176 H176        5.9349  -14.3430  -40.4651 H         1 UNK         0.0600 
    177 H177        5.7941  -14.2158  -42.2182 H         1 UNK         0.0600 
    178 H178        4.8120  -15.3764  -41.3333 H         1 UNK         0.0600 
    179 H179        5.5965  -11.8673  -41.5466 H         1 UNK         0.3000 
    180 H180        4.3237   -8.7939  -40.3598 H         1 UNK         0.0600 
    181 H181        6.8381  -10.3159  -39.4780 H         1 UNK         0.0600 
    182 H182        5.6434   -9.6013  -38.4021 H         1 UNK         0.0600 
    183 H183        6.6182   -8.5663  -39.4333 H         1 UNK         0.0600 
    184 H184        6.6650   -9.6274  -41.8424 H         1 UNK         0.3000 
    185 H185        5.5525   -8.5489  -44.8735 H         1 UNK         0.0600 
    186 H186        7.6880   -8.6065  -43.5596 H         1 UNK         0.0600 
    187 H187        7.6284  -10.3720  -43.5238 H         1 UNK         0.0600 
    188 H188        7.8170   -9.5208  -45.0491 H         1 UNK         0.0600 
    189 H189        5.7848  -11.5123  -44.6581 H         1 UNK         0.3000 
    190 H190       -2.4106  -20.7411  -48.0311 H         1 UNK         0.3000 
    191 H191       -3.9627  -22.1096  -49.9648 H         1 UNK         0.0600 
    192 H192       -4.8511  -20.9382  -47.2732 H         1 UNK         0.0600 
    193 H193       -5.9066  -21.3763  -48.5961 H         1 UNK         0.0600 
    194 H194       -4.7693  -20.0572  -48.7910 H         1 UNK         0.0600 
    195 H195       -3.4251  -22.8612  -46.4844 H         1 UNK         0.3000 
    196 H196       -4.9738  -25.2139  -46.3651 H         1 UNK         0.0600 
    197 H197       -3.6759  -25.6488  -44.2714 H         1 UNK         0.0600 
    198 H198       -4.2166  -23.9789  -44.3611 H         1 UNK         0.0600 
    199 H199       -2.5362  -24.3797  -44.7053 H         1 UNK         0.0600 
    200 H200       -1.4724  -24.8056  -47.0608 H         1 UNK         0.3000 
    201 H201       -0.8249  -27.5456  -47.3847 H         1 UNK         0.0600 
    202 H202        0.8801  -25.7793  -47.0648 H         1 UNK         0.0600 
    203 H203        0.4616  -25.0487  -48.6126 H         1 UNK         0.0600 
    204 H204        1.1942  -26.6480  -48.5597 H         1 UNK         0.0600 
    205 H205       -1.9550  -25.1095  -49.7575 H         1 UNK         0.3000 
    206 H206       -2.0012  -26.9769  -51.9964 H         1 UNK         0.0600 
    207 H207       -1.4400  -24.5701  -52.2921 H         1 UNK         0.0600 
    208 H208       -2.8688  -25.0064  -53.2170 H         1 UNK         0.0600 
    209 H209       -3.0389  -24.1205  -51.7020 H         1 UNK         0.0600 
    210 H210       -3.4201  -28.1499  -50.0342 H         1 UNK         0.3000 
    211 H211       -5.3005  -29.2134  -49.4949 H         1 UNK         0.0600 
    212 H212       -5.8138  -28.9548  -52.5017 H         1 UNK         0.0600 
    213 H213       -6.5037  -30.1791  -51.4434 H         1 UNK         0.0600 
    214 H214       -4.7733  -30.1497  -51.7332 H         1 UNK         0.0600 
    215 H215       -5.6152  -26.5886  -48.8217 H         1 UNK         0.3000 
    216 H216       -7.0625  -25.1233  -48.0175 H         1 UNK         0.0600 
    217 H217       -9.4109  -25.7090  -47.5914 H         1 UNK         0.0600 
    218 H218       -8.3724  -27.0631  -47.1757 H         1 UNK         0.0600 
    219 H219       -9.3144  -27.0945  -48.6655 H         1 UNK         0.0600 
    220 H220       -6.0796  -24.3078  -50.1228 H         1 UNK         0.3000 
    221 H221       -6.1207  -22.8026  -51.7379 H         1 UNK         0.0600 
    222 H222       -9.0136  -22.2011  -50.9234 H         1 UNK         0.0600 
    223 H223       -7.5835  -21.5314  -50.1452 H         1 UNK         0.0600 
    224 H224       -7.9369  -21.1403  -51.8162 H         1 UNK         0.0600 
    225 H225       -6.3966  -25.3497  -52.6833 H         1 UNK         0.3000 
    226 H226       -8.4623  -25.5077  -54.7464 H         1 UNK         0.0600 
    227 H227       -7.6032  -27.5418  -53.6063 H         1 UNK         0.0600 
    228 H228       -7.2915  -27.6029  -55.3358 H         1 UNK         0.0600 
    229 H229       -5.9827  -27.2260  -54.2240 H         1 UNK         0.0600 
    230 H230       -8.0119  -23.4225  -55.6548 H         1 UNK         0.3000 
    231 H231       -7.3435  -22.0068  -57.2207 H         1 UNK         0.0600 
    232 H232       -7.4793  -23.9282  -58.8166 H         1 UNK         0.0600 
    233 H233       -5.7776  -24.2912  -58.5318 H         1 UNK         0.0600 
    234 H234       -6.2424  -22.7721  -59.2817 H         1 UNK         0.0600 
    235 H235       -6.1366  -21.7670  -54.8499 H         1 UNK         0.3000 
    236 H236       -3.5502  -20.5553  -55.4947 H         1 UNK         0.0600 
    237 H237       -2.4907  -21.6272  -53.4790 H         1 UNK         0.0600 
    238 H238       -3.9342  -22.6079  -53.2411 H         1 UNK         0.0600 
    239 H239       -2.9270  -22.8464  -54.6684 H         1 UNK         0.0600 
    240 H240       -3.0606  -18.8561  -54.0290 H         1 UNK         0.3000 
    241 H241       -5.3919  -17.6294  -52.8292 H         1 UNK         0.0600 
    242 H242       -3.1264  -19.1150  -49.7729 H         1 UNK         0.3800 
    243 H243       -2.7677  -19.5589  -51.4319 H         1 UNK         0.3800 
    244 H244       -3.9104  -16.2396  -54.1358 H         1 UNK         0.0800 
    245 H245       -3.9318  -15.6606  -52.5017 H         1 UNK         0.0800 
    246 H246       -2.1099  -16.2609  -50.7287 H         1 UNK         0.0800 
    247 H247       -1.6229  -14.7960  -51.5407 H         1 UNK         0.0800 
@<TRIPOS>BOND
     1    1    2 1    
     2    1  127 1    
     3    1  128 1    
     4    1  129 1    
     5    2    3 2    
     6    2    4 am   BACKBONE|DICT|INTERRES
     7    4    5 1    
     8    4  130 1    
     9    5    6 1    
    10    5   65 1    
    11    5  131 1    
    12    6    7 1    
    13    6  132 1    
    14    6  133 1    
    15    7    8 1    
    16    8    9 1    
    17    8  134 1    
    18    8  135 1    
    19    9   10 ar   
    20    9   14 ar   
    21   10   11 ar   
    22   10  136 1    
    23   11   12 ar   
    24   11  126 1    
    25   12   13 ar   
    26   12  137 1    
    27   13   14 ar   
    28   13   15 1    
    29   14  138 1    
    30   15   16 1    
    31   15  139 1    
    32   15  140 1    
    33   16   17 1    
    34   17   18 1    
    35   17  141 1    
    36   17  142 1    
    37   18   19 1    
    38   18   67 1    
    39   18  143 1    
    40   19   20 am   BACKBONE|DICT|INTERRES
    41   19  144 1    
    42   20   21 2    
    43   20   22 1    
    44   22   23 1    
    45   22   24 1    
    46   22  145 1    
    47   23  146 1    
    48   23  147 1    
    49   23  148 1    
    50   24   25 am   BACKBONE|DICT|INTERRES
    51   24  149 1    
    52   25   26 2    
    53   25   27 1    
    54   27   28 1    
    55   27   29 1    
    56   27  150 1    
    57   28  151 1    
    58   28  152 1    
    59   28  153 1    
    60   29   30 am   BACKBONE|DICT|INTERRES
    61   29  154 1    
    62   30   31 2    
    63   30   32 1    
    64   32   33 1    
    65   32   34 1    
    66   32  155 1    
    67   33  156 1    
    68   33  157 1    
    69   33  158 1    
    70   34   35 am   BACKBONE|DICT|INTERRES
    71   34  159 1    
    72   35   36 2    
    73   35   37 1    
    74   37   38 1    
    75   37   39 1    
    76   37  160 1    
    77   38  161 1    
    78   38  162 1    
    79   38  163 1    
    80   39   40 am   BACKBONE|DICT|INTERRES
    81   39  164 1    
    82   40   41 2    
    83   40   42 1    
    84   42   43 1    
    85   42   44 1    
    86   42  165 1    
    87   43  166 1    
    88   43  167 1    
    89   43  168 1    
    90   44   45 am   BACKBONE|DICT|INTERRES
    91   44  169 1    
    92   45   46 2    
    93   45   47 1    
    94   47   48 1    
    95   47   49 1    
    96   47  170 1    
    97   48  171 1    
    98   48  172 1    
    99   48  173 1    
   100   49   50 am   BACKBONE|DICT|INTERRES
   101   49  174 1    
   102   50   51 2    
   103   50   52 1    
   104   52   53 1    
   105   52   54 1    
   106   52  175 1    
   107   53  176 1    
   108   53  177 1    
   109   53  178 1    
   110   54   55 am   BACKBONE|DICT|INTERRES
   111   54  179 1    
   112   55   56 2    
   113   55   57 1    
   114   57   58 1    
   115   57   59 1    
   116   57  180 1    
   117   58  181 1    
   118   58  182 1    
   119   58  183 1    
   120   59   60 am   BACKBONE|DICT|INTERRES
   121   59  184 1    
   122   60   61 2    
   123   60   62 1    
   124   62   63 1    
   125   62   64 1    
   126   62  185 1    
   127   63  186 1    
   128   63  187 1    
   129   63  188 1    
   130   64   65 am   BACKBONE|DICT|INTERRES
   131   64  189 1    
   132   65   66 2    
   133   67   68 2    
   134   67   69 am   BACKBONE|DICT|INTERRES
   135   69   70 1    
   136   69  190 1    
   137   70   71 1    
   138   70   72 1    
   139   70  191 1    
   140   71  192 1    
   141   71  193 1    
   142   71  194 1    
   143   72   73 2    
   144   72   74 am   BACKBONE|DICT|INTERRES
   145   74   75 1    
   146   74  195 1    
   147   75   76 1    
   148   75   77 1    
   149   75  196 1    
   150   76  197 1    
   151   76  198 1    
   152   76  199 1    
   153   77   78 2    
   154   77   79 am   BACKBONE|DICT|INTERRES
   155   79   80 1    
   156   79  200 1    
   157   80   81 1    
   158   80   82 1    
   159   80  201 1    
   160   81  202 1    
   161   81  203 1    
   162   81  204 1    
   163   82   83 2    
   164   82   84 am   BACKBONE|DICT|INTERRES
   165   84   85 1    
   166   84  205 1    
   167   85   86 1    
   168   85   87 1    
   169   85  206 1    
   170   86  207 1    
   171   86  208 1    
   172   86  209 1    
   173   87   88 2    
   174   87   89 am   BACKBONE|DICT|INTERRES
   175   89   90 1    
   176   89  210 1    
   177   90   91 1    
   178   90   92 1    
   179   90  211 1    
   180   91  212 1    
   181   91  213 1    
   182   91  214 1    
   183   92   93 2    
   184   92   94 am   BACKBONE|DICT|INTERRES
   185   94   95 1    
   186   94  215 1    
   187   95   96 1    
   188   95   97 1    
   189   95  216 1    
   190   96  217 1    
   191   96  218 1    
   192   96  219 1    
   193   97   98 2    
   194   97   99 am   BACKBONE|DICT|INTERRES
   195   99  100 1    
   196   99  220 1    
   197  100  101 1    
   198  100  102 1    
   199  100  221 1    
   200  101  222 1    
   201  101  223 1    
   202  101  224 1    
   203  102  103 2    
   204  102  104 am   BACKBONE|DICT|INTERRES
   205  104  105 1    
   206  104  225 1    
   207  105  106 1    
   208  105  107 1    
   209  105  226 1    
   210  106  227 1    
   211  106  228 1    
   212  106  229 1    
   213  107  108 2    
   214  107  109 am   BACKBONE|DICT|INTERRES
   215  109  110 1    
   216  109  230 1    
   217  110  111 1    
   218  110  112 1    
   219  110  231 1    
   220  111  232 1    
   221  111  233 1    
   222  111  234 1    
   223  112  113 2    
   224  112  114 am   BACKBONE|DICT|INTERRES
   225  114  115 1    
   226  114  235 1    
   227  115  116 1    
   228  115  117 1    
   229  115  236 1    
   230  116  237 1    
   231  116  238 1    
   232  116  239 1    
   233  117  118 2    
   234  117  119 am   BACKBONE|DICT|INTERRES
   235  119  120 1    
   236  119  240 1    
   237  120  121 1    
   238  120  124 1    
   239  120  241 1    
   240  121  122 am   BACKBONE|DICT|INTERRES
   241  121  123 2    
   242  122  242 1    
   243  122  243 1    
   244  124  125 1    
   245  124  244 1    
   246  124  245 1    
   247  125  126 1    
   248  126  246 1    
   249  126  247 1    
@<TRIPOS>SUBSTRUCTURE
     1 UNK         1 GROUP             0       ****    0 ROOT    
