@<TRIPOS>MOLECULE
3R540
247   249    1
SMALL
USER_CHARGES


@<TRIPOS>ATOM
      1 CA          2.7371  -16.7763  -49.2520 C.3       0 UNK        -0.1800 
      2 C           2.1273  -15.9418  -48.1362 C.2       0 UNK         0.5000 
      3 O           2.8296  -15.5512  -47.2038 O.2       0 UNK        -0.5000 
      4 N           0.8238  -15.6501  -48.2325 N.am      1 UNK        -0.5000 
      5 CA          0.0487  -14.9229  -47.2192 C.3       1 UNK         0.1400 
      6 C6         -1.4768  -15.0744  -47.4370 C.3       23 UNK        -0.0398 
      7 S7         -2.0861  -14.4079  -49.0237 S.3       23 UNK        -0.2404 
      8 C8         -2.7875  -15.8924  -49.8092 C.3       23 UNK        -0.0205 
      9 C9         -1.7248  -16.7543  -50.4736 C.ar      23 UNK        -0.0193 
     10 C10        -1.0531  -16.2721  -51.6003 C.ar      23 UNK        -0.1150 
     11 C11        -0.1350  -17.0757  -52.2795 C.ar      23 UNK        -0.0193 
     12 C12         0.1188  -18.3678  -51.8165 C.ar      23 UNK        -0.1150 
     13 C13        -0.5413  -18.8618  -50.6885 C.ar      23 UNK        -0.0193 
     14 C14        -1.4561  -18.0477  -50.0116 C.ar      23 UNK        -0.1150 
     15 C15        -0.3068  -20.3002  -50.2588 C.3       23 UNK        -0.0205 
     16 S16         1.2684  -20.5004  -49.3734 S.3       23 UNK        -0.2404 
     17 C17         0.7571  -20.2721  -47.6393 C.3       23 UNK        -0.0398 
     18 CA          0.5178  -21.6272  -46.9244 C.3       11 UNK         0.1400 
     19 N           0.7650  -21.5627  -45.4837 N.am      11 UNK        -0.5000 
     20 C           0.8431  -22.6303  -44.6766 C.2       10 UNK         0.5000 
     21 O           0.7207  -23.7917  -45.0665 O.2       10 UNK        -0.5000 
     22 CA          1.0563  -22.3559  -43.1771 C.3       10 UNK         0.1400 
     23 CB          2.5217  -21.9989  -42.8870 C.3       10 UNK        -0.1800 
     24 N           0.1813  -21.3011  -42.6653 N.am      10 UNK        -0.5000 
     25 C          -1.1571  -21.3783  -42.6314 C.2       9 UNK         0.5000 
     26 O          -1.7984  -22.3609  -43.0056 O.2       9 UNK        -0.5000 
     27 CA         -1.9077  -20.1257  -42.1442 C.3       9 UNK         0.1400 
     28 CB         -1.8521  -20.0081  -40.6137 C.3       9 UNK        -0.1800 
     29 N          -1.3985  -18.8950  -42.7485 N.am      9 UNK        -0.5000 
     30 C          -1.4068  -18.6361  -44.0636 C.2       8 UNK         0.5000 
     31 O          -1.8669  -19.3939  -44.9158 O.2       8 UNK        -0.5000 
     32 CA         -0.7381  -17.3299  -44.5113 C.3       8 UNK         0.1400 
     33 CB         -1.6402  -16.1263  -44.1901 C.3       8 UNK        -0.1800 
     34 N           0.5855  -17.1435  -43.9160 N.am      8 UNK        -0.5000 
     35 C           1.6179  -17.9878  -44.0614 C.2       7 UNK         0.5000 
     36 O           1.5821  -18.9945  -44.7631 O.2       7 UNK        -0.5000 
     37 CA          2.8821  -17.7043  -43.2351 C.3       7 UNK         0.1400 
     38 CB          3.7859  -16.6824  -43.9379 C.3       7 UNK        -0.1800 
     39 N           2.5554  -17.2467  -41.8862 N.am      7 UNK        -0.5000 
     40 C           1.9763  -18.0123  -40.9492 C.2       6 UNK         0.5000 
     41 O           1.7101  -19.2047  -41.1044 O.2       6 UNK        -0.5000 
     42 CA          1.5829  -17.3046  -39.6400 C.3       6 UNK         0.1400 
     43 CB          2.7875  -17.2040  -38.6925 C.3       6 UNK        -0.1800 
     44 N           1.0409  -15.9661  -39.8834 N.am      6 UNK        -0.5000 
     45 C          -0.1266  -15.7275  -40.4983 C.2       5 UNK         0.5000 
     46 O          -0.9009  -16.6168  -40.8524 O.2       5 UNK        -0.5000 
     47 CA         -0.4565  -14.2541  -40.8126 C.3       5 UNK         0.1400 
     48 CB         -1.1941  -13.6029  -39.6335 C.3       5 UNK        -0.1800 
     49 N           0.7333  -13.4607  -41.1421 N.am      5 UNK        -0.5000 
     50 C           1.4865  -13.6501  -42.2336 C.2       4 UNK         0.5000 
     51 O           1.2295  -14.4878  -43.1003 O.2       4 UNK        -0.5000 
     52 CA          2.7786  -12.8280  -42.3311 C.3       4 UNK         0.1400 
     53 CB          3.8323  -13.4157  -41.3662 C.3       4 UNK        -0.1800 
     54 N           3.2654  -12.8619  -43.7104 N.am      4 UNK        -0.5000 
     55 C           4.3163  -12.1861  -44.1921 C.2       3 UNK         0.5000 
     56 O           4.9803  -11.3878  -43.5294 O.2       3 UNK        -0.5000 
     57 CA          4.6953  -12.4362  -45.6633 C.3       3 UNK         0.1400 
     58 CB          5.4806  -13.7476  -45.8155 C.3       3 UNK        -0.1800 
     59 N           3.5414  -12.4503  -46.5621 N.am      3 UNK        -0.5000 
     60 C           2.8705  -11.3494  -46.9353 C.2       2 UNK         0.5000 
     61 O           3.1418  -10.2184  -46.5298 O.2       2 UNK        -0.5000 
     62 CA          1.7201  -11.5206  -47.9489 C.3       2 UNK         0.1400 
     63 CB          2.1836  -11.1248  -49.3594 C.3       2 UNK        -0.1800 
     64 N           1.1808  -12.8781  -47.9981 N.am      2 UNK        -0.5000 
     65 C           0.4587  -13.4469  -47.0246 C.2       1 UNK         0.5000 
     66 O           0.1303  -12.8600  -45.9933 O.2       1 UNK        -0.5000 
     67 C          -0.8764  -22.2012  -47.2378 C.2       11 UNK         0.5000 
     68 O          -0.9849  -23.0696  -48.1012 O.2       11 UNK        -0.5000 
     69 N          -1.9098  -21.7466  -46.5135 N.am      12 UNK        -0.5000 
     70 CA         -3.2809  -22.2434  -46.6367 C.3       12 UNK         0.1400 
     71 CB         -4.2269  -21.4002  -45.7703 C.3       12 UNK        -0.1800 
     72 C          -3.4062  -23.7346  -46.2846 C.2       12 UNK         0.5000 
     73 O          -4.1006  -24.4607  -46.9954 O.2       12 UNK        -0.5000 
     74 N          -2.7043  -24.1731  -45.2299 N.am      13 UNK        -0.5000 
     75 CA         -2.6121  -25.5774  -44.8319 C.3       13 UNK         0.1400 
     76 CB         -1.9211  -25.6872  -43.4645 C.3       13 UNK        -0.1800 
     77 C          -1.8953  -26.4411  -45.8861 C.2       13 UNK         0.5000 
     78 O          -2.3942  -27.5141  -46.2260 O.2       13 UNK        -0.5000 
     79 N          -0.7653  -25.9447  -46.4104 N.am      14 UNK        -0.5000 
     80 CA          0.0255  -26.5962  -47.4576 C.3       14 UNK         0.1400 
     81 CB          1.3563  -25.8493  -47.6343 C.3       14 UNK        -0.1800 
     82 C          -0.7206  -26.7041  -48.8012 C.2       14 UNK         0.5000 
     83 O          -0.6489  -27.7450  -49.4554 O.2       14 UNK        -0.5000 
     84 N          -1.4403  -25.6383  -49.1755 N.am      15 UNK        -0.5000 
     85 CA         -2.2632  -25.5619  -50.3835 C.3       15 UNK         0.1400 
     86 CB         -2.5302  -24.0825  -50.7105 C.3       15 UNK        -0.1800 
     87 C          -3.5971  -26.3250  -50.2714 C.2       15 UNK         0.5000 
     88 O          -4.2669  -26.4955  -51.2886 O.2       15 UNK        -0.5000 
     89 N          -3.9813  -26.7308  -49.0520 N.am      16 UNK        -0.5000 
     90 CA         -5.2617  -27.3467  -48.6860 C.3       16 UNK         0.1400 
     91 CB         -5.4033  -28.7482  -49.3156 C.3       16 UNK        -0.1800 
     92 C          -6.4554  -26.4138  -48.9858 C.2       16 UNK         0.5000 
     93 O          -7.4561  -26.8396  -49.5651 O.2       16 UNK        -0.5000 
     94 N          -6.2974  -25.1420  -48.5913 N.am      17 UNK        -0.5000 
     95 CA         -7.2334  -24.0226  -48.7389 C.3       17 UNK         0.1400 
     96 CB         -8.5299  -24.2813  -47.9431 C.3       17 UNK        -0.1800 
     97 C          -7.5006  -23.5954  -50.2001 C.2       17 UNK         0.5000 
     98 O          -8.5168  -22.9497  -50.4639 O.2       17 UNK        -0.5000 
     99 N          -6.5855  -23.9369  -51.1186 N.am      18 UNK        -0.5000 
    100 CA        -6.6016  -23.5084  -52.5168 C.3       18 UNK         0.1400 
    101 CB        -6.0681  -24.6513  -53.4038 C.3       18 UNK        -0.1800 
    102 C         -5.8309  -22.1788  -52.6682 C.2       18 UNK         0.5000 
    103 O         -6.2479  -21.1740  -52.0909 O.2       18 UNK        -0.5000 
    104 N         -4.7369  -22.1888  -53.4475 N.am      19 UNK        -0.5000 
    105 CA        -3.8631  -21.0515  -53.7777 C.3       19 UNK         0.1400 
    106 CB        -3.1646  -20.4976  -52.5188 C.3       19 UNK        -0.1800 
    107 C         -4.5642  -19.9506  -54.6049 C.2       19 UNK         0.5000 
    108 O         -4.1578  -18.7882  -54.5614 O.2       19 UNK        -0.5000 
    109 N         -5.5904  -20.3428  -55.3757 N.am      20 UNK        -0.5000 
    110 CA        -6.4305  -19.4634  -56.1960 C.3       20 UNK         0.1400 
    111 CB        -7.5764  -20.2895  -56.7993 C.3       20 UNK        -0.1800 
    112 C         -5.6674  -18.7089  -57.3024 C.2       20 UNK         0.5000 
    113 O         -6.0904  -17.6209  -57.6958 O.2       20 UNK        -0.5000 
    114 N         -4.5355  -19.2714  -57.7506 N.am      21 UNK        -0.5000 
    115 CA        -3.6108  -18.6735  -58.7178 C.3       21 UNK         0.1400 
    116 CB        -2.5062  -19.6907  -59.0426 C.3       21 UNK        -0.1800 
    117 C         -2.9930  -17.3379  -58.2523 C.2       21 UNK         0.5000 
    118 O         -2.6182  -16.5233  -59.0969 O.2       21 UNK        -0.5000 
    119 N         -2.9198  -17.1269  -56.9316 N.am      22 UNK        -0.5000 
    120 CA        -2.5069  -15.8613  -56.3067 C.3       22 UNK         0.1400 
    121 C         -3.6483  -14.8032  -56.2139 C.2       22 UNK         0.5000 
    122 N         -4.8804  -15.0932  -56.6184 N.am      22 UNK        -0.7600 
    123 O         -3.4076  -13.6807  -55.7781 O.2       22 UNK        -0.5000 
    124 C124       -1.8477  -16.0982  -54.9245 C.3       23 UNK        -0.0398 
    125 S125       -0.3190  -17.0910  -55.0381 S.3       23 UNK        -0.2404 
    126 C126        0.5588  -16.5645  -53.5317 C.3       23 UNK        -0.0205 
    127 H127        3.5734  -16.2450  -49.7059 H         1 UNK         0.0600 
    128 H128        3.1058  -17.7210  -48.8525 H         1 UNK         0.0600 
    129 H129        2.0105  -16.9995  -50.0330 H         1 UNK         0.0600 
    130 H130        0.2982  -15.9706  -49.0346 H         1 UNK         0.3000 
    131 H131        0.2917  -15.3941  -46.2675 H         1 UNK         0.0600 
    132 H132       -1.7479  -16.1277  -47.3603 H         1 UNK         0.0800 
    133 H133       -2.0268  -14.5740  -46.6386 H         1 UNK         0.0800 
    134 H134       -3.3641  -16.4642  -49.0805 H         1 UNK         0.0800 
    135 H135       -3.5006  -15.5747  -50.5714 H         1 UNK         0.0800 
    136 H136       -1.2676  -15.2765  -51.9629 H         1 UNK         0.1150 
    137 H137        0.8149  -19.0004  -52.3495 H         1 UNK         0.1150 
    138 H138       -1.9852  -18.4343  -49.1519 H         1 UNK         0.1150 
    139 H139       -1.1400  -20.6642  -49.6574 H         1 UNK         0.0800 
    140 H140       -0.2828  -20.9360  -51.1450 H         1 UNK         0.0800 
    141 H141       -0.1030  -19.6040  -47.5646 H         1 UNK         0.0800 
    142 H142        1.5845  -19.7443  -47.1668 H         1 UNK         0.0800 
    143 H143        1.2482  -22.3411  -47.3120 H         1 UNK         0.0600 
    144 H144        0.9164  -20.6343  -45.0931 H         1 UNK         0.3000 
    145 H145        0.8190  -23.2744  -42.6363 H         1 UNK         0.0600 
    146 H146        2.6926  -21.8760  -41.8174 H         1 UNK         0.0600 
    147 H147        3.1916  -22.7856  -43.2361 H         1 UNK         0.0600 
    148 H148        2.8169  -21.0728  -43.3803 H         1 UNK         0.0600 
    149 H149        0.6336  -20.4634  -42.3139 H         1 UNK         0.3000 
    150 H150       -2.9537  -20.2310  -42.4394 H         1 UNK         0.0600 
    151 H151       -2.2477  -20.9065  -40.1384 H         1 UNK         0.0600 
    152 H152       -2.4464  -19.1644  -40.2625 H         1 UNK         0.0600 
    153 H153       -0.8318  -19.8681  -40.2556 H         1 UNK         0.0600 
    154 H154       -1.0260  -18.1937  -42.1159 H         1 UNK         0.3000 
    155 H155       -0.6023  -17.3913  -45.5919 H         1 UNK         0.0600 
    156 H156       -2.5598  -16.1681  -44.7745 H         1 UNK         0.0600 
    157 H157       -1.1496  -15.1788  -44.4105 H         1 UNK         0.0600 
    158 H158       -1.9339  -16.1030  -43.1423 H         1 UNK         0.0600 
    159 H159        0.7294  -16.2930  -43.3792 H         1 UNK         0.3000 
    160 H160        3.4398  -18.6388  -43.1463 H         1 UNK         0.0600 
    161 H161        4.6911  -16.4882  -43.3627 H         1 UNK         0.0600 
    162 H162        3.2773  -15.7334  -44.0979 H         1 UNK         0.0600 
    163 H163        4.0945  -17.0500  -44.9175 H         1 UNK         0.0600 
    164 H164        2.7000  -16.2689  -41.6906 H         1 UNK         0.3000 
    165 H165        0.8117  -17.9054  -39.1529 H         1 UNK         0.0600 
    166 H166        2.5007  -16.7660  -37.7363 H         1 UNK         0.0600 
    167 H167        3.2032  -18.1910  -38.4851 H         1 UNK         0.0600 
    168 H168        3.5862  -16.5934  -39.1157 H         1 UNK         0.0600 
    169 H169        1.6118  -15.1817  -39.6068 H         1 UNK         0.3000 
    170 H170       -1.1213  -14.2411  -41.6786 H         1 UNK         0.0600 
    171 H171       -2.0961  -14.1622  -39.3813 H         1 UNK         0.0600 
    172 H172       -0.5712  -13.5635  -38.7391 H         1 UNK         0.0600 
    173 H173       -1.5015  -12.5851  -39.8746 H         1 UNK         0.0600 
    174 H174        1.0056  -12.7563  -40.4713 H         1 UNK         0.3000 
    175 H175        2.5564  -11.7943  -42.0596 H         1 UNK         0.0600 
    176 H176        4.7320  -12.8025  -41.3276 H         1 UNK         0.0600 
    177 H177        3.4522  -13.4724  -40.3457 H         1 UNK         0.0600 
    178 H178        4.1305  -14.4219  -41.6625 H         1 UNK         0.0600 
    179 H179        2.7329  -13.4699  -44.3207 H         1 UNK         0.3000 
    180 H180        5.3558  -11.6230  -45.9726 H         1 UNK         0.0600 
    181 H181        4.8661  -14.6156  -45.5809 H         1 UNK         0.0600 
    182 H182        6.3452  -13.7668  -45.1507 H         1 UNK         0.0600 
    183 H183        5.8501  -13.8685  -46.8339 H         1 UNK         0.0600 
    184 H184        3.2513  -13.3522  -46.9204 H         1 UNK         0.3000 
    185 H185        0.9165  -10.8439  -47.6506 H         1 UNK         0.0600 
    186 H186        1.3611  -11.1730  -50.0734 H         1 UNK         0.0600 
    187 H187        2.5646  -10.1027  -49.3736 H         1 UNK         0.0600 
    188 H188        2.9804  -11.7772  -49.7188 H         1 UNK         0.0600 
    189 H189        1.4041  -13.4313  -48.8124 H         1 UNK         0.3000 
    190 H190       -1.7585  -21.0048  -45.8330 H         1 UNK         0.3000 
    191 H191       -3.5824  -22.1256  -47.6796 H         1 UNK         0.0600 
    192 H192       -3.9456  -21.4350  -44.7171 H         1 UNK         0.0600 
    193 H193       -5.2544  -21.7575  -45.8499 H         1 UNK         0.0600 
    194 H194       -4.2209  -20.3561  -46.0836 H         1 UNK         0.0600 
    195 H195       -2.1895  -23.5038  -44.6669 H         1 UNK         0.3000 
    196 H196       -3.6292  -25.9607  -44.7260 H         1 UNK         0.0600 
    197 H197       -0.9087  -25.2836  -43.4882 H         1 UNK         0.0600 
    198 H198       -1.8534  -26.7272  -43.1431 H         1 UNK         0.0600 
    199 H199       -2.4770  -25.1455  -42.6990 H         1 UNK         0.0600 
    200 H200       -0.4017  -25.0676  -46.0479 H         1 UNK         0.3000 
    201 H201        0.2494  -27.6107  -47.1216 H         1 UNK         0.0600 
    202 H202        1.1998  -24.8154  -47.9433 H         1 UNK         0.0600 
    203 H203        1.9766  -26.3289  -48.3924 H         1 UNK         0.0600 
    204 H204        1.9276  -25.8373  -46.7060 H         1 UNK         0.0600 
    205 H205       -1.3857  -24.7898  -48.6148 H         1 UNK         0.3000 
    206 H206       -1.7040  -25.9991  -51.2131 H         1 UNK         0.0600 
    207 H207       -1.5978  -23.5320  -50.8378 H         1 UNK         0.0600 
    208 H208       -3.0948  -23.9789  -51.6375 H         1 UNK         0.0600 
    209 H209       -3.1017  -23.5933  -49.9205 H         1 UNK         0.0600 
    210 H210       -3.3689  -26.5139  -48.2767 H         1 UNK         0.3000 
    211 H211       -5.2381  -27.4743  -47.6027 H         1 UNK         0.0600 
    212 H212       -5.4872  -28.7017  -50.4016 H         1 UNK         0.0600 
    213 H213       -6.2940  -29.2541  -48.9415 H         1 UNK         0.0600 
    214 H214       -4.5467  -29.3765  -49.0717 H         1 UNK         0.0600 
    215 H215       -5.4341  -24.9142  -48.0980 H         1 UNK         0.3000 
    216 H216       -6.7371  -23.1693  -48.2744 H         1 UNK         0.0600 
    217 H217       -8.3107  -24.5630  -46.9132 H         1 UNK         0.0600 
    218 H218       -9.1532  -23.3872  -47.9062 H         1 UNK         0.0600 
    219 H219       -9.1276  -25.0764  -48.3894 H         1 UNK         0.0600 
    220 H220       -5.7927  -24.4890  -50.8247 H         1 UNK         0.3000 
    221 H221       -7.6301  -23.3144  -52.8280 H         1 UNK         0.0600 
    222 H222       -5.0220  -24.8797  -53.2008 H         1 UNK         0.0600 
    223 H223       -6.6387  -25.5663  -53.2420 H         1 UNK         0.0600 
    224 H224       -6.1582  -24.4035  -54.4622 H         1 UNK         0.0600 
    225 H225       -4.4824  -23.0662  -53.8797 H         1 UNK         0.3000 
    226 H226       -3.0832  -21.4529  -54.4262 H         1 UNK         0.0600 
    227 H227       -2.6752  -21.2922  -51.9570 H         1 UNK         0.0600 
    228 H228       -2.3979  -19.7709  -52.7895 H         1 UNK         0.0600 
    229 H229       -3.8635  -19.9948  -51.8502 H         1 UNK         0.0600 
    230 H230       -5.8464  -21.3186  -55.3594 H         1 UNK         0.3000 
    231 H231       -6.8631  -18.7115  -55.5328 H         1 UNK         0.0600 
    232 H232       -8.1825  -20.7524  -56.0203 H         1 UNK         0.0600 
    233 H233       -7.2026  -21.0807  -57.4505 H         1 UNK         0.0600 
    234 H234       -8.2404  -19.6609  -57.3943 H         1 UNK         0.0600 
    235 H235       -4.2679  -20.1643  -57.3644 H         1 UNK         0.3000 
    236 H236       -4.1727  -18.4719  -59.6319 H         1 UNK         0.0600 
    237 H237       -1.8130  -19.2915  -59.7842 H         1 UNK         0.0600 
    238 H238       -1.9252  -19.9489  -58.1562 H         1 UNK         0.0600 
    239 H239       -2.9234  -20.6107  -59.4524 H         1 UNK         0.0600 
    240 H240       -3.2678  -17.8356  -56.2966 H         1 UNK         0.3000 
    241 H241       -1.7481  -15.4032  -56.9440 H         1 UNK         0.0600 
    242 H242       -5.1158  -16.0033  -56.9979 H         1 UNK         0.3800 
    243 H243       -5.5958  -14.3864  -56.5537 H         1 UNK         0.3800 
    244 H244       -1.5955  -15.1439  -54.4594 H         1 UNK         0.0800 
    245 H245       -2.5423  -16.5967  -54.2464 H         1 UNK         0.0800 
    246 H246        0.6428  -15.4769  -53.5104 H         1 UNK         0.0800 
    247 H247        1.5799  -16.9472  -53.5660 H         1 UNK         0.0800 
@<TRIPOS>BOND
     1    1    2 1    
     2    1  127 1    
     3    1  128 1    
     4    1  129 1    
     5    2    3 2    
     6    2    4 am   BACKBONE|DICT|INTERRES
     7    4    5 1    
     8    4  130 1    
     9    5    6 1    
    10    5   65 1    
    11    5  131 1    
    12    6    7 1    
    13    6  132 1    
    14    6  133 1    
    15    7    8 1    
    16    8    9 1    
    17    8  134 1    
    18    8  135 1    
    19    9   10 ar   
    20    9   14 ar   
    21   10   11 ar   
    22   10  136 1    
    23   11   12 ar   
    24   11  126 1    
    25   12   13 ar   
    26   12  137 1    
    27   13   14 ar   
    28   13   15 1    
    29   14  138 1    
    30   15   16 1    
    31   15  139 1    
    32   15  140 1    
    33   16   17 1    
    34   17   18 1    
    35   17  141 1    
    36   17  142 1    
    37   18   19 1    
    38   18   67 1    
    39   18  143 1    
    40   19   20 am   BACKBONE|DICT|INTERRES
    41   19  144 1    
    42   20   21 2    
    43   20   22 1    
    44   22   23 1    
    45   22   24 1    
    46   22  145 1    
    47   23  146 1    
    48   23  147 1    
    49   23  148 1    
    50   24   25 am   BACKBONE|DICT|INTERRES
    51   24  149 1    
    52   25   26 2    
    53   25   27 1    
    54   27   28 1    
    55   27   29 1    
    56   27  150 1    
    57   28  151 1    
    58   28  152 1    
    59   28  153 1    
    60   29   30 am   BACKBONE|DICT|INTERRES
    61   29  154 1    
    62   30   31 2    
    63   30   32 1    
    64   32   33 1    
    65   32   34 1    
    66   32  155 1    
    67   33  156 1    
    68   33  157 1    
    69   33  158 1    
    70   34   35 am   BACKBONE|DICT|INTERRES
    71   34  159 1    
    72   35   36 2    
    73   35   37 1    
    74   37   38 1    
    75   37   39 1    
    76   37  160 1    
    77   38  161 1    
    78   38  162 1    
    79   38  163 1    
    80   39   40 am   BACKBONE|DICT|INTERRES
    81   39  164 1    
    82   40   41 2    
    83   40   42 1    
    84   42   43 1    
    85   42   44 1    
    86   42  165 1    
    87   43  166 1    
    88   43  167 1    
    89   43  168 1    
    90   44   45 am   BACKBONE|DICT|INTERRES
    91   44  169 1    
    92   45   46 2    
    93   45   47 1    
    94   47   48 1    
    95   47   49 1    
    96   47  170 1    
    97   48  171 1    
    98   48  172 1    
    99   48  173 1    
   100   49   50 am   BACKBONE|DICT|INTERRES
   101   49  174 1    
   102   50   51 2    
   103   50   52 1    
   104   52   53 1    
   105   52   54 1    
   106   52  175 1    
   107   53  176 1    
   108   53  177 1    
   109   53  178 1    
   110   54   55 am   BACKBONE|DICT|INTERRES
   111   54  179 1    
   112   55   56 2    
   113   55   57 1    
   114   57   58 1    
   115   57   59 1    
   116   57  180 1    
   117   58  181 1    
   118   58  182 1    
   119   58  183 1    
   120   59   60 am   BACKBONE|DICT|INTERRES
   121   59  184 1    
   122   60   61 2    
   123   60   62 1    
   124   62   63 1    
   125   62   64 1    
   126   62  185 1    
   127   63  186 1    
   128   63  187 1    
   129   63  188 1    
   130   64   65 am   BACKBONE|DICT|INTERRES
   131   64  189 1    
   132   65   66 2    
   133   67   68 2    
   134   67   69 am   BACKBONE|DICT|INTERRES
   135   69   70 1    
   136   69  190 1    
   137   70   71 1    
   138   70   72 1    
   139   70  191 1    
   140   71  192 1    
   141   71  193 1    
   142   71  194 1    
   143   72   73 2    
   144   72   74 am   BACKBONE|DICT|INTERRES
   145   74   75 1    
   146   74  195 1    
   147   75   76 1    
   148   75   77 1    
   149   75  196 1    
   150   76  197 1    
   151   76  198 1    
   152   76  199 1    
   153   77   78 2    
   154   77   79 am   BACKBONE|DICT|INTERRES
   155   79   80 1    
   156   79  200 1    
   157   80   81 1    
   158   80   82 1    
   159   80  201 1    
   160   81  202 1    
   161   81  203 1    
   162   81  204 1    
   163   82   83 2    
   164   82   84 am   BACKBONE|DICT|INTERRES
   165   84   85 1    
   166   84  205 1    
   167   85   86 1    
   168   85   87 1    
   169   85  206 1    
   170   86  207 1    
   171   86  208 1    
   172   86  209 1    
   173   87   88 2    
   174   87   89 am   BACKBONE|DICT|INTERRES
   175   89   90 1    
   176   89  210 1    
   177   90   91 1    
   178   90   92 1    
   179   90  211 1    
   180   91  212 1    
   181   91  213 1    
   182   91  214 1    
   183   92   93 2    
   184   92   94 am   BACKBONE|DICT|INTERRES
   185   94   95 1    
   186   94  215 1    
   187   95   96 1    
   188   95   97 1    
   189   95  216 1    
   190   96  217 1    
   191   96  218 1    
   192   96  219 1    
   193   97   98 2    
   194   97   99 am   BACKBONE|DICT|INTERRES
   195   99  100 1    
   196   99  220 1    
   197  100  101 1    
   198  100  102 1    
   199  100  221 1    
   200  101  222 1    
   201  101  223 1    
   202  101  224 1    
   203  102  103 2    
   204  102  104 am   BACKBONE|DICT|INTERRES
   205  104  105 1    
   206  104  225 1    
   207  105  106 1    
   208  105  107 1    
   209  105  226 1    
   210  106  227 1    
   211  106  228 1    
   212  106  229 1    
   213  107  108 2    
   214  107  109 am   BACKBONE|DICT|INTERRES
   215  109  110 1    
   216  109  230 1    
   217  110  111 1    
   218  110  112 1    
   219  110  231 1    
   220  111  232 1    
   221  111  233 1    
   222  111  234 1    
   223  112  113 2    
   224  112  114 am   BACKBONE|DICT|INTERRES
   225  114  115 1    
   226  114  235 1    
   227  115  116 1    
   228  115  117 1    
   229  115  236 1    
   230  116  237 1    
   231  116  238 1    
   232  116  239 1    
   233  117  118 2    
   234  117  119 am   BACKBONE|DICT|INTERRES
   235  119  120 1    
   236  119  240 1    
   237  120  121 1    
   238  120  124 1    
   239  120  241 1    
   240  121  122 am   BACKBONE|DICT|INTERRES
   241  121  123 2    
   242  122  242 1    
   243  122  243 1    
   244  124  125 1    
   245  124  244 1    
   246  124  245 1    
   247  125  126 1    
   248  126  246 1    
   249  126  247 1    
@<TRIPOS>SUBSTRUCTURE
     1 UNK         1 GROUP             0       ****    0 ROOT    
