@<TRIPOS>MOLECULE
3R540
247   249    1
SMALL
USER_CHARGES


@<TRIPOS>ATOM
      1 CA          5.2647  -15.2461  -46.3635 C.3       0 UNK        -0.1800 
      2 C           3.8329  -15.0575  -46.8462 C.2       0 UNK         0.5000 
      3 O           3.0811  -16.0285  -46.9195 O.2       0 UNK        -0.5000 
      4 N           3.4657  -13.8143  -47.1744 N.am      1 UNK        -0.5000 
      5 CA          2.1313  -13.4008  -47.6104 C.3       1 UNK         0.1400 
      6 C6          2.0039  -13.2869  -49.1568 C.3       23 UNK        -0.0398 
      7 S7          2.4733  -14.7822  -50.0875 S.3       23 UNK        -0.2404 
      8 C8          1.0521  -15.8709  -49.7680 C.3       23 UNK        -0.0205 
      9 C9          1.2150  -17.1777  -50.5230 C.ar      23 UNK        -0.0193 
     10 C10         0.7907  -17.2701  -51.8505 C.ar      23 UNK        -0.1150 
     11 C11         0.9972  -18.4421  -52.5812 C.ar      23 UNK        -0.0193 
     12 C12         1.6195  -19.5340  -51.9690 C.ar      23 UNK        -0.1150 
     13 C13         2.0367  -19.4581  -50.6357 C.ar      23 UNK        -0.0193 
     14 C14         1.8277  -18.2779  -49.9150 C.ar      23 UNK        -0.1150 
     15 C15         2.7569  -20.6354  -49.9950 C.3       23 UNK        -0.0205 
     16 S16         1.6283  -22.0098  -49.6158 S.3       23 UNK        -0.2404 
     17 C17         0.7329  -21.3686  -48.1637 C.3       23 UNK        -0.0398 
     18 CA          0.1058  -22.5058  -47.3181 C.3       11 UNK         0.1400 
     19 N          -0.0140  -22.1319  -45.9053 N.am      11 UNK        -0.5000 
     20 C          -0.3469  -22.9750  -44.9176 C.2       10 UNK         0.5000 
     21 O          -0.5543  -24.1757  -45.0865 O.2       10 UNK        -0.5000 
     22 CA         -0.5311  -22.3692  -43.5145 C.3       10 UNK         0.1400 
     23 CB          0.8221  -22.2077  -42.8070 C.3       10 UNK        -0.1800 
     24 N          -1.2408  -21.0887  -43.5416 N.am      10 UNK        -0.5000 
     25 C          -2.5052  -20.9367  -43.9620 C.2       9 UNK         0.5000 
     26 O          -3.2192  -21.8707  -44.3200 O.2       9 UNK        -0.5000 
     27 CA         -3.0548  -19.5037  -44.0522 C.3       9 UNK         0.1400 
     28 CB         -3.5278  -19.0126  -42.6765 C.3       9 UNK        -0.1800 
     29 N          -2.0868  -18.5619  -44.6115 N.am      9 UNK        -0.5000 
     30 C          -1.5702  -18.6341  -45.8472 C.2       8 UNK         0.5000 
     31 O          -1.8827  -19.4918  -46.6742 O.2       8 UNK        -0.5000 
     32 CA         -0.4754  -17.6066  -46.1895 C.3       8 UNK         0.1400 
     33 CB         -1.0916  -16.2320  -46.4911 C.3       8 UNK        -0.1800 
     34 N           0.5127  -17.4835  -45.1157 N.am      8 UNK        -0.5000 
     35 C           1.3157  -18.4804  -44.7150 C.2       7 UNK         0.5000 
     36 O           1.3481  -19.5892  -45.2493 O.2       7 UNK        -0.5000 
     37 CA          2.1719  -18.2235  -43.4632 C.3       7 UNK         0.1400 
     38 CB          3.4752  -17.4931  -43.8123 C.3       7 UNK        -0.1800 
     39 N           1.4376  -17.4685  -42.4483 N.am      7 UNK        -0.5000 
     40 C           0.4438  -17.9802  -41.7081 C.2       6 UNK         0.5000 
     41 O           0.0708  -19.1498  -41.7844 O.2       6 UNK        -0.5000 
     42 CA         -0.2807  -17.0181  -40.7488 C.3       6 UNK         0.1400 
     43 CB          0.4591  -16.9354  -39.4056 C.3       6 UNK        -0.1800 
     44 N          -0.4326  -15.6722  -41.3016 N.am      6 UNK        -0.5000 
     45 C          -1.1682  -15.3718  -42.3812 C.2       5 UNK         0.5000 
     46 O          -1.8332  -16.1971  -43.0049 O.2       5 UNK        -0.5000 
     47 CA         -1.1149  -13.9149  -42.8736 C.3       5 UNK         0.1400 
     48 CB         -2.2285  -13.0853  -42.2185 C.3       5 UNK        -0.1800 
     49 N           0.1758  -13.2668  -42.6317 N.am      5 UNK        -0.5000 
     50 C           1.3461  -13.6538  -43.1558 C.2       4 UNK         0.5000 
     51 O           1.4673  -14.6380  -43.8874 O.2       4 UNK        -0.5000 
     52 CA          2.5629  -12.7749  -42.8056 C.3       4 UNK         0.1400 
     53 CB          3.8790  -13.2961  -43.4048 C.3       4 UNK        -0.1800 
     54 N           2.3340  -11.4076  -43.2682 N.am      4 UNK        -0.5000 
     55 C           1.7069  -10.4543  -42.5651 C.2       3 UNK         0.5000 
     56 O           1.3425  -10.5996  -41.3977 O.2       3 UNK        -0.5000 
     57 CA          1.3729   -9.1460  -43.3072 C.3       3 UNK         0.1400 
     58 CB          2.5169   -8.1321  -43.1586 C.3       3 UNK        -0.1800 
     59 N           1.0958   -9.3547  -44.7296 N.am      3 UNK        -0.5000 
     60 C           0.0713  -10.0670  -45.2198 C.2       2 UNK         0.5000 
     61 O          -0.8071  -10.5744  -44.5223 O.2       2 UNK        -0.5000 
     62 CA          0.0252  -10.2701  -46.7459 C.3       2 UNK         0.1400 
     63 CB          0.7071   -9.1356  -47.5436 C.3       2 UNK        -0.1800 
     64 N           0.5576  -11.5771  -47.1490 N.am      2 UNK        -0.5000 
     65 C           1.7957  -12.0521  -46.9412 C.2       1 UNK         0.5000 
     66 O           2.6598  -11.4563  -46.2889 O.2       1 UNK        -0.5000 
     67 C          -1.2387  -22.9890  -47.9083 C.2       11 UNK         0.5000 
     68 O          -1.2620  -23.9627  -48.6648 O.2       11 UNK        -0.5000 
     69 N          -2.3390  -22.3251  -47.5268 N.am      12 UNK        -0.5000 
     70 CA         -3.7006  -22.7134  -47.8919 C.3       12 UNK         0.1400 
     71 CB         -4.6602  -21.5441  -47.6294 C.3       12 UNK        -0.1800 
     72 C          -4.1617  -23.9955  -47.1731 C.2       12 UNK         0.5000 
     73 O          -4.7538  -24.8645  -47.8101 O.2       12 UNK        -0.5000 
     74 N          -3.8489  -24.1261  -45.8758 N.am      13 UNK        -0.5000 
     75 CA         -4.1464  -25.3084  -45.0587 C.3       13 UNK         0.1400 
     76 CB         -3.8180  -25.0179  -43.5869 C.3       13 UNK        -0.1800 
     77 C          -3.4115  -26.5745  -45.5387 C.2       13 UNK         0.5000 
     78 O          -3.9873  -27.6625  -45.5087 O.2       13 UNK        -0.5000 
     79 N          -2.1721  -26.4012  -46.0164 N.am      14 UNK        -0.5000 
     80 CA         -1.3674  -27.4338  -46.6723 C.3       14 UNK         0.1400 
     81 CB          0.0979  -26.9687  -46.6961 C.3       14 UNK        -0.1800 
     82 C          -1.8413  -27.7667  -48.1034 C.2       14 UNK         0.5000 
     83 O          -1.3566  -28.7398  -48.6814 O.2       14 UNK        -0.5000 
     84 N          -2.7439  -26.9422  -48.6579 N.am      15 UNK        -0.5000 
     85 CA         -3.2859  -26.9682  -50.0206 C.3       15 UNK         0.1400 
     86 CB         -4.0527  -28.2773  -50.2964 C.3       15 UNK        -0.1800 
     87 C          -2.2432  -26.6490  -51.1116 C.2       15 UNK         0.5000 
     88 O          -2.5172  -26.8576  -52.2937 O.2       15 UNK        -0.5000 
     89 N          -1.0876  -26.1005  -50.7152 N.am      16 UNK        -0.5000 
     90 CA         -0.0151  -25.6616  -51.6064 C.3       16 UNK         0.1400 
     91 CB          1.2792  -25.5085  -50.7952 C.3       16 UNK        -0.1800 
     92 C          -0.3804  -24.3618  -52.3462 C.2       16 UNK         0.5000 
     93 O          -0.0127  -24.2019  -53.5101 O.2       16 UNK        -0.5000 
     94 N          -1.1511  -23.4928  -51.6783 N.am      17 UNK        -0.5000 
     95 CA         -1.7669  -22.2982  -52.2616 C.3       17 UNK         0.1400 
     96 CB         -1.7907  -21.1839  -51.2007 C.3       17 UNK        -0.1800 
     97 C          -3.1912  -22.5708  -52.7908 C.2       17 UNK         0.5000 
     98 O          -3.8895  -21.6240  -53.1584 O.2       17 UNK        -0.5000 
     99 N          -3.6259  -23.8418  -52.7692 N.am      18 UNK        -0.5000 
    100 CA        -5.0062  -24.3056  -52.9461 C.3       18 UNK         0.1400 
    101 CB        -5.4803  -24.0905  -54.4002 C.3       18 UNK        -0.1800 
    102 C         -5.9171  -23.6697  -51.8740 C.2       18 UNK         0.5000 
    103 O         -5.5175  -23.6145  -50.7113 O.2       18 UNK        -0.5000 
    104 N         -7.0813  -23.1389  -52.2647 N.am      19 UNK        -0.5000 
    105 CA        -7.9748  -22.3563  -51.4035 C.3       19 UNK         0.1400 
    106 CB        -9.4205  -22.5466  -51.8978 C.3       19 UNK        -0.1800 
    107 C         -7.5551  -20.8678  -51.3515 C.2       19 UNK         0.5000 
    108 O         -8.4101  -19.9857  -51.4453 O.2       19 UNK        -0.5000 
    109 N         -6.2386  -20.6198  -51.2547 N.am      20 UNK        -0.5000 
    110 CA        -5.5546  -19.3258  -51.3927 C.3       20 UNK         0.1400 
    111 CB        -5.9043  -18.3865  -50.2204 C.3       20 UNK        -0.1800 
    112 C         -5.7874  -18.6819  -52.7794 C.2       20 UNK         0.5000 
    113 O         -5.8831  -17.4586  -52.8954 O.2       20 UNK        -0.5000 
    114 N         -5.8907  -19.5311  -53.8110 N.am      21 UNK        -0.5000 
    115 CA        -6.2653  -19.1644  -55.1773 C.3       21 UNK         0.1400 
    116 CB        -6.6524  -20.4379  -55.9439 C.3       21 UNK        -0.1800 
    117 C         -5.1623  -18.3990  -55.9278 C.2       21 UNK         0.5000 
    118 O         -5.4708  -17.6198  -56.8303 O.2       21 UNK        -0.5000 
    119 N         -3.9036  -18.6307  -55.5398 N.am      22 UNK        -0.5000 
    120 CA        -2.7150  -17.9520  -56.0762 C.3       22 UNK         0.1400 
    121 C         -2.4816  -16.5097  -55.5305 C.2       22 UNK         0.5000 
    122 N         -3.2704  -16.0144  -54.5831 N.am      22 UNK        -0.7600 
    123 O         -1.5743  -15.8203  -55.9883 O.2       22 UNK        -0.5000 
    124 C124       -1.4577  -18.8487  -55.9478 C.3       23 UNK        -0.0398 
    125 S125       -1.0554  -19.2805  -54.2201 S.3       23 UNK        -0.2404 
    126 C126        0.5767  -18.5076  -54.0396 C.3       23 UNK        -0.0205 
    127 H127        5.2733  -15.5677  -45.3225 H         1 UNK         0.0600 
    128 H128        5.8418  -14.3242  -46.4384 H         1 UNK         0.0600 
    129 H129        5.7640  -16.0086  -46.9613 H         1 UNK         0.0600 
    130 H130        4.1013  -13.0421  -47.0239 H         1 UNK         0.3000 
    131 H131        1.3983  -14.1178  -47.2415 H         1 UNK         0.0600 
    132 H132        0.9850  -13.0249  -49.4458 H         1 UNK         0.0800 
    133 H133        2.6352  -12.4753  -49.5233 H         1 UNK         0.0800 
    134 H134        0.1272  -15.3753  -50.0667 H         1 UNK         0.0800 
    135 H135        0.9758  -16.0663  -48.6983 H         1 UNK         0.0800 
    136 H136        0.3232  -16.4178  -52.3237 H         1 UNK         0.1150 
    137 H137        1.7846  -20.4424  -52.5316 H         1 UNK         0.1150 
    138 H138        2.1669  -18.2019  -48.8907 H         1 UNK         0.1150 
    139 H139        3.2820  -20.3279  -49.0893 H         1 UNK         0.0800 
    140 H140        3.5248  -20.9959  -50.6809 H         1 UNK         0.0800 
    141 H141       -0.0109  -20.6342  -48.4785 H         1 UNK         0.0800 
    142 H142        1.4572  -20.8191  -47.5623 H         1 UNK         0.0800 
    143 H143        0.7857  -23.3605  -47.3409 H         1 UNK         0.0600 
    144 H144        0.1839  -21.1636  -45.6722 H         1 UNK         0.3000 
    145 H145       -1.1324  -23.0671  -42.9290 H         1 UNK         0.0600 
    146 H146        1.3541  -23.1587  -42.7617 H         1 UNK         0.0600 
    147 H147        0.6917  -21.8601  -41.7822 H         1 UNK         0.0600 
    148 H148        1.4660  -21.4961  -43.3230 H         1 UNK         0.0600 
    149 H149       -0.7333  -20.2792  -43.1987 H         1 UNK         0.3000 
    150 H150       -3.9183  -19.5224  -44.7202 H         1 UNK         0.0600 
    151 H151       -2.7030  -18.9454  -41.9672 H         1 UNK         0.0600 
    152 H152       -4.2704  -19.6906  -42.2541 H         1 UNK         0.0600 
    153 H153       -3.9894  -18.0276  -42.7471 H         1 UNK         0.0600 
    154 H154       -1.8104  -17.7895  -44.0104 H         1 UNK         0.3000 
    155 H155        0.0465  -17.9526  -47.0843 H         1 UNK         0.0600 
    156 H156       -0.3226  -15.4921  -46.7021 H         1 UNK         0.0600 
    157 H157       -1.6872  -15.8600  -45.6577 H         1 UNK         0.0600 
    158 H158       -1.7449  -16.2837  -47.3628 H         1 UNK         0.0600 
    159 H159        0.5769  -16.5914  -44.6417 H         1 UNK         0.3000 
    160 H160        2.4396  -19.1945  -43.0412 H         1 UNK         0.0600 
    161 H161        3.2818  -16.4928  -44.1960 H         1 UNK         0.0600 
    162 H162        4.0336  -18.0339  -44.5775 H         1 UNK         0.0600 
    163 H163        4.1217  -17.3983  -42.9400 H         1 UNK         0.0600 
    164 H164        1.6416  -16.4816  -42.3814 H         1 UNK         0.3000 
    165 H165       -1.2787  -17.4211  -40.5645 H         1 UNK         0.0600 
    166 H166       -0.0871  -16.3184  -38.6918 H         1 UNK         0.0600 
    167 H167        0.5696  -17.9250  -38.9600 H         1 UNK         0.0600 
    168 H168        1.4583  -16.5133  -39.5199 H         1 UNK         0.0600 
    169 H169        0.0801  -14.9301  -40.8490 H         1 UNK         0.3000 
    170 H170       -1.2834  -13.9243  -43.9524 H         1 UNK         0.0600 
    171 H171       -2.2543  -12.0727  -42.6215 H         1 UNK         0.0600 
    172 H172       -2.0956  -13.0136  -41.1383 H         1 UNK         0.0600 
    173 H173       -3.2070  -13.5315  -42.4013 H         1 UNK         0.0600 
    174 H174        0.1644  -12.4301  -42.0625 H         1 UNK         0.3000 
    175 H175        2.6709  -12.7880  -41.7191 H         1 UNK         0.0600 
    176 H176        4.0716  -14.3257  -43.1016 H         1 UNK         0.0600 
    177 H177        3.8604  -13.2672  -44.4922 H         1 UNK         0.0600 
    178 H178        4.7257  -12.6957  -43.0721 H         1 UNK         0.0600 
    179 H179        2.5376  -11.2301  -44.2469 H         1 UNK         0.3000 
    180 H180        0.4767   -8.7237  -42.8481 H         1 UNK         0.0600 
    181 H181        3.4365   -8.4919  -43.6219 H         1 UNK         0.0600 
    182 H182        2.7327   -7.9385  -42.1069 H         1 UNK         0.0600 
    183 H183        2.2602   -7.1772  -43.6176 H         1 UNK         0.0600 
    184 H184        1.7871   -9.0096  -45.3798 H         1 UNK         0.3000 
    185 H185       -1.0309  -10.2678  -47.0202 H         1 UNK         0.0600 
    186 H186        0.3099   -8.1612  -47.2559 H         1 UNK         0.0600 
    187 H187        1.7871   -9.1095  -47.3966 H         1 UNK         0.0600 
    188 H188        0.5262   -9.2520  -48.6122 H         1 UNK         0.0600 
    189 H189       -0.0988  -12.1570  -47.6522 H         1 UNK         0.3000 
    190 H190       -2.2358  -21.5009  -46.9438 H         1 UNK         0.3000 
    191 H191       -3.7114  -22.9188  -48.9632 H         1 UNK         0.0600 
    192 H192       -4.3510  -20.6544  -48.1780 H         1 UNK         0.0600 
    193 H193       -5.6718  -21.7919  -47.9536 H         1 UNK         0.0600 
    194 H194       -4.7045  -21.2861  -46.5712 H         1 UNK         0.0600 
    195 H195       -3.4173  -23.3401  -45.3940 H         1 UNK         0.3000 
    196 H196       -5.2184  -25.5008  -45.1346 H         1 UNK         0.0600 
    197 H197       -4.0632  -25.8729  -42.9557 H         1 UNK         0.0600 
    198 H198       -4.3880  -24.1661  -43.2157 H         1 UNK         0.0600 
    199 H199       -2.7593  -24.8001  -43.4476 H         1 UNK         0.0600 
    200 H200       -1.7403  -25.4859  -45.9219 H         1 UNK         0.3000 
    201 H201       -1.4292  -28.3507  -46.0829 H         1 UNK         0.0600 
    202 H202        0.7440  -27.7217  -47.1491 H         1 UNK         0.0600 
    203 H203        0.4700  -26.7873  -45.6876 H         1 UNK         0.0600 
    204 H204        0.2169  -26.0467  -47.2668 H         1 UNK         0.0600 
    205 H205       -3.0919  -26.1803  -48.0882 H         1 UNK         0.3000 
    206 H206       -4.0106  -26.1541  -50.0653 H         1 UNK         0.0600 
    207 H207       -4.7857  -28.4759  -49.5144 H         1 UNK         0.0600 
    208 H208       -4.5956  -28.2206  -51.2405 H         1 UNK         0.0600 
    209 H209       -3.3841  -29.1361  -50.3578 H         1 UNK         0.0600 
    210 H210       -0.9839  -25.8680  -49.7355 H         1 UNK         0.3000 
    211 H211        0.1484  -26.4344  -52.3606 H         1 UNK         0.0600 
    212 H212        1.1389  -24.8537  -49.9358 H         1 UNK         0.0600 
    213 H213        2.0814  -25.0904  -51.4047 H         1 UNK         0.0600 
    214 H214        1.6217  -26.4734  -50.4213 H         1 UNK         0.0600 
    215 H215       -1.3693  -23.6936  -50.7079 H         1 UNK         0.3000 
    216 H216       -1.1673  -21.9540  -53.1050 H         1 UNK         0.0600 
    217 H217       -2.1968  -20.2584  -51.6084 H         1 UNK         0.0600 
    218 H218       -0.7870  -20.9536  -50.8497 H         1 UNK         0.0600 
    219 H219       -2.3990  -21.4549  -50.3391 H         1 UNK         0.0600 
    220 H220       -2.9706  -24.5498  -52.4704 H         1 UNK         0.3000 
    221 H221       -5.0020  -25.3786  -52.7501 H         1 UNK         0.0600 
    222 H222       -5.5700  -23.0346  -54.6525 H         1 UNK         0.0600 
    223 H223       -4.7803  -24.5379  -55.1059 H         1 UNK         0.0600 
    224 H224       -6.4494  -24.5595  -54.5738 H         1 UNK         0.0600 
    225 H225       -7.3336  -23.1918  -53.2408 H         1 UNK         0.3000 
    226 H226       -7.9230  -22.7384  -50.3818 H         1 UNK         0.0600 
    227 H227       -9.6970  -23.6010  -51.9094 H         1 UNK         0.0600 
    228 H228       -9.5560  -22.1528  -52.9059 H         1 UNK         0.0600 
    229 H229      -10.1297  -22.0356  -51.2455 H         1 UNK         0.0600 
    230 H230       -5.6290  -21.4250  -51.1865 H         1 UNK         0.3000 
    231 H231       -4.4869  -19.5378  -51.3335 H         1 UNK         0.0600 
    232 H232       -6.9459  -18.0664  -50.2534 H         1 UNK         0.0600 
    233 H233       -5.2862  -17.4883  -50.2434 H         1 UNK         0.0600 
    234 H234       -5.7332  -18.8722  -49.2601 H         1 UNK         0.0600 
    235 H235       -5.6780  -20.5058  -53.6382 H         1 UNK         0.3000 
    236 H236       -7.1424  -18.5159  -55.1250 H         1 UNK         0.0600 
    237 H237       -7.0110  -20.1956  -56.9451 H         1 UNK         0.0600 
    238 H238       -5.8023  -21.1116  -56.0558 H         1 UNK         0.0600 
    239 H239       -7.4501  -20.9802  -55.4357 H         1 UNK         0.0600 
    240 H240       -3.7405  -19.2802  -54.7826 H         1 UNK         0.3000 
    241 H241       -2.8820  -17.8178  -57.1466 H         1 UNK         0.0600 
    242 H242       -3.1109  -15.0781  -54.2470 H         1 UNK         0.3800 
    243 H243       -4.0290  -16.5609  -54.2020 H         1 UNK         0.3800 
    244 H244       -0.5998  -18.3780  -56.4307 H         1 UNK         0.0800 
    245 H245       -1.6200  -19.7799  -56.4922 H         1 UNK         0.0800 
    246 H246        1.3111  -19.0711  -54.6169 H         1 UNK         0.0800 
    247 H247        0.5534  -17.5023  -54.4640 H         1 UNK         0.0800 
@<TRIPOS>BOND
     1    1    2 1    
     2    1  127 1    
     3    1  128 1    
     4    1  129 1    
     5    2    3 2    
     6    2    4 am   BACKBONE|DICT|INTERRES
     7    4    5 1    
     8    4  130 1    
     9    5    6 1    
    10    5   65 1    
    11    5  131 1    
    12    6    7 1    
    13    6  132 1    
    14    6  133 1    
    15    7    8 1    
    16    8    9 1    
    17    8  134 1    
    18    8  135 1    
    19    9   10 ar   
    20    9   14 ar   
    21   10   11 ar   
    22   10  136 1    
    23   11   12 ar   
    24   11  126 1    
    25   12   13 ar   
    26   12  137 1    
    27   13   14 ar   
    28   13   15 1    
    29   14  138 1    
    30   15   16 1    
    31   15  139 1    
    32   15  140 1    
    33   16   17 1    
    34   17   18 1    
    35   17  141 1    
    36   17  142 1    
    37   18   19 1    
    38   18   67 1    
    39   18  143 1    
    40   19   20 am   BACKBONE|DICT|INTERRES
    41   19  144 1    
    42   20   21 2    
    43   20   22 1    
    44   22   23 1    
    45   22   24 1    
    46   22  145 1    
    47   23  146 1    
    48   23  147 1    
    49   23  148 1    
    50   24   25 am   BACKBONE|DICT|INTERRES
    51   24  149 1    
    52   25   26 2    
    53   25   27 1    
    54   27   28 1    
    55   27   29 1    
    56   27  150 1    
    57   28  151 1    
    58   28  152 1    
    59   28  153 1    
    60   29   30 am   BACKBONE|DICT|INTERRES
    61   29  154 1    
    62   30   31 2    
    63   30   32 1    
    64   32   33 1    
    65   32   34 1    
    66   32  155 1    
    67   33  156 1    
    68   33  157 1    
    69   33  158 1    
    70   34   35 am   BACKBONE|DICT|INTERRES
    71   34  159 1    
    72   35   36 2    
    73   35   37 1    
    74   37   38 1    
    75   37   39 1    
    76   37  160 1    
    77   38  161 1    
    78   38  162 1    
    79   38  163 1    
    80   39   40 am   BACKBONE|DICT|INTERRES
    81   39  164 1    
    82   40   41 2    
    83   40   42 1    
    84   42   43 1    
    85   42   44 1    
    86   42  165 1    
    87   43  166 1    
    88   43  167 1    
    89   43  168 1    
    90   44   45 am   BACKBONE|DICT|INTERRES
    91   44  169 1    
    92   45   46 2    
    93   45   47 1    
    94   47   48 1    
    95   47   49 1    
    96   47  170 1    
    97   48  171 1    
    98   48  172 1    
    99   48  173 1    
   100   49   50 am   BACKBONE|DICT|INTERRES
   101   49  174 1    
   102   50   51 2    
   103   50   52 1    
   104   52   53 1    
   105   52   54 1    
   106   52  175 1    
   107   53  176 1    
   108   53  177 1    
   109   53  178 1    
   110   54   55 am   BACKBONE|DICT|INTERRES
   111   54  179 1    
   112   55   56 2    
   113   55   57 1    
   114   57   58 1    
   115   57   59 1    
   116   57  180 1    
   117   58  181 1    
   118   58  182 1    
   119   58  183 1    
   120   59   60 am   BACKBONE|DICT|INTERRES
   121   59  184 1    
   122   60   61 2    
   123   60   62 1    
   124   62   63 1    
   125   62   64 1    
   126   62  185 1    
   127   63  186 1    
   128   63  187 1    
   129   63  188 1    
   130   64   65 am   BACKBONE|DICT|INTERRES
   131   64  189 1    
   132   65   66 2    
   133   67   68 2    
   134   67   69 am   BACKBONE|DICT|INTERRES
   135   69   70 1    
   136   69  190 1    
   137   70   71 1    
   138   70   72 1    
   139   70  191 1    
   140   71  192 1    
   141   71  193 1    
   142   71  194 1    
   143   72   73 2    
   144   72   74 am   BACKBONE|DICT|INTERRES
   145   74   75 1    
   146   74  195 1    
   147   75   76 1    
   148   75   77 1    
   149   75  196 1    
   150   76  197 1    
   151   76  198 1    
   152   76  199 1    
   153   77   78 2    
   154   77   79 am   BACKBONE|DICT|INTERRES
   155   79   80 1    
   156   79  200 1    
   157   80   81 1    
   158   80   82 1    
   159   80  201 1    
   160   81  202 1    
   161   81  203 1    
   162   81  204 1    
   163   82   83 2    
   164   82   84 am   BACKBONE|DICT|INTERRES
   165   84   85 1    
   166   84  205 1    
   167   85   86 1    
   168   85   87 1    
   169   85  206 1    
   170   86  207 1    
   171   86  208 1    
   172   86  209 1    
   173   87   88 2    
   174   87   89 am   BACKBONE|DICT|INTERRES
   175   89   90 1    
   176   89  210 1    
   177   90   91 1    
   178   90   92 1    
   179   90  211 1    
   180   91  212 1    
   181   91  213 1    
   182   91  214 1    
   183   92   93 2    
   184   92   94 am   BACKBONE|DICT|INTERRES
   185   94   95 1    
   186   94  215 1    
   187   95   96 1    
   188   95   97 1    
   189   95  216 1    
   190   96  217 1    
   191   96  218 1    
   192   96  219 1    
   193   97   98 2    
   194   97   99 am   BACKBONE|DICT|INTERRES
   195   99  100 1    
   196   99  220 1    
   197  100  101 1    
   198  100  102 1    
   199  100  221 1    
   200  101  222 1    
   201  101  223 1    
   202  101  224 1    
   203  102  103 2    
   204  102  104 am   BACKBONE|DICT|INTERRES
   205  104  105 1    
   206  104  225 1    
   207  105  106 1    
   208  105  107 1    
   209  105  226 1    
   210  106  227 1    
   211  106  228 1    
   212  106  229 1    
   213  107  108 2    
   214  107  109 am   BACKBONE|DICT|INTERRES
   215  109  110 1    
   216  109  230 1    
   217  110  111 1    
   218  110  112 1    
   219  110  231 1    
   220  111  232 1    
   221  111  233 1    
   222  111  234 1    
   223  112  113 2    
   224  112  114 am   BACKBONE|DICT|INTERRES
   225  114  115 1    
   226  114  235 1    
   227  115  116 1    
   228  115  117 1    
   229  115  236 1    
   230  116  237 1    
   231  116  238 1    
   232  116  239 1    
   233  117  118 2    
   234  117  119 am   BACKBONE|DICT|INTERRES
   235  119  120 1    
   236  119  240 1    
   237  120  121 1    
   238  120  124 1    
   239  120  241 1    
   240  121  122 am   BACKBONE|DICT|INTERRES
   241  121  123 2    
   242  122  242 1    
   243  122  243 1    
   244  124  125 1    
   245  124  244 1    
   246  124  245 1    
   247  125  126 1    
   248  126  246 1    
   249  126  247 1    
@<TRIPOS>SUBSTRUCTURE
     1 UNK         1 GROUP             0       ****    0 ROOT    
