@<TRIPOS>MOLECULE
3R540
247   249    1
SMALL
USER_CHARGES


@<TRIPOS>ATOM
      1 CA         -0.5316  -13.3237  -48.1246 C.3       0 UNK        -0.1800 
      2 C           0.7020  -12.5499  -48.5668 C.2       0 UNK         0.5000 
      3 O           0.5719  -11.5082  -49.2097 O.2       0 UNK        -0.5000 
      4 N           1.8952  -13.0438  -48.2132 N.am      1 UNK        -0.5000 
      5 CA          3.1824  -12.3773  -48.4570 C.3       1 UNK         0.1400 
      6 C6          4.3689  -13.3745  -48.4750 C.3       23 UNK        -0.0398 
      7 S7          4.2420  -14.5924  -49.8343 S.3       23 UNK        -0.2404 
      8 C8          4.0460  -16.1734  -48.9441 C.3       23 UNK        -0.0205 
      9 C9          2.9091  -17.0114  -49.5133 C.ar      23 UNK        -0.0193 
     10 C10         1.5947  -16.5362  -49.4613 C.ar      23 UNK        -0.1150 
     11 C11         0.5410  -17.2996  -49.9659 C.ar      23 UNK        -0.0193 
     12 C12         0.8096  -18.5443  -50.5357 C.ar      23 UNK        -0.1150 
     13 C13         2.1106  -19.0525  -50.5611 C.ar      23 UNK        -0.0193 
     14 C14         3.1599  -18.2762  -50.0577 C.ar      23 UNK        -0.1150 
     15 C15         2.3695  -20.4468  -51.1164 C.3       23 UNK        -0.0205 
     16 S16         2.1776  -21.7393  -49.8415 S.3       23 UNK        -0.2404 
     17 C17         0.3982  -21.5982  -49.4627 C.3       23 UNK        -0.0398 
     18 CA         -0.1354  -22.6901  -48.5102 C.3       11 UNK         0.1400 
     19 N           0.6085  -22.7400  -47.2454 N.am      11 UNK        -0.5000 
     20 C           0.3816  -23.5991  -46.2422 C.2       10 UNK         0.5000 
     21 O          -0.5214  -24.4329  -46.2565 O.2       10 UNK        -0.5000 
     22 CA          1.2911  -23.5168  -45.0018 C.3       10 UNK         0.1400 
     23 CB          2.1428  -24.7902  -44.8868 C.3       10 UNK        -0.1800 
     24 N           2.1885  -22.3576  -45.0024 N.am      10 UNK        -0.5000 
     25 C           1.9123  -21.0924  -44.6555 C.2       9 UNK         0.5000 
     26 O           2.7856  -20.2262  -44.7010 O.2       9 UNK        -0.5000 
     27 CA          0.4961  -20.7074  -44.1593 C.3       9 UNK         0.1400 
     28 CB          0.3760  -20.9213  -42.6417 C.3       9 UNK        -0.1800 
     29 N           0.2061  -19.3040  -44.4481 N.am      9 UNK        -0.5000 
     30 C           0.0335  -18.7987  -45.6774 C.2       8 UNK         0.5000 
     31 O          -0.1086  -19.5025  -46.6775 O.2       8 UNK        -0.5000 
     32 CA          0.0615  -17.2677  -45.8159 C.3       8 UNK         0.1400 
     33 CB         -1.2977  -16.6429  -45.4669 C.3       8 UNK        -0.1800 
     34 N           1.1010  -16.7060  -44.9542 N.am      8 UNK        -0.5000 
     35 C           1.9946  -15.7776  -45.3147 C.2       7 UNK         0.5000 
     36 O           1.9624  -15.1883  -46.3947 O.2       7 UNK        -0.5000 
     37 CA          3.1174  -15.4471  -44.3095 C.3       7 UNK         0.1400 
     38 CB          3.4390  -13.9455  -44.2863 C.3       7 UNK        -0.1800 
     39 N           2.7662  -15.8683  -42.9551 N.am      7 UNK        -0.5000 
     40 C           3.2653  -16.9339  -42.3136 C.2       6 UNK         0.5000 
     41 O           4.1553  -17.6495  -42.7717 O.2       6 UNK        -0.5000 
     42 CA          2.6710  -17.2716  -40.9282 C.3       6 UNK         0.1400 
     43 CB          3.6715  -16.9230  -39.8152 C.3       6 UNK        -0.1800 
     44 N           1.4028  -16.5963  -40.6424 N.am      6 UNK        -0.5000 
     45 C           0.2500  -16.7911  -41.2975 C.2       5 UNK         0.5000 
     46 O           0.1113  -17.6199  -42.1966 O.2       5 UNK        -0.5000 
     47 CA         -0.9144  -15.8474  -40.9384 C.3       5 UNK         0.1400 
     48 CB         -1.8056  -16.4802  -39.8600 C.3       5 UNK        -0.1800 
     49 N          -0.4682  -14.5223  -40.4876 N.am      5 UNK        -0.5000 
     50 C           0.2186  -13.6550  -41.2445 C.2       4 UNK         0.5000 
     51 O           0.5542  -13.8856  -42.4074 O.2       4 UNK        -0.5000 
     52 CA          0.6820  -12.3565  -40.5615 C.3       4 UNK         0.1400 
     53 CB          2.1203  -12.5212  -40.0449 C.3       4 UNK        -0.1800 
     54 N           0.6385  -11.2158  -41.4750 N.am      4 UNK        -0.5000 
     55 C          -0.4837  -10.6252  -41.9071 C.2       3 UNK         0.5000 
     56 O          -1.6117  -10.9518  -41.5341 O.2       3 UNK        -0.5000 
     57 CA         -0.3280   -9.4586  -42.9055 C.3       3 UNK         0.1400 
     58 CB         -0.4477   -8.1111  -42.1763 C.3       3 UNK        -0.1800 
     59 N           0.9303   -9.4780  -43.6594 N.am      3 UNK        -0.5000 
     60 C           1.2214  -10.3653  -44.6185 C.2       2 UNK         0.5000 
     61 O           0.4577  -11.2731  -44.9608 O.2       2 UNK        -0.5000 
     62 CA          2.5864  -10.2099  -45.3122 C.3       2 UNK         0.1400 
     63 CB          3.7613  -10.3214  -44.3211 C.3       2 UNK        -0.1800 
     64 N           2.6775  -11.2447  -46.3334 N.am      2 UNK        -0.5000 
     65 C           3.4275  -11.2362  -47.4406 C.2       1 UNK         0.5000 
     66 O           4.2652  -10.3681  -47.6891 O.2       1 UNK        -0.5000 
     67 C          -1.6499  -22.4910  -48.2938 C.2       11 UNK         0.5000 
     68 O          -2.4509  -23.2066  -48.8934 O.2       11 UNK        -0.5000 
     69 N          -2.0143  -21.5393  -47.4226 N.am      12 UNK        -0.5000 
     70 CA         -3.3947  -21.2622  -47.0190 C.3       12 UNK         0.1400 
     71 CB         -3.4244  -20.0333  -46.0994 C.3       12 UNK        -0.1800 
     72 C          -4.0776  -22.4668  -46.3469 C.2       12 UNK         0.5000 
     73 O          -5.2151  -22.7916  -46.6913 O.2       12 UNK        -0.5000 
     74 N          -3.3477  -23.1265  -45.4354 N.am      13 UNK        -0.5000 
     75 CA         -3.7856  -24.3230  -44.7136 C.3       13 UNK         0.1400 
     76 CB         -2.7926  -24.6326  -43.5826 C.3       13 UNK        -0.1800 
     77 C          -3.9705  -25.5419  -45.6361 C.2       13 UNK         0.5000 
     78 O          -4.8985  -26.3243  -45.4295 O.2       13 UNK        -0.5000 
     79 N          -3.1332  -25.6477  -46.6764 N.am      14 UNK        -0.5000 
     80 CA         -3.2009  -26.6374  -47.7545 C.3       14 UNK         0.1400 
     81 CB         -1.8138  -26.7389  -48.4148 C.3       14 UNK        -0.1800 
     82 C          -4.3210  -26.3359  -48.7783 C.2       14 UNK         0.5000 
     83 O          -4.0935  -26.4188  -49.9872 O.2       14 UNK        -0.5000 
     84 N          -5.5128  -25.9849  -48.2737 N.am      15 UNK        -0.5000 
     85 CA         -6.7444  -25.6679  -49.0020 C.3       15 UNK         0.1400 
     86 CB         -7.3470  -26.9553  -49.6022 C.3       15 UNK        -0.1800 
     87 C          -6.5582  -24.5510  -50.0490 C.2       15 UNK         0.5000 
     88 O          -7.0186  -24.6920  -51.1817 O.2       15 UNK        -0.5000 
     89 N          -5.8544  -23.4769  -49.6612 N.am      16 UNK        -0.5000 
     90 CA         -5.4692  -22.3406  -50.5081 C.3       16 UNK         0.1400 
     91 CB         -6.7068  -21.5044  -50.8899 C.3       16 UNK        -0.1800 
     92 C          -4.6211  -22.7758  -51.7248 C.2       16 UNK         0.5000 
     93 O          -4.9183  -22.4146  -52.8649 O.2       16 UNK        -0.5000 
     94 N          -3.5943  -23.5905  -51.4434 N.am      17 UNK        -0.5000 
     95 CA         -2.7045  -24.2708  -52.3879 C.3       17 UNK         0.1400 
     96 CB         -1.7877  -23.2493  -53.0927 C.3       17 UNK        -0.1800 
     97 C          -3.4884  -25.1605  -53.3748 C.2       17 UNK         0.5000 
     98 O          -3.2887  -25.0637  -54.5850 O.2       17 UNK        -0.5000 
     99 N          -4.4142  -25.9689  -52.8370 N.am      18 UNK        -0.5000 
    100 CA        -5.4060  -26.7747  -53.5632 C.3       18 UNK         0.1400 
    101 CB        -4.7241  -27.9613  -54.2745 C.3       18 UNK        -0.1800 
    102 C         -6.2822  -25.9201  -54.5097 C.2       18 UNK         0.5000 
    103 O         -6.5174  -26.2963  -55.6593 O.2       18 UNK        -0.5000 
    104 N         -6.7142  -24.7608  -53.9957 N.am      19 UNK        -0.5000 
    105 CA        -7.4872  -23.6939  -54.6370 C.3       19 UNK         0.1400 
    106 CB        -8.8918  -24.2008  -55.0235 C.3       19 UNK        -0.1800 
    107 C         -6.7751  -22.9816  -55.8097 C.2       19 UNK         0.5000 
    108 O         -7.4333  -22.2467  -56.5489 O.2       19 UNK        -0.5000 
    109 N         -5.4609  -23.1876  -55.9758 N.am      20 UNK        -0.5000 
    110 CA        -4.6770  -22.6120  -57.0700 C.3       20 UNK         0.1400 
    111 CB        -3.5039  -23.5467  -57.4027 C.3       20 UNK        -0.1800 
    112 C         -4.1549  -21.1945  -56.7726 C.2       20 UNK         0.5000 
    113 O         -3.7631  -20.5023  -57.7140 O.2       20 UNK        -0.5000 
    114 N         -4.1287  -20.7828  -55.4983 N.am      21 UNK        -0.5000 
    115 CA        -3.5857  -19.4974  -55.0606 C.3       21 UNK         0.1400 
    116 CB        -2.0482  -19.5973  -54.9314 C.3       21 UNK        -0.1800 
    117 C         -4.2811  -19.0411  -53.7666 C.2       21 UNK         0.5000 
    118 O         -5.4316  -19.4088  -53.5255 O.2       21 UNK        -0.5000 
    119 N         -3.5789  -18.2332  -52.9646 N.am      22 UNK        -0.5000 
    120 CA        -3.9794  -17.8213  -51.6103 C.3       22 UNK         0.1400 
    121 C         -3.7224  -18.9007  -50.5188 C.2       22 UNK         0.5000 
    122 N         -2.9174  -19.9270  -50.7728 N.am      22 UNK        -0.7600 
    123 O         -4.2613  -18.8033  -49.4215 O.2       22 UNK        -0.5000 
    124 C124       -3.3504  -16.4558  -51.2159 C.3       23 UNK        -0.0398 
    125 S125       -1.5460  -16.3539  -51.5016 S.3       23 UNK        -0.2404 
    126 C126       -0.8938  -16.8127  -49.8672 C.3       23 UNK        -0.0205 
    127 H127       -1.1235  -12.7188  -47.4377 H         1 UNK         0.0600 
    128 H128       -1.1514  -13.5676  -48.9871 H         1 UNK         0.0600 
    129 H129       -0.2688  -14.2504  -47.6148 H         1 UNK         0.0600 
    130 H130        1.9376  -13.8927  -47.6498 H         1 UNK         0.3000 
    131 H131        3.1393  -11.9064  -49.4415 H         1 UNK         0.0600 
    132 H132        5.3085  -12.8378  -48.6183 H         1 UNK         0.0800 
    133 H133        4.4613  -13.8824  -47.5151 H         1 UNK         0.0800 
    134 H134        4.9903  -16.7170  -48.9975 H         1 UNK         0.0800 
    135 H135        3.8573  -16.0086  -47.8852 H         1 UNK         0.0800 
    136 H136        1.3939  -15.5726  -49.0204 H         1 UNK         0.1150 
    137 H137       -0.0068  -19.1320  -50.9300 H         1 UNK         0.1150 
    138 H138        4.1686  -18.6640  -50.0787 H         1 UNK         0.1150 
    139 H139        1.6953  -20.6521  -51.9495 H         1 UNK         0.0800 
    140 H140        3.3800  -20.5015  -51.5239 H         1 UNK         0.0800 
    141 H141       -0.1509  -21.6150  -50.4055 H         1 UNK         0.0800 
    142 H142        0.2280  -20.6189  -49.0168 H         1 UNK         0.0800 
    143 H143       -0.0036  -23.6585  -48.9974 H         1 UNK         0.0600 
    144 H144        1.3728  -22.0854  -47.1591 H         1 UNK         0.3000 
    145 H145        0.6426  -23.4778  -44.1261 H         1 UNK         0.0600 
    146 H146        2.8146  -24.9044  -45.7386 H         1 UNK         0.0600 
    147 H147        2.7483  -24.7796  -43.9803 H         1 UNK         0.0600 
    148 H148        1.5144  -25.6811  -44.8434 H         1 UNK         0.0600 
    149 H149        3.1299  -22.5553  -45.3083 H         1 UNK         0.3000 
    150 H150       -0.2598  -21.3094  -44.6631 H         1 UNK         0.0600 
    151 H151        0.5531  -21.9608  -42.3663 H         1 UNK         0.0600 
    152 H152       -0.6194  -20.6562  -42.2846 H         1 UNK         0.0600 
    153 H153        1.0977  -20.3130  -42.0947 H         1 UNK         0.0600 
    154 H154        0.2361  -18.6759  -43.6488 H         1 UNK         0.3000 
    155 H155        0.2863  -17.0465  -46.8610 H         1 UNK         0.0600 
    156 H156       -2.0784  -17.0101  -46.1332 H         1 UNK         0.0600 
    157 H157       -1.2677  -15.5580  -45.5690 H         1 UNK         0.0600 
    158 H158       -1.5970  -16.8734  -44.4438 H         1 UNK         0.0600 
    159 H159        1.1948  -17.1247  -44.0389 H         1 UNK         0.3000 
    160 H160        4.0103  -15.9741  -44.6508 H         1 UNK         0.0600 
    161 H161        2.5495  -13.3494  -44.0814 H         1 UNK         0.0600 
    162 H162        3.8435  -13.6163  -45.2422 H         1 UNK         0.0600 
    163 H163        4.1838  -13.7126  -43.5253 H         1 UNK         0.0600 
    164 H164        2.0183  -15.3354  -42.5238 H         1 UNK         0.3000 
    165 H165        2.4912  -18.3484  -40.9062 H         1 UNK         0.0600 
    166 H166        3.2964  -17.2260  -38.8375 H         1 UNK         0.0600 
    167 H167        4.6226  -17.4346  -39.9686 H         1 UNK         0.0600 
    168 H168        3.8766  -15.8522  -39.7807 H         1 UNK         0.0600 
    169 H169        1.4236  -15.8900  -39.9222 H         1 UNK         0.3000 
    170 H170       -1.5128  -15.7102  -41.8416 H         1 UNK         0.0600 
    171 H171       -1.2667  -16.6196  -38.9220 H         1 UNK         0.0600 
    172 H172       -2.6798  -15.8613  -39.6574 H         1 UNK         0.0600 
    173 H173       -2.1686  -17.4583  -40.1787 H         1 UNK         0.0600 
    174 H174       -0.6986  -14.2702  -39.5370 H         1 UNK         0.3000 
    175 H175        0.0271  -12.1460  -39.7132 H         1 UNK         0.0600 
    176 H176        2.1900  -13.3443  -39.3327 H         1 UNK         0.0600 
    177 H177        2.8185  -12.7303  -40.8570 H         1 UNK         0.0600 
    178 H178        2.4613  -11.6212  -39.5328 H         1 UNK         0.0600 
    179 H179        1.5184  -10.9069  -41.8584 H         1 UNK         0.3000 
    180 H180       -1.1521   -9.5314  -43.6186 H         1 UNK         0.0600 
    181 H181       -0.4249   -7.2781  -42.8792 H         1 UNK         0.0600 
    182 H182        0.3612   -7.9688  -41.4586 H         1 UNK         0.0600 
    183 H183       -1.3883   -8.0450  -41.6279 H         1 UNK         0.0600 
    184 H184        1.6003   -8.7565  -43.4348 H         1 UNK         0.3000 
    185 H185        2.6088   -9.2326  -45.7984 H         1 UNK         0.0600 
    186 H186        3.7779   -9.4735  -43.6361 H         1 UNK         0.0600 
    187 H187        3.6995  -11.2251  -43.7165 H         1 UNK         0.0600 
    188 H188        4.7204  -10.3308  -44.8388 H         1 UNK         0.0600 
    189 H189        1.9626  -11.9574  -46.2407 H         1 UNK         0.3000 
    190 H190       -1.2945  -20.9349  -47.0331 H         1 UNK         0.3000 
    191 H191       -3.9652  -21.0200  -47.9149 H         1 UNK         0.0600 
    192 H192       -2.8152  -20.1774  -45.2064 H         1 UNK         0.0600 
    193 H193       -4.4417  -19.8117  -45.7743 H         1 UNK         0.0600 
    194 H194       -3.0549  -19.1519  -46.6228 H         1 UNK         0.0600 
    195 H195       -2.4038  -22.8178  -45.2644 H         1 UNK         0.3000 
    196 H196       -4.7550  -24.1021  -44.2621 H         1 UNK         0.0600 
    197 H197       -3.1294  -25.4872  -42.9945 H         1 UNK         0.0600 
    198 H198       -2.6946  -23.7882  -42.9001 H         1 UNK         0.0600 
    199 H199       -1.8007  -24.8723  -43.9656 H         1 UNK         0.0600 
    200 H200       -2.3725  -24.9786  -46.7400 H         1 UNK         0.3000 
    201 H201       -3.4297  -27.6095  -47.3136 H         1 UNK         0.0600 
    202 H202       -1.0437  -26.9756  -47.6803 H         1 UNK         0.0600 
    203 H203       -1.5332  -25.8051  -48.9027 H         1 UNK         0.0600 
    204 H204       -1.7934  -27.5250  -49.1704 H         1 UNK         0.0600 
    205 H205       -5.5816  -25.9567  -47.2617 H         1 UNK         0.3000 
    206 H206       -7.4503  -25.2814  -48.2656 H         1 UNK         0.0600 
    207 H207       -7.5095  -27.7096  -48.8324 H         1 UNK         0.0600 
    208 H208       -8.3126  -26.7570  -50.0689 H         1 UNK         0.0600 
    209 H209       -6.6975  -27.3890  -50.3630 H         1 UNK         0.0600 
    210 H210       -5.5152  -23.4502  -48.7056 H         1 UNK         0.3000 
    211 H211       -4.8279  -21.7116  -49.8954 H         1 UNK         0.0600 
    212 H212       -7.3779  -22.0461  -51.5562 H         1 UNK         0.0600 
    213 H213       -6.4113  -20.5869  -51.3974 H         1 UNK         0.0600 
    214 H214       -7.2730  -21.2138  -50.0052 H         1 UNK         0.0600 
    215 H215       -3.4100  -23.7885  -50.4637 H         1 UNK         0.3000 
    216 H216       -2.0750  -24.9371  -51.7964 H         1 UNK         0.0600 
    217 H217       -1.0396  -23.7548  -53.7043 H         1 UNK         0.0600 
    218 H218       -1.2545  -22.6318  -52.3708 H         1 UNK         0.0600 
    219 H219       -2.3521  -22.5881  -53.7502 H         1 UNK         0.0600 
    220 H220       -4.4764  -26.0000  -51.8217 H         1 UNK         0.3000 
    221 H221       -6.0800  -27.1830  -52.8092 H         1 UNK         0.0600 
    222 H222       -4.0622  -27.6287  -55.0746 H         1 UNK         0.0600 
    223 H223       -4.1337  -28.5525  -53.5745 H         1 UNK         0.0600 
    224 H224       -5.4644  -28.6280  -54.7181 H         1 UNK         0.0600 
    225 H225       -6.5030  -24.5873  -53.0160 H         1 UNK         0.3000 
    226 H226       -7.6167  -22.9303  -53.8693 H         1 UNK         0.0600 
    227 H227       -8.8509  -24.9242  -55.8382 H         1 UNK         0.0600 
    228 H228       -9.3857  -24.6760  -54.1758 H         1 UNK         0.0600 
    229 H229       -9.5309  -23.3792  -55.3487 H         1 UNK         0.0600 
    230 H230       -4.9671  -23.7866  -55.3244 H         1 UNK         0.3000 
    231 H231       -5.3065  -22.5496  -57.9602 H         1 UNK         0.0600 
    232 H232       -3.0067  -23.2326  -58.3211 H         1 UNK         0.0600 
    233 H233       -3.8402  -24.5735  -57.5484 H         1 UNK         0.0600 
    234 H234       -2.7522  -23.5453  -56.6130 H         1 UNK         0.0600 
    235 H235       -4.5248  -21.3664  -54.7670 H         1 UNK         0.3000 
    236 H236       -3.8221  -18.7395  -55.8102 H         1 UNK         0.0600 
    237 H237       -1.5965  -18.6227  -54.7441 H         1 UNK         0.0600 
    238 H238       -1.7544  -20.2631  -54.1198 H         1 UNK         0.0600 
    239 H239       -1.5969  -19.9771  -55.8481 H         1 UNK         0.0600 
    240 H240       -2.6510  -17.9473  -53.2427 H         1 UNK         0.3000 
    241 H241       -5.0613  -17.6758  -51.6176 H         1 UNK         0.0600 
    242 H242       -2.7494  -20.6027  -50.0490 H         1 UNK         0.3800 
    243 H243       -2.4833  -20.0216  -51.6751 H         1 UNK         0.3800 
    244 H244       -3.8121  -15.6714  -51.8168 H         1 UNK         0.0800 
    245 H245       -3.5787  -16.1955  -50.1805 H         1 UNK         0.0800 
    246 H246       -0.9728  -15.9606  -49.1939 H         1 UNK         0.0800 
    247 H247       -1.4942  -17.6052  -49.4213 H         1 UNK         0.0800 
@<TRIPOS>BOND
     1    1    2 1    
     2    1  127 1    
     3    1  128 1    
     4    1  129 1    
     5    2    3 2    
     6    2    4 am   BACKBONE|DICT|INTERRES
     7    4    5 1    
     8    4  130 1    
     9    5    6 1    
    10    5   65 1    
    11    5  131 1    
    12    6    7 1    
    13    6  132 1    
    14    6  133 1    
    15    7    8 1    
    16    8    9 1    
    17    8  134 1    
    18    8  135 1    
    19    9   10 ar   
    20    9   14 ar   
    21   10   11 ar   
    22   10  136 1    
    23   11   12 ar   
    24   11  126 1    
    25   12   13 ar   
    26   12  137 1    
    27   13   14 ar   
    28   13   15 1    
    29   14  138 1    
    30   15   16 1    
    31   15  139 1    
    32   15  140 1    
    33   16   17 1    
    34   17   18 1    
    35   17  141 1    
    36   17  142 1    
    37   18   19 1    
    38   18   67 1    
    39   18  143 1    
    40   19   20 am   BACKBONE|DICT|INTERRES
    41   19  144 1    
    42   20   21 2    
    43   20   22 1    
    44   22   23 1    
    45   22   24 1    
    46   22  145 1    
    47   23  146 1    
    48   23  147 1    
    49   23  148 1    
    50   24   25 am   BACKBONE|DICT|INTERRES
    51   24  149 1    
    52   25   26 2    
    53   25   27 1    
    54   27   28 1    
    55   27   29 1    
    56   27  150 1    
    57   28  151 1    
    58   28  152 1    
    59   28  153 1    
    60   29   30 am   BACKBONE|DICT|INTERRES
    61   29  154 1    
    62   30   31 2    
    63   30   32 1    
    64   32   33 1    
    65   32   34 1    
    66   32  155 1    
    67   33  156 1    
    68   33  157 1    
    69   33  158 1    
    70   34   35 am   BACKBONE|DICT|INTERRES
    71   34  159 1    
    72   35   36 2    
    73   35   37 1    
    74   37   38 1    
    75   37   39 1    
    76   37  160 1    
    77   38  161 1    
    78   38  162 1    
    79   38  163 1    
    80   39   40 am   BACKBONE|DICT|INTERRES
    81   39  164 1    
    82   40   41 2    
    83   40   42 1    
    84   42   43 1    
    85   42   44 1    
    86   42  165 1    
    87   43  166 1    
    88   43  167 1    
    89   43  168 1    
    90   44   45 am   BACKBONE|DICT|INTERRES
    91   44  169 1    
    92   45   46 2    
    93   45   47 1    
    94   47   48 1    
    95   47   49 1    
    96   47  170 1    
    97   48  171 1    
    98   48  172 1    
    99   48  173 1    
   100   49   50 am   BACKBONE|DICT|INTERRES
   101   49  174 1    
   102   50   51 2    
   103   50   52 1    
   104   52   53 1    
   105   52   54 1    
   106   52  175 1    
   107   53  176 1    
   108   53  177 1    
   109   53  178 1    
   110   54   55 am   BACKBONE|DICT|INTERRES
   111   54  179 1    
   112   55   56 2    
   113   55   57 1    
   114   57   58 1    
   115   57   59 1    
   116   57  180 1    
   117   58  181 1    
   118   58  182 1    
   119   58  183 1    
   120   59   60 am   BACKBONE|DICT|INTERRES
   121   59  184 1    
   122   60   61 2    
   123   60   62 1    
   124   62   63 1    
   125   62   64 1    
   126   62  185 1    
   127   63  186 1    
   128   63  187 1    
   129   63  188 1    
   130   64   65 am   BACKBONE|DICT|INTERRES
   131   64  189 1    
   132   65   66 2    
   133   67   68 2    
   134   67   69 am   BACKBONE|DICT|INTERRES
   135   69   70 1    
   136   69  190 1    
   137   70   71 1    
   138   70   72 1    
   139   70  191 1    
   140   71  192 1    
   141   71  193 1    
   142   71  194 1    
   143   72   73 2    
   144   72   74 am   BACKBONE|DICT|INTERRES
   145   74   75 1    
   146   74  195 1    
   147   75   76 1    
   148   75   77 1    
   149   75  196 1    
   150   76  197 1    
   151   76  198 1    
   152   76  199 1    
   153   77   78 2    
   154   77   79 am   BACKBONE|DICT|INTERRES
   155   79   80 1    
   156   79  200 1    
   157   80   81 1    
   158   80   82 1    
   159   80  201 1    
   160   81  202 1    
   161   81  203 1    
   162   81  204 1    
   163   82   83 2    
   164   82   84 am   BACKBONE|DICT|INTERRES
   165   84   85 1    
   166   84  205 1    
   167   85   86 1    
   168   85   87 1    
   169   85  206 1    
   170   86  207 1    
   171   86  208 1    
   172   86  209 1    
   173   87   88 2    
   174   87   89 am   BACKBONE|DICT|INTERRES
   175   89   90 1    
   176   89  210 1    
   177   90   91 1    
   178   90   92 1    
   179   90  211 1    
   180   91  212 1    
   181   91  213 1    
   182   91  214 1    
   183   92   93 2    
   184   92   94 am   BACKBONE|DICT|INTERRES
   185   94   95 1    
   186   94  215 1    
   187   95   96 1    
   188   95   97 1    
   189   95  216 1    
   190   96  217 1    
   191   96  218 1    
   192   96  219 1    
   193   97   98 2    
   194   97   99 am   BACKBONE|DICT|INTERRES
   195   99  100 1    
   196   99  220 1    
   197  100  101 1    
   198  100  102 1    
   199  100  221 1    
   200  101  222 1    
   201  101  223 1    
   202  101  224 1    
   203  102  103 2    
   204  102  104 am   BACKBONE|DICT|INTERRES
   205  104  105 1    
   206  104  225 1    
   207  105  106 1    
   208  105  107 1    
   209  105  226 1    
   210  106  227 1    
   211  106  228 1    
   212  106  229 1    
   213  107  108 2    
   214  107  109 am   BACKBONE|DICT|INTERRES
   215  109  110 1    
   216  109  230 1    
   217  110  111 1    
   218  110  112 1    
   219  110  231 1    
   220  111  232 1    
   221  111  233 1    
   222  111  234 1    
   223  112  113 2    
   224  112  114 am   BACKBONE|DICT|INTERRES
   225  114  115 1    
   226  114  235 1    
   227  115  116 1    
   228  115  117 1    
   229  115  236 1    
   230  116  237 1    
   231  116  238 1    
   232  116  239 1    
   233  117  118 2    
   234  117  119 am   BACKBONE|DICT|INTERRES
   235  119  120 1    
   236  119  240 1    
   237  120  121 1    
   238  120  124 1    
   239  120  241 1    
   240  121  122 am   BACKBONE|DICT|INTERRES
   241  121  123 2    
   242  122  242 1    
   243  122  243 1    
   244  124  125 1    
   245  124  244 1    
   246  124  245 1    
   247  125  126 1    
   248  126  246 1    
   249  126  247 1    
@<TRIPOS>SUBSTRUCTURE
     1 UNK         1 GROUP             0       ****    0 ROOT    
