@<TRIPOS>MOLECULE
3R540
247   249    1
SMALL
USER_CHARGES


@<TRIPOS>ATOM
      1 CA          5.8448  -17.8230  -46.1716 C.3       0 UNK        -0.1800 
      2 C           4.3855  -17.4063  -46.2734 C.2       0 UNK         0.5000 
      3 O           3.5831  -17.7732  -45.4157 O.2       0 UNK        -0.5000 
      4 N           4.0357  -16.6385  -47.3137 N.am      1 UNK        -0.5000 
      5 CA          2.6832  -16.1178  -47.5551 C.3       1 UNK         0.1400 
      6 C6          2.5545  -15.5273  -48.9849 C.3       23 UNK        -0.0398 
      7 S7          0.8346  -15.5373  -49.5976 S.3       23 UNK        -0.2404 
      8 C8          0.9760  -16.5781  -51.0845 C.3       23 UNK        -0.0205 
      9 C9         -0.3859  -17.1001  -51.5110 C.ar      23 UNK        -0.0193 
     10 C10        -1.1127  -16.4784  -52.5297 C.ar      23 UNK        -0.1150 
     11 C11        -2.3677  -16.9715  -52.8996 C.ar      23 UNK        -0.0193 
     12 C12        -2.8921  -18.0882  -52.2413 C.ar      23 UNK        -0.1150 
     13 C13        -2.1760  -18.7237  -51.2229 C.ar      23 UNK        -0.0193 
     14 C14        -0.9205  -18.2182  -50.8693 C.ar      23 UNK        -0.1150 
     15 C15        -2.7980  -19.9249  -50.5104 C.3       23 UNK        -0.0205 
     16 S16        -1.6143  -21.2474  -50.0745 S.3       23 UNK        -0.2404 
     17 C17        -1.1623  -20.7937  -48.3651 C.3       23 UNK        -0.0398 
     18 CA         -0.4430  -21.9493  -47.6266 C.3       11 UNK         0.1400 
     19 N           0.6457  -21.4445  -46.7866 N.am      11 UNK        -0.5000 
     20 C           1.5416  -22.1830  -46.1182 C.2       10 UNK         0.5000 
     21 O           1.5828  -23.4124  -46.1639 O.2       10 UNK        -0.5000 
     22 CA          2.5163  -21.4176  -45.2007 C.3       10 UNK         0.1400 
     23 CB          3.8815  -21.2557  -45.8845 C.3       10 UNK        -0.1800 
     24 N           2.0343  -20.0960  -44.7799 N.am      10 UNK        -0.5000 
     25 C           0.9170  -19.8629  -44.0791 C.2       9 UNK         0.5000 
     26 O           0.1103  -20.7397  -43.7585 O.2       9 UNK        -0.5000 
     27 CA          0.6243  -18.3920  -43.7340 C.3       9 UNK         0.1400 
     28 CB         -0.4057  -17.8187  -44.7189 C.3       9 UNK        -0.1800 
     29 N           0.1369  -18.2136  -42.3661 N.am      9 UNK        -0.5000 
     30 C           0.7713  -18.6082  -41.2505 C.2       8 UNK         0.5000 
     31 O           1.8607  -19.1838  -41.2455 O.2       8 UNK        -0.5000 
     32 CA          0.0783  -18.2753  -39.9181 C.3       8 UNK         0.1400 
     33 CB          1.0506  -18.2838  -38.7239 C.3       8 UNK        -0.1800 
     34 N          -0.5619  -16.9653  -40.0094 N.am      8 UNK        -0.5000 
     35 C          -1.8320  -16.6968  -39.6816 C.2       7 UNK         0.5000 
     36 O          -2.6107  -17.5329  -39.2217 O.2       7 UNK        -0.5000 
     37 CA         -2.3290  -15.2559  -39.9105 C.3       7 UNK         0.1400 
     38 CB         -2.3740  -14.4901  -38.5802 C.3       7 UNK        -0.1800 
     39 N          -1.5165  -14.5158  -40.8814 N.am      7 UNK        -0.5000 
     40 C          -1.5564  -14.7300  -42.2059 C.2       6 UNK         0.5000 
     41 O          -2.3064  -15.5596  -42.7220 O.2       6 UNK        -0.5000 
     42 CA         -0.5843  -13.9417  -43.1093 C.3       6 UNK         0.1400 
     43 CB         -1.2785  -13.3699  -44.3621 C.3       6 UNK        -0.1800 
     44 N           0.1994  -12.9199  -42.4102 N.am      6 UNK        -0.5000 
     45 C          -0.1970  -11.7419  -41.9095 C.2       5 UNK         0.5000 
     46 O          -1.3401  -11.2943  -42.0068 O.2       5 UNK        -0.5000 
     47 CA          0.8933  -10.9606  -41.1423 C.3       5 UNK         0.1400 
     48 CB          0.3251   -9.8372  -40.2498 C.3       5 UNK        -0.1800 
     49 N           1.7790  -11.8526  -40.3785 N.am      5 UNK        -0.5000 
     50 C           1.4169  -12.6781  -39.3841 C.2       4 UNK         0.5000 
     51 O           0.2742  -12.7302  -38.9318 O.2       4 UNK        -0.5000 
     52 CA          2.5020  -13.6418  -38.8563 C.3       4 UNK         0.1400 
     53 CB          1.9266  -14.7473  -37.9476 C.3       4 UNK        -0.1800 
     54 N           3.3148  -14.2222  -39.9337 N.am      4 UNK        -0.5000 
     55 C           2.8860  -14.9574  -40.9705 C.2       3 UNK         0.5000 
     56 O           1.7172  -15.3170  -41.1341 O.2       3 UNK        -0.5000 
     57 CA          3.9475  -15.2930  -42.0381 C.3       3 UNK         0.1400 
     58 CB          4.2035  -16.8034  -42.1190 C.3       3 UNK        -0.1800 
     59 N           3.5903  -14.7878  -43.3671 N.am      3 UNK        -0.5000 
     60 C           3.3471  -13.5024  -43.6645 C.2       2 UNK         0.5000 
     61 O           3.3728  -12.6010  -42.8251 O.2       2 UNK        -0.5000 
     62 CA          3.0262  -13.1415  -45.1279 C.3       2 UNK         0.1400 
     63 CB          3.8850  -11.9573  -45.6034 C.3       2 UNK        -0.1800 
     64 N           3.2247  -14.2548  -46.0565 N.am      2 UNK        -0.5000 
     65 C           2.2637  -15.0834  -46.4855 C.2       1 UNK         0.5000 
     66 O           1.1077  -15.0635  -46.0665 O.2       1 UNK        -0.5000 
     67 C          -1.4525  -22.8353  -46.8629 C.2       11 UNK         0.5000 
     68 O          -2.1274  -23.6493  -47.4925 O.2       11 UNK        -0.5000 
     69 N          -1.5204  -22.7069  -45.5279 N.am      12 UNK        -0.5000 
     70 CA         -2.3310  -23.5590  -44.6550 C.3       12 UNK         0.1400 
     71 CB         -2.2576  -23.0304  -43.2154 C.3       12 UNK        -0.1800 
     72 C          -1.9192  -25.0439  -44.7089 C.2       12 UNK         0.5000 
     73 O          -2.7878  -25.9134  -44.6397 O.2       12 UNK        -0.5000 
     74 N          -0.6172  -25.3120  -44.8954 N.am      13 UNK        -0.5000 
     75 CA         -0.0697  -26.6596  -45.0812 C.3       13 UNK         0.1400 
     76 CB          1.4504  -26.6240  -44.8633 C.3       13 UNK        -0.1800 
     77 C          -0.4062  -27.2557  -46.4633 C.2       13 UNK         0.5000 
     78 O          -0.4279  -28.4780  -46.6080 O.2       13 UNK        -0.5000 
     79 N          -0.6876  -26.3850  -47.4414 N.am      14 UNK        -0.5000 
     80 CA         -1.1455  -26.7315  -48.7870 C.3       14 UNK         0.1400 
     81 CB         -0.5283  -25.7358  -49.7857 C.3       14 UNK        -0.1800 
     82 C          -2.6846  -26.7321  -48.8963 C.2       14 UNK         0.5000 
     83 O          -3.2030  -26.8844  -50.0016 O.2       14 UNK        -0.5000 
     84 N          -3.3917  -26.5221  -47.7734 N.am      15 UNK        -0.5000 
     85 CA         -4.8505  -26.4105  -47.6488 C.3       15 UNK         0.1400 
     86 CB         -5.5221  -27.7727  -47.9203 C.3       15 UNK        -0.1800 
     87 C          -5.4514  -25.2649  -48.4951 C.2       15 UNK         0.5000 
     88 O          -6.5773  -25.3815  -48.9816 O.2       15 UNK        -0.5000 
     89 N          -4.6737  -24.1845  -48.6635 N.am      16 UNK        -0.5000 
     90 CA         -4.9589  -22.9815  -49.4509 C.3       16 UNK         0.1400 
     91 CB         -6.1649  -22.2125  -48.8743 C.3       16 UNK        -0.1800 
     92 C          -5.0819  -23.2232  -50.9726 C.2       16 UNK         0.5000 
     93 O          -5.6140  -22.3635  -51.6766 O.2       16 UNK        -0.5000 
     94 N          -4.5772  -24.3643  -51.4700 N.am      17 UNK        -0.5000 
     95 CA         -4.7345  -24.8253  -52.8551 C.3       17 UNK         0.1400 
     96 CB         -4.1229  -26.2259  -53.0001 C.3       17 UNK        -0.1800 
     97 C          -4.1658  -23.8831  -53.9332 C.2       17 UNK         0.5000 
     98 O          -4.6708  -23.8854  -55.0567 O.2       17 UNK        -0.5000 
     99 N          -3.1587  -23.0702  -53.5801 N.am      18 UNK        -0.5000 
    100 CA        -2.5482  -22.0790  -54.4714 C.3       18 UNK         0.1400 
    101 CB        -1.2840  -21.5011  -53.8220 C.3       18 UNK        -0.1800 
    102 C         -3.5066  -20.9488  -54.8967 C.2       18 UNK         0.5000 
    103 O         -3.2673  -20.3235  -55.9288 O.2       18 UNK        -0.5000 
    104 N         -4.6054  -20.7390  -54.1532 N.am      19 UNK        -0.5000 
    105 CA        -5.6633  -19.7821  -54.4910 C.3       19 UNK         0.1400 
    106 CB        -6.6957  -19.7403  -53.3563 C.3       19 UNK        -0.1800 
    107 C         -6.3502  -20.0711  -55.8420 C.2       19 UNK         0.5000 
    108 O         -6.8187  -19.1362  -56.4930 O.2       19 UNK        -0.5000 
    109 N         -6.3498  -21.3433  -56.2682 N.am      20 UNK        -0.5000 
    110 CA        -6.8262  -21.7770  -57.5821 C.3       20 UNK         0.1400 
    111 CB        -6.9469  -23.3081  -57.5954 C.3       20 UNK        -0.1800 
    112 C         -5.9303  -21.2950  -58.7414 C.2       20 UNK         0.5000 
    113 O         -6.4325  -21.1223  -59.8526 O.2       20 UNK        -0.5000 
    114 N         -4.6352  -21.0744  -58.4698 N.am      21 UNK        -0.5000 
    115 CA        -3.6883  -20.4843  -59.4157 C.3       21 UNK         0.1400 
    116 CB        -2.2630  -20.9629  -59.0961 C.3       21 UNK        -0.1800 
    117 C         -3.7719  -18.9476  -59.4034 C.2       21 UNK         0.5000 
    118 O         -3.6338  -18.3313  -60.4611 O.2       21 UNK        -0.5000 
    119 N         -4.0106  -18.3592  -58.2219 N.am      22 UNK        -0.5000 
    120 CA        -4.2469  -16.9161  -58.0421 C.3       22 UNK         0.1400 
    121 C         -5.5488  -16.4204  -58.7321 C.2       22 UNK         0.5000 
    122 N         -6.6588  -17.1372  -58.6016 N.am      22 UNK        -0.7600 
    123 O         -5.5512  -15.3808  -59.3856 O.2       22 UNK        -0.5000 
    124 C124       -4.2577  -16.4885  -56.5529 C.3       23 UNK        -0.0398 
    125 S125       -2.7656  -16.9807  -55.6309 S.3       23 UNK        -0.2404 
    126 C126       -3.1708  -16.2942  -53.9970 C.3       23 UNK        -0.0205 
    127 H127        6.2484  -17.5365  -45.2005 H         1 UNK         0.0600 
    128 H128        6.4548  -17.3555  -46.9448 H         1 UNK         0.0600 
    129 H129        5.9346  -18.9040  -46.2738 H         1 UNK         0.0600 
    130 H130        4.7391  -16.3782  -47.9905 H         1 UNK         0.3000 
    131 H131        2.0017  -16.9677  -47.4710 H         1 UNK         0.0600 
    132 H132        2.9435  -14.5084  -49.0351 H         1 UNK         0.0800 
    133 H133        3.1675  -16.1030  -49.6794 H         1 UNK         0.0800 
    134 H134        1.6357  -17.4243  -50.8860 H         1 UNK         0.0800 
    135 H135        1.4391  -16.0040  -51.8885 H         1 UNK         0.0800 
    136 H136       -0.7054  -15.6120  -53.0317 H         1 UNK         0.1150 
    137 H137       -3.8662  -18.4608  -52.5217 H         1 UNK         0.1150 
    138 H138       -0.3413  -18.6809  -50.0897 H         1 UNK         0.1150 
    139 H139       -3.3245  -19.5790  -49.6204 H         1 UNK         0.0800 
    140 H140       -3.5572  -20.3719  -51.1539 H         1 UNK         0.0800 
    141 H141       -2.0475  -20.4556  -47.8224 H         1 UNK         0.0800 
    142 H142       -0.5087  -19.9256  -48.4123 H         1 UNK         0.0800 
    143 H143        0.0372  -22.5957  -48.3646 H         1 UNK         0.0600 
    144 H144        0.6945  -20.4443  -46.6665 H         1 UNK         0.3000 
    145 H145        2.6518  -22.0201  -44.3005 H         1 UNK         0.0600 
    146 H146        4.6071  -20.8018  -45.2092 H         1 UNK         0.0600 
    147 H147        4.2843  -22.2220  -46.1909 H         1 UNK         0.0600 
    148 H148        3.8128  -20.6296  -46.7750 H         1 UNK         0.0600 
    149 H149        2.6335  -19.3041  -45.0074 H         1 UNK         0.3000 
    150 H150        1.5417  -17.8120  -43.8279 H         1 UNK         0.0600 
    151 H151       -1.3659  -18.3304  -44.6424 H         1 UNK         0.0600 
    152 H152       -0.0595  -17.9160  -45.7487 H         1 UNK         0.0600 
    153 H153       -0.5762  -16.7578  -44.5410 H         1 UNK         0.0600 
    154 H154       -0.7590  -17.7587  -42.2669 H         1 UNK         0.3000 
    155 H155       -0.6684  -19.0552  -39.7572 H         1 UNK         0.0600 
    156 H156        1.8887  -17.6055  -38.8868 H         1 UNK         0.0600 
    157 H157        1.4626  -19.2806  -38.5627 H         1 UNK         0.0600 
    158 H158        0.5497  -17.9866  -37.8025 H         1 UNK         0.0600 
    159 H159        0.0164  -16.2278  -40.4023 H         1 UNK         0.3000 
    160 H160       -3.3491  -15.3151  -40.2959 H         1 UNK         0.0600 
    161 H161       -1.4095  -14.5080  -38.0723 H         1 UNK         0.0600 
    162 H162       -3.1031  -14.9354  -37.9023 H         1 UNK         0.0600 
    163 H163       -2.6599  -13.4485  -38.7282 H         1 UNK         0.0600 
    164 H164       -0.8695  -13.8332  -40.5060 H         1 UNK         0.3000 
    165 H165        0.1486  -14.6727  -43.4531 H         1 UNK         0.0600 
    166 H166       -0.5764  -12.8171  -44.9859 H         1 UNK         0.0600 
    167 H167       -2.1019  -12.7035  -44.1053 H         1 UNK         0.0600 
    168 H168       -1.6892  -14.1718  -44.9767 H         1 UNK         0.0600 
    169 H169        1.1525  -13.1913  -42.2074 H         1 UNK         0.3000 
    170 H170        1.5182  -10.4903  -41.9029 H         1 UNK         0.0600 
    171 H171       -0.2097   -9.0985  -40.8477 H         1 UNK         0.0600 
    172 H172       -0.3739  -10.2203  -39.5060 H         1 UNK         0.0600 
    173 H173        1.1216   -9.3118  -39.7230 H         1 UNK         0.0600 
    174 H174        2.7221  -11.9288  -40.7402 H         1 UNK         0.3000 
    175 H175        3.1783  -13.0369  -38.2508 H         1 UNK         0.0600 
    176 H176        1.1600  -15.3292  -38.4574 H         1 UNK         0.0600 
    177 H177        2.7052  -15.4326  -37.6133 H         1 UNK         0.0600 
    178 H178        1.4665  -14.3185  -37.0567 H         1 UNK         0.0600 
    179 H179        4.2924  -13.9667  -39.9111 H         1 UNK         0.3000 
    180 H180        4.8871  -14.8144  -41.7547 H         1 UNK         0.0600 
    181 H181        3.3333  -17.3360  -42.4970 H         1 UNK         0.0600 
    182 H182        4.4399  -17.2170  -41.1378 H         1 UNK         0.0600 
    183 H183        5.0412  -17.0278  -42.7793 H         1 UNK         0.0600 
    184 H184        3.5131  -15.4738  -44.1042 H         1 UNK         0.3000 
    185 H185        1.9816  -12.8247  -45.1521 H         1 UNK         0.0600 
    186 H186        3.6397  -11.6797  -46.6287 H         1 UNK         0.0600 
    187 H187        3.7190  -11.0744  -44.9846 H         1 UNK         0.0600 
    188 H188        4.9497  -12.1907  -45.5641 H         1 UNK         0.0600 
    189 H189        4.1582  -14.3698  -46.4243 H         1 UNK         0.3000 
    190 H190       -0.9345  -22.0197  -45.0651 H         1 UNK         0.3000 
    191 H191       -3.3673  -23.4908  -44.9925 H         1 UNK         0.0600 
    192 H192       -2.8841  -23.6235  -42.5480 H         1 UNK         0.0600 
    193 H193       -2.6041  -21.9984  -43.1559 H         1 UNK         0.0600 
    194 H194       -1.2389  -23.0630  -42.8267 H         1 UNK         0.0600 
    195 H195        0.0348  -24.5434  -44.9948 H         1 UNK         0.3000 
    196 H196       -0.5054  -27.3146  -44.3238 H         1 UNK         0.0600 
    197 H197        1.9517  -26.0131  -45.6145 H         1 UNK         0.0600 
    198 H198        1.7004  -26.2223  -43.8812 H         1 UNK         0.0600 
    199 H199        1.8753  -27.6268  -44.9220 H         1 UNK         0.0600 
    200 H200       -0.6808  -25.3985  -47.2213 H         1 UNK         0.3000 
    201 H201       -0.8000  -27.7334  -49.0489 H         1 UNK         0.0600 
    202 H202       -0.8942  -24.7212  -49.6267 H         1 UNK         0.0600 
    203 H203       -0.7695  -26.0109  -50.8133 H         1 UNK         0.0600 
    204 H204        0.5585  -25.7170  -49.7038 H         1 UNK         0.0600 
    205 H205       -2.8764  -26.3825  -46.9147 H         1 UNK         0.3000 
    206 H206       -5.0455  -26.1486  -46.6079 H         1 UNK         0.0600 
    207 H207       -5.0848  -28.5573  -47.3028 H         1 UNK         0.0600 
    208 H208       -6.5876  -27.7374  -47.6904 H         1 UNK         0.0600 
    209 H209       -5.4227  -28.0723  -48.9640 H         1 UNK         0.0600 
    210 H210       -3.7560  -24.1883  -48.2219 H         1 UNK         0.3000 
    211 H211       -4.0888  -22.3432  -49.3183 H         1 UNK         0.0600 
    212 H212       -6.2681  -21.2351  -49.3473 H         1 UNK         0.0600 
    213 H213       -6.0484  -22.0414  -47.8042 H         1 UNK         0.0600 
    214 H214       -7.1009  -22.7492  -49.0301 H         1 UNK         0.0600 
    215 H215       -4.1528  -25.0239  -50.8289 H         1 UNK         0.3000 
    216 H216       -5.8068  -24.9071  -53.0436 H         1 UNK         0.0600 
    217 H217       -3.0594  -26.2262  -52.7579 H         1 UNK         0.0600 
    218 H218       -4.2289  -26.5988  -54.0198 H         1 UNK         0.0600 
    219 H219       -4.6182  -26.9411  -52.3432 H         1 UNK         0.0600 
    220 H220       -2.8080  -23.1173  -52.6346 H         1 UNK         0.3000 
    221 H221       -2.2460  -22.6009  -55.3818 H         1 UNK         0.0600 
    222 H222       -0.5939  -22.2879  -53.5175 H         1 UNK         0.0600 
    223 H223       -1.5230  -20.9016  -52.9465 H         1 UNK         0.0600 
    224 H224       -0.7526  -20.8523  -54.5194 H         1 UNK         0.0600 
    225 H225       -4.7667  -21.3206  -53.3382 H         1 UNK         0.3000 
    226 H226       -5.2004  -18.7973  -54.5654 H         1 UNK         0.0600 
    227 H227       -7.1986  -20.7008  -53.2369 H         1 UNK         0.0600 
    228 H228       -6.2288  -19.4870  -52.4042 H         1 UNK         0.0600 
    229 H229       -7.4623  -18.9900  -53.5532 H         1 UNK         0.0600 
    230 H230       -5.9203  -22.0527  -55.6873 H         1 UNK         0.3000 
    231 H231       -7.8218  -21.3556  -57.7364 H         1 UNK         0.0600 
    232 H232       -5.9766  -23.7889  -57.4651 H         1 UNK         0.0600 
    233 H233       -7.3612  -23.6583  -58.5417 H         1 UNK         0.0600 
    234 H234       -7.6056  -23.6605  -56.8016 H         1 UNK         0.0600 
    235 H235       -4.3048  -21.1866  -57.5193 H         1 UNK         0.3000 
    236 H236       -3.9318  -20.8255  -60.4242 H         1 UNK         0.0600 
    237 H237       -2.2032  -22.0513  -59.0932 H         1 UNK         0.0600 
    238 H238       -1.5578  -20.6002  -59.8448 H         1 UNK         0.0600 
    239 H239       -1.9176  -20.6046  -58.1266 H         1 UNK         0.0600 
    240 H240       -4.0338  -18.9311  -57.3868 H         1 UNK         0.3000 
    241 H241       -3.4146  -16.3975  -58.5221 H         1 UNK         0.0600 
    242 H242       -7.5064  -16.8258  -59.0481 H         1 UNK         0.3800 
    243 H243       -6.6815  -17.9517  -57.9938 H         1 UNK         0.3800 
    244 H244       -5.1282  -16.9084  -56.0470 H         1 UNK         0.0800 
    245 H245       -4.3547  -15.4039  -56.4763 H         1 UNK         0.0800 
    246 H246       -4.2363  -16.4163  -53.7964 H         1 UNK         0.0800 
    247 H247       -2.9802  -15.2199  -53.9986 H         1 UNK         0.0800 
@<TRIPOS>BOND
     1    1    2 1    
     2    1  127 1    
     3    1  128 1    
     4    1  129 1    
     5    2    3 2    
     6    2    4 am   BACKBONE|DICT|INTERRES
     7    4    5 1    
     8    4  130 1    
     9    5    6 1    
    10    5   65 1    
    11    5  131 1    
    12    6    7 1    
    13    6  132 1    
    14    6  133 1    
    15    7    8 1    
    16    8    9 1    
    17    8  134 1    
    18    8  135 1    
    19    9   10 ar   
    20    9   14 ar   
    21   10   11 ar   
    22   10  136 1    
    23   11   12 ar   
    24   11  126 1    
    25   12   13 ar   
    26   12  137 1    
    27   13   14 ar   
    28   13   15 1    
    29   14  138 1    
    30   15   16 1    
    31   15  139 1    
    32   15  140 1    
    33   16   17 1    
    34   17   18 1    
    35   17  141 1    
    36   17  142 1    
    37   18   19 1    
    38   18   67 1    
    39   18  143 1    
    40   19   20 am   BACKBONE|DICT|INTERRES
    41   19  144 1    
    42   20   21 2    
    43   20   22 1    
    44   22   23 1    
    45   22   24 1    
    46   22  145 1    
    47   23  146 1    
    48   23  147 1    
    49   23  148 1    
    50   24   25 am   BACKBONE|DICT|INTERRES
    51   24  149 1    
    52   25   26 2    
    53   25   27 1    
    54   27   28 1    
    55   27   29 1    
    56   27  150 1    
    57   28  151 1    
    58   28  152 1    
    59   28  153 1    
    60   29   30 am   BACKBONE|DICT|INTERRES
    61   29  154 1    
    62   30   31 2    
    63   30   32 1    
    64   32   33 1    
    65   32   34 1    
    66   32  155 1    
    67   33  156 1    
    68   33  157 1    
    69   33  158 1    
    70   34   35 am   BACKBONE|DICT|INTERRES
    71   34  159 1    
    72   35   36 2    
    73   35   37 1    
    74   37   38 1    
    75   37   39 1    
    76   37  160 1    
    77   38  161 1    
    78   38  162 1    
    79   38  163 1    
    80   39   40 am   BACKBONE|DICT|INTERRES
    81   39  164 1    
    82   40   41 2    
    83   40   42 1    
    84   42   43 1    
    85   42   44 1    
    86   42  165 1    
    87   43  166 1    
    88   43  167 1    
    89   43  168 1    
    90   44   45 am   BACKBONE|DICT|INTERRES
    91   44  169 1    
    92   45   46 2    
    93   45   47 1    
    94   47   48 1    
    95   47   49 1    
    96   47  170 1    
    97   48  171 1    
    98   48  172 1    
    99   48  173 1    
   100   49   50 am   BACKBONE|DICT|INTERRES
   101   49  174 1    
   102   50   51 2    
   103   50   52 1    
   104   52   53 1    
   105   52   54 1    
   106   52  175 1    
   107   53  176 1    
   108   53  177 1    
   109   53  178 1    
   110   54   55 am   BACKBONE|DICT|INTERRES
   111   54  179 1    
   112   55   56 2    
   113   55   57 1    
   114   57   58 1    
   115   57   59 1    
   116   57  180 1    
   117   58  181 1    
   118   58  182 1    
   119   58  183 1    
   120   59   60 am   BACKBONE|DICT|INTERRES
   121   59  184 1    
   122   60   61 2    
   123   60   62 1    
   124   62   63 1    
   125   62   64 1    
   126   62  185 1    
   127   63  186 1    
   128   63  187 1    
   129   63  188 1    
   130   64   65 am   BACKBONE|DICT|INTERRES
   131   64  189 1    
   132   65   66 2    
   133   67   68 2    
   134   67   69 am   BACKBONE|DICT|INTERRES
   135   69   70 1    
   136   69  190 1    
   137   70   71 1    
   138   70   72 1    
   139   70  191 1    
   140   71  192 1    
   141   71  193 1    
   142   71  194 1    
   143   72   73 2    
   144   72   74 am   BACKBONE|DICT|INTERRES
   145   74   75 1    
   146   74  195 1    
   147   75   76 1    
   148   75   77 1    
   149   75  196 1    
   150   76  197 1    
   151   76  198 1    
   152   76  199 1    
   153   77   78 2    
   154   77   79 am   BACKBONE|DICT|INTERRES
   155   79   80 1    
   156   79  200 1    
   157   80   81 1    
   158   80   82 1    
   159   80  201 1    
   160   81  202 1    
   161   81  203 1    
   162   81  204 1    
   163   82   83 2    
   164   82   84 am   BACKBONE|DICT|INTERRES
   165   84   85 1    
   166   84  205 1    
   167   85   86 1    
   168   85   87 1    
   169   85  206 1    
   170   86  207 1    
   171   86  208 1    
   172   86  209 1    
   173   87   88 2    
   174   87   89 am   BACKBONE|DICT|INTERRES
   175   89   90 1    
   176   89  210 1    
   177   90   91 1    
   178   90   92 1    
   179   90  211 1    
   180   91  212 1    
   181   91  213 1    
   182   91  214 1    
   183   92   93 2    
   184   92   94 am   BACKBONE|DICT|INTERRES
   185   94   95 1    
   186   94  215 1    
   187   95   96 1    
   188   95   97 1    
   189   95  216 1    
   190   96  217 1    
   191   96  218 1    
   192   96  219 1    
   193   97   98 2    
   194   97   99 am   BACKBONE|DICT|INTERRES
   195   99  100 1    
   196   99  220 1    
   197  100  101 1    
   198  100  102 1    
   199  100  221 1    
   200  101  222 1    
   201  101  223 1    
   202  101  224 1    
   203  102  103 2    
   204  102  104 am   BACKBONE|DICT|INTERRES
   205  104  105 1    
   206  104  225 1    
   207  105  106 1    
   208  105  107 1    
   209  105  226 1    
   210  106  227 1    
   211  106  228 1    
   212  106  229 1    
   213  107  108 2    
   214  107  109 am   BACKBONE|DICT|INTERRES
   215  109  110 1    
   216  109  230 1    
   217  110  111 1    
   218  110  112 1    
   219  110  231 1    
   220  111  232 1    
   221  111  233 1    
   222  111  234 1    
   223  112  113 2    
   224  112  114 am   BACKBONE|DICT|INTERRES
   225  114  115 1    
   226  114  235 1    
   227  115  116 1    
   228  115  117 1    
   229  115  236 1    
   230  116  237 1    
   231  116  238 1    
   232  116  239 1    
   233  117  118 2    
   234  117  119 am   BACKBONE|DICT|INTERRES
   235  119  120 1    
   236  119  240 1    
   237  120  121 1    
   238  120  124 1    
   239  120  241 1    
   240  121  122 am   BACKBONE|DICT|INTERRES
   241  121  123 2    
   242  122  242 1    
   243  122  243 1    
   244  124  125 1    
   245  124  244 1    
   246  124  245 1    
   247  125  126 1    
   248  126  246 1    
   249  126  247 1    
@<TRIPOS>SUBSTRUCTURE
     1 UNK         1 GROUP             0       ****    0 ROOT    
