@<TRIPOS>MOLECULE
3R540
247   249    1
SMALL
USER_CHARGES


@<TRIPOS>ATOM
      1 CA          4.7878  -17.0985  -46.0349 C.3       0 UNK        -0.1800 
      2 C           3.8739  -15.9443  -46.4158 C.2       0 UNK         0.5000 
      3 O           3.2999  -15.3027  -45.5396 O.2       0 UNK        -0.5000 
      4 N           3.7399  -15.6632  -47.7189 N.am      1 UNK        -0.5000 
      5 CA          2.8367  -14.6367  -48.2631 C.3       1 UNK         0.1400 
      6 C6          2.6187  -14.8227  -49.7917 C.3       23 UNK        -0.0398 
      7 S7          0.8703  -14.6908  -50.3075 S.3       23 UNK        -0.2404 
      8 C8          0.1006  -16.1779  -49.5790 C.3       23 UNK        -0.0205 
      9 C9          0.7116  -17.4778  -50.0742 C.ar      23 UNK        -0.0193 
     10 C10         0.2298  -18.0915  -51.2302 C.ar      23 UNK        -0.1150 
     11 C11         0.7650  -19.3075  -51.6721 C.ar      23 UNK        -0.0193 
     12 C12         1.8253  -19.8823  -50.9583 C.ar      23 UNK        -0.1150 
     13 C13         2.3297  -19.2650  -49.8088 C.ar      23 UNK        -0.0193 
     14 C14         1.7478  -18.0789  -49.3606 C.ar      23 UNK        -0.1150 
     15 C15         3.5403  -19.8308  -49.0770 C.3       23 UNK        -0.0205 
     16 S16         3.1589  -21.2580  -48.0153 S.3       23 UNK        -0.2404 
     17 C17         1.9374  -20.5847  -46.8329 C.3       23 UNK        -0.0398 
     18 CA          0.7347  -21.5356  -46.6403 C.3       11 UNK         0.1400 
     19 N          -0.0950  -21.1512  -45.4977 N.am      11 UNK        -0.5000 
     20 C          -1.0390  -21.9373  -44.9618 C.2       10 UNK         0.5000 
     21 O          -1.2796  -23.0784  -45.3543 O.2       10 UNK        -0.5000 
     22 CA         -1.8889  -21.3369  -43.8304 C.3       10 UNK         0.1400 
     23 CB         -1.1274  -21.3819  -42.4977 C.3       10 UNK        -0.1800 
     24 N          -2.3264  -19.9694  -44.1165 N.am      10 UNK        -0.5000 
     25 C          -3.1284  -19.6328  -45.1381 C.2       9 UNK         0.5000 
     26 O          -3.6000  -20.4469  -45.9296 O.2       9 UNK        -0.5000 
     27 CA         -3.4314  -18.1381  -45.3344 C.3       9 UNK         0.1400 
     28 CB         -4.5390  -17.6800  -44.3746 C.3       9 UNK        -0.1800 
     29 N          -2.2512  -17.2906  -45.1693 N.am      9 UNK        -0.5000 
     30 C          -1.1641  -17.3413  -45.9529 C.2       8 UNK         0.5000 
     31 O          -1.0388  -18.1071  -46.9092 O.2       8 UNK        -0.5000 
     32 CA          0.0047  -16.4190  -45.5647 C.3       8 UNK         0.1400 
     33 CB         -0.3213  -14.9440  -45.8531 C.3       8 UNK        -0.1800 
     34 N           0.3724  -16.5602  -44.1595 N.am      8 UNK        -0.5000 
     35 C           0.7815  -17.6933  -43.5743 C.2       7 UNK         0.5000 
     36 O           0.9496  -18.7588  -44.1693 O.2       7 UNK        -0.5000 
     37 CA          0.9822  -17.6312  -42.0512 C.3       7 UNK         0.1400 
     38 CB          2.3497  -17.0228  -41.7025 C.3       7 UNK        -0.1800 
     39 N          -0.0801  -16.8704  -41.3892 N.am      7 UNK        -0.5000 
     40 C          -1.3585  -17.2665  -41.3045 C.2       6 UNK         0.5000 
     41 O          -1.7773  -18.3294  -41.7597 O.2       6 UNK        -0.5000 
     42 CA         -2.3431  -16.2941  -40.6307 C.3       6 UNK         0.1400 
     43 CB         -2.2283  -16.3746  -39.1011 C.3       6 UNK        -0.1800 
     44 N          -2.1473  -14.9104  -41.0618 N.am      6 UNK        -0.5000 
     45 C          -2.3723  -14.4672  -42.3066 C.2       5 UNK         0.5000 
     46 O          -2.8083  -15.1721  -43.2161 O.2       5 UNK        -0.5000 
     47 CA         -2.0035  -12.9995  -42.5953 C.3       5 UNK         0.1400 
     48 CB         -3.1794  -12.0724  -42.2534 C.3       5 UNK        -0.1800 
     49 N          -0.8012  -12.5385  -41.8925 N.am      5 UNK        -0.5000 
     50 C           0.4123  -13.0955  -42.0025 C.2       4 UNK         0.5000 
     51 O           0.6408  -14.1136  -42.6590 O.2       4 UNK        -0.5000 
     52 CA          1.5442  -12.4345  -41.1943 C.3       4 UNK         0.1400 
     53 CB          1.5530  -12.9809  -39.7578 C.3       4 UNK        -0.1800 
     54 N           2.8609  -12.6667  -41.7893 N.am      4 UNK        -0.5000 
     55 C           3.2563  -12.2219  -42.9895 C.2       3 UNK         0.5000 
     56 O           2.5699  -11.4770  -43.6944 O.2       3 UNK        -0.5000 
     57 CA          4.6610  -12.6608  -43.4575 C.3       3 UNK         0.1400 
     58 CB          5.0600  -14.0611  -42.9479 C.3       3 UNK        -0.1800 
     59 N           4.7543  -12.6463  -44.9172 N.am      3 UNK        -0.5000 
     60 C           5.1526  -11.5978  -45.6524 C.2       2 UNK         0.5000 
     61 O           5.5245  -10.5295  -45.1632 O.2       2 UNK        -0.5000 
     62 CA          5.1742  -11.7592  -47.1878 C.3       2 UNK         0.1400 
     63 CB          6.6170  -11.6963  -47.7163 C.3       2 UNK        -0.1800 
     64 N           4.5732  -13.0135  -47.6420 N.am      2 UNK        -0.5000 
     65 C           3.2721  -13.1970  -47.9048 C.2       1 UNK         0.5000 
     66 O           2.4317  -12.2989  -47.8533 O.2       1 UNK        -0.5000 
     67 C          -0.1074  -21.7067  -47.9227 C.2       11 UNK         0.5000 
     68 O           0.0508  -22.7098  -48.6163 O.2       11 UNK        -0.5000 
     69 N          -1.0328  -20.7751  -48.1850 N.am      12 UNK        -0.5000 
     70 CA         -1.9453  -20.8437  -49.3263 C.3       12 UNK         0.1400 
     71 CB         -2.6561  -19.4969  -49.4758 C.3       12 UNK        -0.1800 
     72 C          -2.9656  -21.9984  -49.2367 C.2       12 UNK         0.5000 
     73 O          -3.4138  -22.4937  -50.2700 O.2       12 UNK        -0.5000 
     74 N          -3.3284  -22.4149  -48.0170 N.am      13 UNK        -0.5000 
     75 CA         -4.1641  -23.5887  -47.7592 C.3       13 UNK         0.1400 
     76 CB         -4.7923  -23.4740  -46.3630 C.3       13 UNK        -0.1800 
     77 C          -3.3832  -24.9093  -47.9003 C.2       13 UNK         0.5000 
     78 O          -3.9768  -25.9207  -48.2714 O.2       13 UNK        -0.5000 
     79 N          -2.0755  -24.8842  -47.6099 N.am      14 UNK        -0.5000 
     80 CA         -1.1620  -26.0151  -47.7878 C.3       14 UNK         0.1400 
     81 CB          0.0620  -25.8205  -46.8791 C.3       14 UNK        -0.1800 
     82 C          -0.7244  -26.2069  -49.2541 C.2       14 UNK         0.5000 
     83 O          -0.3313  -27.3142  -49.6254 O.2       14 UNK        -0.5000 
     84 N          -0.7858  -25.1318  -50.0516 N.am      15 UNK        -0.5000 
     85 CA         -0.4718  -25.0947  -51.4797 C.3       15 UNK         0.1400 
     86 CB         -0.4742  -23.6289  -51.9461 C.3       15 UNK        -0.1800 
     87 C          -1.4324  -25.9420  -52.3397 C.2       15 UNK         0.5000 
     88 O          -2.4855  -26.3781  -51.8656 O.2       15 UNK        -0.5000 
     89 N          -1.0426  -26.1485  -53.6058 N.am      16 UNK        -0.5000 
     90 CA         -1.7593  -26.9328  -54.6146 C.3       16 UNK         0.1400 
     91 CB         -1.0260  -26.8133  -55.9594 C.3       16 UNK        -0.1800 
     92 C          -3.2377  -26.5251  -54.7657 C.2       16 UNK         0.5000 
     93 O          -3.5356  -25.3366  -54.9020 O.2       16 UNK        -0.5000 
     94 N          -4.1216  -27.5301  -54.7045 N.am      17 UNK        -0.5000 
     95 CA         -5.5875  -27.4454  -54.7359 C.3       17 UNK         0.1400 
     96 CB         -6.0808  -26.8121  -56.0544 C.3       17 UNK        -0.1800 
     97 C          -6.2267  -26.7796  -53.4953 C.2       17 UNK         0.5000 
     98 O          -7.4421  -26.5786  -53.4969 O.2       17 UNK        -0.5000 
     99 N          -5.4254  -26.4791  -52.4582 N.am      18 UNK        -0.5000 
    100 CA        -5.8019  -25.8372  -51.1935 C.3       18 UNK         0.1400 
    101 CB        -6.6214  -26.8054  -50.3164 C.3       18 UNK        -0.1800 
    102 C         -6.4974  -24.4801  -51.4149 C.2       18 UNK         0.5000 
    103 O         -7.6398  -24.2859  -50.9948 O.2       18 UNK        -0.5000 
    104 N         -5.7972  -23.5882  -52.1282 N.am      19 UNK        -0.5000 
    105 CA        -6.2971  -22.3051  -52.6233 C.3       19 UNK         0.1400 
    106 CB        -5.1887  -21.6236  -53.4413 C.3       19 UNK        -0.1800 
    107 C         -6.8171  -21.3453  -51.5375 C.2       19 UNK         0.5000 
    108 O         -7.7550  -20.5949  -51.8046 O.2       19 UNK        -0.5000 
    109 N         -6.1757  -21.3504  -50.3589 N.am      20 UNK        -0.5000 
    110 CA        -6.4224  -20.5082  -49.1723 C.3       20 UNK         0.1400 
    111 CB        -7.8574  -20.6816  -48.6417 C.3       20 UNK        -0.1800 
    112 C         -6.0583  -19.0167  -49.3525 C.2       20 UNK         0.5000 
    113 O         -5.7648  -18.3427  -48.3656 O.2       20 UNK        -0.5000 
    114 N         -6.0120  -18.5501  -50.6017 N.am      21 UNK        -0.5000 
    115 CA        -5.4089  -17.3121  -51.0647 C.3       21 UNK         0.1400 
    116 CB        -6.3808  -16.1335  -50.8808 C.3       21 UNK        -0.1800 
    117 C         -5.0558  -17.5559  -52.5379 C.2       21 UNK         0.5000 
    118 O         -5.9660  -17.7169  -53.3531 O.2       21 UNK        -0.5000 
    119 N         -3.7568  -17.6455  -52.8492 N.am      22 UNK        -0.5000 
    120 CA        -3.2563  -17.9645  -54.2018 C.3       22 UNK         0.1400 
    121 C         -3.3895  -16.8089  -55.2392 C.2       22 UNK         0.5000 
    122 N         -3.6989  -15.5817  -54.8383 N.am      22 UNK        -0.7600 
    123 O         -3.2128  -17.0323  -56.4337 O.2       22 UNK        -0.5000 
    124 C124       -1.8040  -18.5104  -54.1879 C.3       23 UNK        -0.0398 
    125 S125       -1.5756  -19.9660  -53.1066 S.3       23 UNK        -0.2404 
    126 C126        0.2439  -19.9939  -52.9335 C.3       23 UNK        -0.0205 
    127 H127        5.5192  -16.7692  -45.2968 H         1 UNK         0.0600 
    128 H128        5.3270  -17.4915  -46.8968 H         1 UNK         0.0600 
    129 H129        4.2018  -17.9077  -45.5987 H         1 UNK         0.0600 
    130 H130        4.2666  -16.1953  -48.3969 H         1 UNK         0.3000 
    131 H131        1.8828  -14.7836  -47.7561 H         1 UNK         0.0600 
    132 H132        2.9889  -15.7893  -50.1323 H         1 UNK         0.0800 
    133 H133        3.1961  -14.0979  -50.3689 H         1 UNK         0.0800 
    134 H134       -0.9673  -16.1663  -49.8015 H         1 UNK         0.0800 
    135 H135        0.1763  -16.1373  -48.4961 H         1 UNK         0.0800 
    136 H136       -0.5756  -17.6193  -51.7687 H         1 UNK         0.1150 
    137 H137        2.2703  -20.8054  -51.3024 H         1 UNK         0.1150 
    138 H138        2.1144  -17.6098  -48.4609 H         1 UNK         0.1150 
    139 H139        4.2884  -20.1347  -49.8104 H         1 UNK         0.0800 
    140 H140        4.0145  -19.0593  -48.4693 H         1 UNK         0.0800 
    141 H141        1.5960  -19.5939  -47.1292 H         1 UNK         0.0800 
    142 H142        2.4524  -20.4462  -45.8813 H         1 UNK         0.0800 
    143 H143        1.1435  -22.5201  -46.4011 H         1 UNK         0.0600 
    144 H144        0.0671  -20.2287  -45.1026 H         1 UNK         0.3000 
    145 H145       -2.7833  -21.9548  -43.7276 H         1 UNK         0.0600 
    146 H146       -1.7634  -21.0668  -41.6705 H         1 UNK         0.0600 
    147 H147       -0.7860  -22.3938  -42.2759 H         1 UNK         0.0600 
    148 H148       -0.2504  -20.7344  -42.5126 H         1 UNK         0.0600 
    149 H149       -2.0121  -19.2490  -43.4731 H         1 UNK         0.3000 
    150 H150       -3.7927  -18.0062  -46.3564 H         1 UNK         0.0600 
    151 H151       -5.4327  -18.2950  -44.4876 H         1 UNK         0.0600 
    152 H152       -4.8280  -16.6477  -44.5725 H         1 UNK         0.0600 
    153 H153       -4.2213  -17.7451  -43.3332 H         1 UNK         0.0600 
    154 H154       -2.2831  -16.6163  -44.4096 H         1 UNK         0.3000 
    155 H155        0.8699  -16.7068  -46.1645 H         1 UNK         0.0600 
    156 H156       -1.1390  -14.5853  -45.2307 H         1 UNK         0.0600 
    157 H157       -0.6194  -14.7886  -46.8891 H         1 UNK         0.0600 
    158 H158        0.5432  -14.3075  -45.6612 H         1 UNK         0.0600 
    159 H159        0.3259  -15.7172  -43.5921 H         1 UNK         0.3000 
    160 H160        0.9574  -18.6536  -41.6686 H         1 UNK         0.0600 
    161 H161        2.5245  -17.0345  -40.6267 H         1 UNK         0.0600 
    162 H162        2.4335  -15.9913  -42.0447 H         1 UNK         0.0600 
    163 H163        3.1573  -17.5873  -42.1703 H         1 UNK         0.0600 
    164 H164        0.1642  -15.9492  -41.0579 H         1 UNK         0.3000 
    165 H165       -3.3540  -16.5967  -40.9126 H         1 UNK         0.0600 
    166 H166       -2.9792  -15.7504  -38.6164 H         1 UNK         0.0600 
    167 H167       -2.3824  -17.3966  -38.7521 H         1 UNK         0.0600 
    168 H168       -1.2468  -16.0524  -38.7509 H         1 UNK         0.0600 
    169 H169       -1.7863  -14.2622  -40.3780 H         1 UNK         0.3000 
    170 H170       -1.8074  -12.9149  -43.6655 H         1 UNK         0.0600 
    171 H171       -4.0846  -12.3801  -42.7790 H         1 UNK         0.0600 
    172 H172       -3.4014  -12.0795  -41.1856 H         1 UNK         0.0600 
    173 H173       -2.9696  -11.0437  -42.5468 H         1 UNK         0.0600 
    174 H174       -0.9092  -11.7153  -41.3177 H         1 UNK         0.3000 
    175 H175        1.3699  -11.3571  -41.1643 H         1 UNK         0.0600 
    176 H176        1.7360  -14.0563  -39.7372 H         1 UNK         0.0600 
    177 H177        2.3238  -12.4981  -39.1568 H         1 UNK         0.0600 
    178 H178        0.5984  -12.8010  -39.2616 H         1 UNK         0.0600 
    179 H179        3.4734  -13.2890  -41.2844 H         1 UNK         0.3000 
    180 H180        5.3738  -11.9457  -43.0421 H         1 UNK         0.0600 
    181 H181        4.3027  -14.8094  -43.1817 H         1 UNK         0.0600 
    182 H182        5.2064  -14.0655  -41.8675 H         1 UNK         0.0600 
    183 H183        5.9989  -14.3896  -43.3942 H         1 UNK         0.0600 
    184 H184        4.3764  -13.4606  -45.3862 H         1 UNK         0.3000 
    185 H185        4.6219  -10.9177  -47.6113 H         1 UNK         0.0600 
    186 H186        7.0956  -10.7556  -47.4409 H         1 UNK         0.0600 
    187 H187        7.2285  -12.5054  -47.3149 H         1 UNK         0.0600 
    188 H188        6.6418  -11.7638  -48.8041 H         1 UNK         0.0600 
    189 H189        5.1890  -13.8115  -47.7017 H         1 UNK         0.3000 
    190 H190       -1.1006  -19.9516  -47.5930 H         1 UNK         0.3000 
    191 H191       -1.3449  -21.0097  -50.2229 H         1 UNK         0.0600 
    192 H192       -3.2556  -19.2686  -48.5952 H         1 UNK         0.0600 
    193 H193       -3.3076  -19.5008  -50.3493 H         1 UNK         0.0600 
    194 H194       -1.9440  -18.6841  -49.6038 H         1 UNK         0.0600 
    195 H195       -3.0180  -21.8879  -47.2068 H         1 UNK         0.3000 
    196 H196       -4.9768  -23.6078  -48.4885 H         1 UNK         0.0600 
    197 H197       -5.4305  -24.3323  -46.1495 H         1 UNK         0.0600 
    198 H198       -5.4118  -22.5805  -46.2827 H         1 UNK         0.0600 
    199 H199       -4.0327  -23.4258  -45.5824 H         1 UNK         0.0600 
    200 H200       -1.6732  -24.0305  -47.2411 H         1 UNK         0.3000 
    201 H201       -1.6718  -26.9284  -47.4741 H         1 UNK         0.0600 
    202 H202       -0.2333  -25.7314  -45.8335 H         1 UNK         0.0600 
    203 H203        0.6237  -24.9251  -47.1455 H         1 UNK         0.0600 
    204 H204        0.7429  -26.6692  -46.9541 H         1 UNK         0.0600 
    205 H205       -1.0430  -24.2500  -49.6272 H         1 UNK         0.3000 
    206 H206        0.5351  -25.4978  -51.6038 H         1 UNK         0.0600 
    207 H207        0.1935  -23.0172  -51.3390 H         1 UNK         0.0600 
    208 H208       -0.1382  -23.5409  -52.9795 H         1 UNK         0.0600 
    209 H209       -1.4708  -23.1911  -51.8930 H         1 UNK         0.0600 
    210 H210       -0.1790  -25.7272  -53.9146 H         1 UNK         0.3000 
    211 H211       -1.7140  -27.9759  -54.2951 H         1 UNK         0.0600 
    212 H212       -0.9936  -25.7802  -56.3082 H         1 UNK         0.0600 
    213 H213       -1.5238  -27.4040  -56.7297 H         1 UNK         0.0600 
    214 H214       -0.0007  -27.1762  -55.8857 H         1 UNK         0.0600 
    215 H215       -3.7597  -28.4646  -54.5711 H         1 UNK         0.3000 
    216 H216       -5.9386  -28.4782  -54.7245 H         1 UNK         0.0600 
    217 H217       -7.1612  -26.9179  -56.1588 H         1 UNK         0.0600 
    218 H218       -5.6252  -27.2939  -56.9194 H         1 UNK         0.0600 
    219 H219       -5.8549  -25.7467  -56.1042 H         1 UNK         0.0600 
    220 H220       -4.4315  -26.6595  -52.5532 H         1 UNK         0.3000 
    221 H221       -4.8691  -25.6210  -50.6736 H         1 UNK         0.0600 
    222 H222       -7.5757  -27.0646  -50.7758 H         1 UNK         0.0600 
    223 H223       -6.0724  -27.7294  -50.1355 H         1 UNK         0.0600 
    224 H224       -6.8339  -26.3609  -49.3433 H         1 UNK         0.0600 
    225 H225       -4.8626  -23.8401  -52.4180 H         1 UNK         0.3000 
    226 H226       -7.1319  -22.5217  -53.2928 H         1 UNK         0.0600 
    227 H227       -5.5342  -20.6769  -53.8590 H         1 UNK         0.0600 
    228 H228       -4.3121  -21.4106  -52.8278 H         1 UNK         0.0600 
    229 H229       -4.8693  -22.2491  -54.2753 H         1 UNK         0.0600 
    230 H230       -5.3642  -21.9576  -50.2966 H         1 UNK         0.3000 
    231 H231       -5.7497  -20.8868  -48.4019 H         1 UNK         0.0600 
    232 H232       -8.0924  -21.7337  -48.4795 H         1 UNK         0.0600 
    233 H233       -8.5999  -20.2719  -49.3265 H         1 UNK         0.0600 
    234 H234       -7.9807  -20.1693  -47.6868 H         1 UNK         0.0600 
    235 H235       -6.3591  -19.1534  -51.3395 H         1 UNK         0.3000 
    236 H236       -4.4961  -17.1167  -50.4978 H         1 UNK         0.0600 
    237 H237       -6.6078  -15.9705  -49.8272 H         1 UNK         0.0600 
    238 H238       -5.9496  -15.2099  -51.2680 H         1 UNK         0.0600 
    239 H239       -7.3236  -16.3026  -51.4026 H         1 UNK         0.0600 
    240 H240       -3.0581  -17.5287  -52.1316 H         1 UNK         0.3000 
    241 H241       -3.8845  -18.7696  -54.5884 H         1 UNK         0.0600 
    242 H242       -3.7864  -14.8445  -55.5202 H         1 UNK         0.3800 
    243 H243       -3.8498  -15.3820  -53.8630 H         1 UNK         0.3800 
    244 H244       -1.1079  -17.7222  -53.9012 H         1 UNK         0.0800 
    245 H245       -1.5086  -18.8133  -55.1941 H         1 UNK         0.0800 
    246 H246        0.5572  -21.0381  -52.9388 H         1 UNK         0.0800 
    247 H247        0.7094  -19.5360  -53.8070 H         1 UNK         0.0800 
@<TRIPOS>BOND
     1    1    2 1    
     2    1  127 1    
     3    1  128 1    
     4    1  129 1    
     5    2    3 2    
     6    2    4 am   BACKBONE|DICT|INTERRES
     7    4    5 1    
     8    4  130 1    
     9    5    6 1    
    10    5   65 1    
    11    5  131 1    
    12    6    7 1    
    13    6  132 1    
    14    6  133 1    
    15    7    8 1    
    16    8    9 1    
    17    8  134 1    
    18    8  135 1    
    19    9   10 ar   
    20    9   14 ar   
    21   10   11 ar   
    22   10  136 1    
    23   11   12 ar   
    24   11  126 1    
    25   12   13 ar   
    26   12  137 1    
    27   13   14 ar   
    28   13   15 1    
    29   14  138 1    
    30   15   16 1    
    31   15  139 1    
    32   15  140 1    
    33   16   17 1    
    34   17   18 1    
    35   17  141 1    
    36   17  142 1    
    37   18   19 1    
    38   18   67 1    
    39   18  143 1    
    40   19   20 am   BACKBONE|DICT|INTERRES
    41   19  144 1    
    42   20   21 2    
    43   20   22 1    
    44   22   23 1    
    45   22   24 1    
    46   22  145 1    
    47   23  146 1    
    48   23  147 1    
    49   23  148 1    
    50   24   25 am   BACKBONE|DICT|INTERRES
    51   24  149 1    
    52   25   26 2    
    53   25   27 1    
    54   27   28 1    
    55   27   29 1    
    56   27  150 1    
    57   28  151 1    
    58   28  152 1    
    59   28  153 1    
    60   29   30 am   BACKBONE|DICT|INTERRES
    61   29  154 1    
    62   30   31 2    
    63   30   32 1    
    64   32   33 1    
    65   32   34 1    
    66   32  155 1    
    67   33  156 1    
    68   33  157 1    
    69   33  158 1    
    70   34   35 am   BACKBONE|DICT|INTERRES
    71   34  159 1    
    72   35   36 2    
    73   35   37 1    
    74   37   38 1    
    75   37   39 1    
    76   37  160 1    
    77   38  161 1    
    78   38  162 1    
    79   38  163 1    
    80   39   40 am   BACKBONE|DICT|INTERRES
    81   39  164 1    
    82   40   41 2    
    83   40   42 1    
    84   42   43 1    
    85   42   44 1    
    86   42  165 1    
    87   43  166 1    
    88   43  167 1    
    89   43  168 1    
    90   44   45 am   BACKBONE|DICT|INTERRES
    91   44  169 1    
    92   45   46 2    
    93   45   47 1    
    94   47   48 1    
    95   47   49 1    
    96   47  170 1    
    97   48  171 1    
    98   48  172 1    
    99   48  173 1    
   100   49   50 am   BACKBONE|DICT|INTERRES
   101   49  174 1    
   102   50   51 2    
   103   50   52 1    
   104   52   53 1    
   105   52   54 1    
   106   52  175 1    
   107   53  176 1    
   108   53  177 1    
   109   53  178 1    
   110   54   55 am   BACKBONE|DICT|INTERRES
   111   54  179 1    
   112   55   56 2    
   113   55   57 1    
   114   57   58 1    
   115   57   59 1    
   116   57  180 1    
   117   58  181 1    
   118   58  182 1    
   119   58  183 1    
   120   59   60 am   BACKBONE|DICT|INTERRES
   121   59  184 1    
   122   60   61 2    
   123   60   62 1    
   124   62   63 1    
   125   62   64 1    
   126   62  185 1    
   127   63  186 1    
   128   63  187 1    
   129   63  188 1    
   130   64   65 am   BACKBONE|DICT|INTERRES
   131   64  189 1    
   132   65   66 2    
   133   67   68 2    
   134   67   69 am   BACKBONE|DICT|INTERRES
   135   69   70 1    
   136   69  190 1    
   137   70   71 1    
   138   70   72 1    
   139   70  191 1    
   140   71  192 1    
   141   71  193 1    
   142   71  194 1    
   143   72   73 2    
   144   72   74 am   BACKBONE|DICT|INTERRES
   145   74   75 1    
   146   74  195 1    
   147   75   76 1    
   148   75   77 1    
   149   75  196 1    
   150   76  197 1    
   151   76  198 1    
   152   76  199 1    
   153   77   78 2    
   154   77   79 am   BACKBONE|DICT|INTERRES
   155   79   80 1    
   156   79  200 1    
   157   80   81 1    
   158   80   82 1    
   159   80  201 1    
   160   81  202 1    
   161   81  203 1    
   162   81  204 1    
   163   82   83 2    
   164   82   84 am   BACKBONE|DICT|INTERRES
   165   84   85 1    
   166   84  205 1    
   167   85   86 1    
   168   85   87 1    
   169   85  206 1    
   170   86  207 1    
   171   86  208 1    
   172   86  209 1    
   173   87   88 2    
   174   87   89 am   BACKBONE|DICT|INTERRES
   175   89   90 1    
   176   89  210 1    
   177   90   91 1    
   178   90   92 1    
   179   90  211 1    
   180   91  212 1    
   181   91  213 1    
   182   91  214 1    
   183   92   93 2    
   184   92   94 am   BACKBONE|DICT|INTERRES
   185   94   95 1    
   186   94  215 1    
   187   95   96 1    
   188   95   97 1    
   189   95  216 1    
   190   96  217 1    
   191   96  218 1    
   192   96  219 1    
   193   97   98 2    
   194   97   99 am   BACKBONE|DICT|INTERRES
   195   99  100 1    
   196   99  220 1    
   197  100  101 1    
   198  100  102 1    
   199  100  221 1    
   200  101  222 1    
   201  101  223 1    
   202  101  224 1    
   203  102  103 2    
   204  102  104 am   BACKBONE|DICT|INTERRES
   205  104  105 1    
   206  104  225 1    
   207  105  106 1    
   208  105  107 1    
   209  105  226 1    
   210  106  227 1    
   211  106  228 1    
   212  106  229 1    
   213  107  108 2    
   214  107  109 am   BACKBONE|DICT|INTERRES
   215  109  110 1    
   216  109  230 1    
   217  110  111 1    
   218  110  112 1    
   219  110  231 1    
   220  111  232 1    
   221  111  233 1    
   222  111  234 1    
   223  112  113 2    
   224  112  114 am   BACKBONE|DICT|INTERRES
   225  114  115 1    
   226  114  235 1    
   227  115  116 1    
   228  115  117 1    
   229  115  236 1    
   230  116  237 1    
   231  116  238 1    
   232  116  239 1    
   233  117  118 2    
   234  117  119 am   BACKBONE|DICT|INTERRES
   235  119  120 1    
   236  119  240 1    
   237  120  121 1    
   238  120  124 1    
   239  120  241 1    
   240  121  122 am   BACKBONE|DICT|INTERRES
   241  121  123 2    
   242  122  242 1    
   243  122  243 1    
   244  124  125 1    
   245  124  244 1    
   246  124  245 1    
   247  125  126 1    
   248  126  246 1    
   249  126  247 1    
@<TRIPOS>SUBSTRUCTURE
     1 UNK         1 GROUP             0       ****    0 ROOT    
