@<TRIPOS>MOLECULE
3R540
247   249    1
SMALL
USER_CHARGES


@<TRIPOS>ATOM
      1 CA         -0.5522  -14.7161  -45.6577 C.3       0 UNK        -0.1800 
      2 C          -1.4319  -13.6763  -44.9874 C.2       0 UNK         0.5000 
      3 O          -1.3499  -13.4898  -43.7741 O.2       0 UNK        -0.5000 
      4 N          -2.2608  -12.9882  -45.7801 N.am      1 UNK        -0.5000 
      5 CA         -3.1335  -11.8887  -45.3500 C.3       1 UNK         0.1400 
      6 C6         -4.1626  -11.5106  -46.4458 C.3       23 UNK        -0.0398 
      7 S7         -3.4139  -11.1886  -48.0868 S.3       23 UNK        -0.2404 
      8 C8         -4.1923  -12.4624  -49.1298 C.3       23 UNK        -0.0205 
      9 C9         -3.7119  -13.8715  -48.8079 C.ar      23 UNK        -0.0193 
     10 C10        -2.4952  -14.3372  -49.3190 C.ar      23 UNK        -0.1150 
     11 C11        -2.0853  -15.6537  -49.0849 C.ar      23 UNK        -0.0193 
     12 C12        -2.8935  -16.4961  -48.3199 C.ar      23 UNK        -0.1150 
     13 C13        -4.1131  -16.0492  -47.8099 C.ar      23 UNK        -0.0193 
     14 C14        -4.5135  -14.7321  -48.0504 C.ar      23 UNK        -0.1150 
     15 C15        -5.0287  -17.0124  -47.0683 C.3       23 UNK        -0.0205 
     16 S16        -4.5895  -17.2111  -45.3123 S.3       23 UNK        -0.2404 
     17 C17        -2.9926  -18.0994  -45.3621 C.3       23 UNK        -0.0398 
     18 CA         -3.0274  -19.5293  -45.9636 C.3       11 UNK         0.1400 
     19 N          -1.6746  -20.0406  -46.2104 N.am      11 UNK        -0.5000 
     20 C          -1.3667  -21.2040  -46.8014 C.2       10 UNK         0.5000 
     21 O          -2.1991  -21.9855  -47.2507 O.2       10 UNK        -0.5000 
     22 CA          0.1183  -21.6048  -46.8442 C.3       10 UNK         0.1400 
     23 CB          0.8429  -20.9210  -48.0130 C.3       10 UNK        -0.1800 
     24 N           0.8034  -21.3313  -45.5800 N.am      10 UNK        -0.5000 
     25 C           0.4914  -21.9242  -44.4166 C.2       9 UNK         0.5000 
     26 O          -0.3523  -22.8151  -44.3094 O.2       9 UNK        -0.5000 
     27 CA          1.1934  -21.3931  -43.1532 C.3       9 UNK         0.1400 
     28 CB          2.5939  -22.0047  -43.0021 C.3       9 UNK        -0.1800 
     29 N           1.2868  -19.9326  -43.1429 N.am      9 UNK        -0.5000 
     30 C           0.2321  -19.1059  -43.1037 C.2       8 UNK         0.5000 
     31 O          -0.9306  -19.4929  -42.9848 O.2       8 UNK        -0.5000 
     32 CA          0.5174  -17.6036  -43.2953 C.3       8 UNK         0.1400 
     33 CB          0.9454  -16.9464  -41.9764 C.3       8 UNK        -0.1800 
     34 N           1.5278  -17.3579  -44.3276 N.am      8 UNK        -0.5000 
     35 C           1.3630  -17.6459  -45.6265 C.2       7 UNK         0.5000 
     36 O           0.3118  -18.0751  -46.0957 O.2       7 UNK        -0.5000 
     37 CA          2.5766  -17.4657  -46.5519 C.3       7 UNK         0.1400 
     38 CB          2.6471  -16.0345  -47.0995 C.3       7 UNK        -0.1800 
     39 N           3.8258  -17.8006  -45.8721 N.am      7 UNK        -0.5000 
     40 C           4.2158  -19.0526  -45.5966 C.2       6 UNK         0.5000 
     41 O           3.5839  -20.0529  -45.9376 O.2       6 UNK        -0.5000 
     42 CA          5.5026  -19.2078  -44.7635 C.3       6 UNK         0.1400 
     43 CB          6.7432  -19.1459  -45.6667 C.3       6 UNK        -0.1800 
     44 N           5.6181  -18.1955  -43.7109 N.am      6 UNK        -0.5000 
     45 C           4.8004  -18.1130  -42.6520 C.2       5 UNK         0.5000 
     46 O           3.8981  -18.9186  -42.4280 O.2       5 UNK        -0.5000 
     47 CA          4.9868  -16.9069  -41.7096 C.3       5 UNK         0.1400 
     48 CB          5.9707  -17.2566  -40.5835 C.3       5 UNK        -0.1800 
     49 N           5.4311  -15.6761  -42.3734 N.am      5 UNK        -0.5000 
     50 C           4.8030  -15.0642  -43.3873 C.2       4 UNK         0.5000 
     51 O           3.7894  -15.5118  -43.9271 O.2       4 UNK        -0.5000 
     52 CA          5.4680  -13.7739  -43.9085 C.3       4 UNK         0.1400 
     53 CB          6.7888  -14.1086  -44.6233 C.3       4 UNK        -0.1800 
     54 N           4.6368  -13.0012  -44.8351 N.am      4 UNK        -0.5000 
     55 C           3.4769  -12.3972  -44.5471 C.2       3 UNK         0.5000 
     56 O           2.9371  -12.4257  -43.4376 O.2       3 UNK        -0.5000 
     57 CA          2.8419  -11.5898  -45.6936 C.3       3 UNK         0.1400 
     58 CB          2.5204  -12.4569  -46.9260 C.3       3 UNK        -0.1800 
     59 N           1.6170  -10.9396  -45.2373 N.am      3 UNK        -0.5000 
     60 C           1.1486   -9.7714  -45.6892 C.2       2 UNK         0.5000 
     61 O           1.7267   -9.0836  -46.5329 O.2       2 UNK        -0.5000 
     62 CA         -0.2288   -9.3516  -45.1528 C.3       2 UNK         0.1400 
     63 CB         -0.7302   -8.0137  -45.7347 C.3       2 UNK        -0.1800 
     64 N          -1.1677  -10.4245  -45.4621 N.am      2 UNK        -0.5000 
     65 C          -2.3438  -10.6499  -44.8665 C.2       1 UNK         0.5000 
     66 O          -2.8042   -9.9448  -43.9672 O.2       1 UNK        -0.5000 
     67 C          -3.8625  -20.4941  -45.0990 C.2       11 UNK         0.5000 
     68 O          -4.9921  -20.8165  -45.4683 O.2       11 UNK        -0.5000 
     69 N          -3.2728  -20.9806  -43.9972 N.am      12 UNK        -0.5000 
     70 CA         -3.8806  -21.9573  -43.0900 C.3       12 UNK         0.1400 
     71 CB         -2.9735  -22.1424  -41.8643 C.3       12 UNK        -0.1800 
     72 C          -4.1774  -23.3134  -43.7617 C.2       12 UNK         0.5000 
     73 O          -5.1914  -23.9381  -43.4488 O.2       12 UNK        -0.5000 
     74 N          -3.3054  -23.7271  -44.6895 N.am      13 UNK        -0.5000 
     75 CA         -3.4522  -24.9385  -45.4971 C.3       13 UNK         0.1400 
     76 CB         -2.0482  -25.4166  -45.9042 C.3       13 UNK        -0.1800 
     77 C          -4.3258  -24.7411  -46.7540 C.2       13 UNK         0.5000 
     78 O          -4.5915  -25.7223  -47.4496 O.2       13 UNK        -0.5000 
     79 N          -4.6917  -23.4885  -47.0716 N.am      14 UNK        -0.5000 
     80 CA         -5.3145  -23.0241  -48.3210 C.3       14 UNK         0.1400 
     81 CB         -6.7813  -23.4928  -48.3980 C.3       14 UNK        -0.1800 
     82 C          -4.4966  -23.4120  -49.5760 C.2       14 UNK         0.5000 
     83 O          -5.0697  -23.7609  -50.6098 O.2       14 UNK        -0.5000 
     84 N          -3.1634  -23.4299  -49.4216 N.am      15 UNK        -0.5000 
     85 CA         -2.1408  -23.9411  -50.3409 C.3       15 UNK         0.1400 
     86 CB         -1.9348  -22.9591  -51.5075 C.3       15 UNK        -0.1800 
     87 C          -2.4045  -25.3858  -50.8240 C.2       15 UNK         0.5000 
     88 O          -2.0575  -25.7245  -51.9555 O.2       15 UNK        -0.5000 
     89 N          -3.0625  -26.1984  -49.9804 N.am      16 UNK        -0.5000 
     90 CA         -3.5548  -27.5530  -50.2598 C.3       16 UNK         0.1400 
     91 CB         -2.3774  -28.5346  -50.4356 C.3       16 UNK        -0.1800 
     92 C          -4.5646  -27.6110  -51.4307 C.2       16 UNK         0.5000 
     93 O          -4.6833  -28.6481  -52.0850 O.2       16 UNK        -0.5000 
     94 N          -5.2614  -26.4898  -51.6785 N.am      17 UNK        -0.5000 
     95 CA         -6.2020  -26.2367  -52.7744 C.3       17 UNK         0.1400 
     96 CB         -7.4322  -27.1634  -52.6782 C.3       17 UNK        -0.1800 
     97 C          -5.5506  -26.2426  -54.1761 C.2       17 UNK         0.5000 
     98 O          -6.2566  -26.4083  -55.1732 O.2       17 UNK        -0.5000 
     99 N          -4.2259  -26.0454  -54.2425 N.am      18 UNK        -0.5000 
    100 CA        -3.4728  -25.8848  -55.4857 C.3       18 UNK         0.1400 
    101 CB        -1.9835  -26.1350  -55.1967 C.3       18 UNK        -0.1800 
    102 C         -3.6716  -24.4819  -56.0903 C.2       18 UNK         0.5000 
    103 O         -4.1520  -23.5706  -55.4130 O.2       18 UNK        -0.5000 
    104 N         -3.2298  -24.3094  -57.3435 N.am      19 UNK        -0.5000 
    105 CA        -3.2673  -23.0441  -58.0908 C.3       19 UNK         0.1400 
    106 CB        -2.8142  -23.3107  -59.5348 C.3       19 UNK        -0.1800 
    107 C         -2.4347  -21.9017  -57.4651 C.2       19 UNK         0.5000 
    108 O         -2.6352  -20.7399  -57.8197 O.2       19 UNK        -0.5000 
    109 N         -1.5308  -22.2482  -56.5390 N.am      20 UNK        -0.5000 
    110 CA        -0.7298  -21.3273  -55.7342 C.3       20 UNK         0.1400 
    111 CB         0.4166  -22.1236  -55.0891 C.3       20 UNK        -0.1800 
    112 C         -1.5317  -20.5690  -54.6532 C.2       20 UNK         0.5000 
    113 O         -0.9911  -19.6231  -54.0811 O.2       20 UNK        -0.5000 
    114 N         -2.7734  -20.9960  -54.3715 N.am      21 UNK        -0.5000 
    115 CA        -3.6881  -20.4040  -53.3903 C.3       21 UNK         0.1400 
    116 CB        -5.0027  -21.2036  -53.4161 C.3       21 UNK        -0.1800 
    117 C         -3.9670  -18.9030  -53.6519 C.2       21 UNK         0.5000 
    118 O         -4.2707  -18.5600  -54.7952 O.2       21 UNK        -0.5000 
    119 N         -3.9103  -17.9967  -52.6616 N.am      22 UNK        -0.5000 
    120 CA        -3.5684  -18.1591  -51.2340 C.3       22 UNK         0.1400 
    121 C         -4.5132  -19.1043  -50.4351 C.2       22 UNK         0.5000 
    122 N         -5.8120  -19.0751  -50.7020 N.am      22 UNK        -0.7600 
    123 O         -4.0811  -19.8624  -49.5741 O.2       22 UNK        -0.5000 
    124 C124       -2.0485  -18.3911  -50.9740 C.3       23 UNK        -0.0398 
    125 S125       -1.0548  -16.9017  -51.3436 S.3       23 UNK        -0.2404 
    126 C126       -0.7915  -16.1866  -49.6837 C.3       23 UNK        -0.0205 
    127 H127       -0.4832  -14.5580  -46.7341 H         1 UNK         0.0600 
    128 H128       -0.9621  -15.7073  -45.4835 H         1 UNK         0.0600 
    129 H129        0.4543  -14.6822  -45.2406 H         1 UNK         0.0600 
    130 H130       -2.3024  -13.2044  -46.7669 H         1 UNK         0.3000 
    131 H131       -3.6972  -12.2485  -44.4865 H         1 UNK         0.0600 
    132 H132       -4.8970  -12.3107  -46.5350 H         1 UNK         0.0800 
    133 H133       -4.7380  -10.6317  -46.1491 H         1 UNK         0.0800 
    134 H134       -5.2773  -12.3938  -49.0362 H         1 UNK         0.0800 
    135 H135       -3.9686  -12.2396  -50.1741 H         1 UNK         0.0800 
    136 H136       -1.8814  -13.6830  -49.9225 H         1 UNK         0.1150 
    137 H137       -2.5896  -17.5186  -48.1539 H         1 UNK         0.1150 
    138 H138       -5.4661  -14.3873  -47.6738 H         1 UNK         0.1150 
    139 H139       -6.0568  -16.6509  -47.1191 H         1 UNK         0.0800 
    140 H140       -5.0404  -17.9808  -47.5679 H         1 UNK         0.0800 
    141 H141       -2.6137  -18.1274  -44.3414 H         1 UNK         0.0800 
    142 H142       -2.2821  -17.4833  -45.9063 H         1 UNK         0.0800 
    143 H143       -3.5047  -19.4840  -46.9422 H         1 UNK         0.0600 
    144 H144       -0.9082  -19.4293  -45.9384 H         1 UNK         0.3000 
    145 H145        0.1640  -22.6829  -47.0122 H         1 UNK         0.0600 
    146 H146        1.8944  -21.2064  -48.0482 H         1 UNK         0.0600 
    147 H147        0.3948  -21.2081  -48.9652 H         1 UNK         0.0600 
    148 H148        0.7917  -19.8354  -47.9475 H         1 UNK         0.0600 
    149 H149        1.5440  -20.6403  -45.5968 H         1 UNK         0.3000 
    150 H150        0.5965  -21.6955  -42.2903 H         1 UNK         0.0600 
    151 H151        2.5439  -23.0940  -42.9838 H         1 UNK         0.0600 
    152 H152        3.0645  -21.6844  -42.0724 H         1 UNK         0.0600 
    153 H153        3.2511  -21.7194  -43.8235 H         1 UNK         0.0600 
    154 H154        2.2210  -19.5340  -43.1629 H         1 UNK         0.3000 
    155 H155       -0.4099  -17.1276  -43.6180 H         1 UNK         0.0600 
    156 H156        0.1443  -17.0051  -41.2388 H         1 UNK         0.0600 
    157 H157        1.1828  -15.8915  -42.1180 H         1 UNK         0.0600 
    158 H158        1.8180  -17.4354  -41.5462 H         1 UNK         0.0600 
    159 H159        2.4021  -16.9339  -44.0344 H         1 UNK         0.3000 
    160 H160        2.4525  -18.1408  -47.4009 H         1 UNK         0.0600 
    161 H161        2.7808  -15.3070  -46.3005 H         1 UNK         0.0600 
    162 H162        1.7314  -15.7744  -47.6317 H         1 UNK         0.0600 
    163 H163        3.4746  -15.9193  -47.7994 H         1 UNK         0.0600 
    164 H164        4.3463  -17.0273  -45.4812 H         1 UNK         0.3000 
    165 H165        5.4741  -20.1909  -44.2886 H         1 UNK         0.0600 
    166 H166        7.6544  -19.3319  -45.0979 H         1 UNK         0.0600 
    167 H167        6.6916  -19.9012  -46.4521 H         1 UNK         0.0600 
    168 H168        6.8420  -18.1738  -46.1516 H         1 UNK         0.0600 
    169 H169        6.3368  -17.4959  -43.8216 H         1 UNK         0.3000 
    170 H170        4.0179  -16.6943  -41.2557 H         1 UNK         0.0600 
    171 H171        5.6540  -18.1558  -40.0530 H         1 UNK         0.0600 
    172 H172        6.9749  -17.4388  -40.9682 H         1 UNK         0.0600 
    173 H173        6.0322  -16.4537  -39.8486 H         1 UNK         0.0600 
    174 H174        6.2681  -15.2524  -41.9998 H         1 UNK         0.3000 
    175 H175        5.6842  -13.1388  -43.0471 H         1 UNK         0.0600 
    176 H176        6.6242  -14.7476  -45.4921 H         1 UNK         0.0600 
    177 H177        7.2928  -13.2040  -44.9642 H         1 UNK         0.0600 
    178 H178        7.4827  -14.6279  -43.9614 H         1 UNK         0.0600 
    179 H179        4.9894  -12.9301  -45.7777 H         1 UNK         0.3000 
    180 H180        3.5719  -10.8287  -45.9776 H         1 UNK         0.0600 
    181 H181        2.1540  -11.8444  -47.7500 H         1 UNK         0.0600 
    182 H182        1.7538  -13.1971  -46.7024 H         1 UNK         0.0600 
    183 H183        3.4002  -12.9865  -47.2917 H         1 UNK         0.0600 
    184 H184        1.1340  -11.4210  -44.4891 H         1 UNK         0.3000 
    185 H185       -0.1400   -9.2527  -44.0691 H         1 UNK         0.0600 
    186 H186       -0.8659   -8.0728  -46.8152 H         1 UNK         0.0600 
    187 H187       -1.6831   -7.7200  -45.2947 H         1 UNK         0.0600 
    188 H188       -0.0215   -7.2096  -45.5331 H         1 UNK         0.0600 
    189 H189       -0.8702  -11.0655  -46.1847 H         1 UNK         0.3000 
    190 H190       -2.3494  -20.6386  -43.7459 H         1 UNK         0.3000 
    191 H191       -4.8319  -21.5436  -42.7496 H         1 UNK         0.0600 
    192 H192       -1.9966  -22.5386  -42.1422 H         1 UNK         0.0600 
    193 H193       -2.8145  -21.1971  -41.3450 H         1 UNK         0.0600 
    194 H194       -3.4186  -22.8361  -41.1499 H         1 UNK         0.0600 
    195 H195       -2.4733  -23.1719  -44.8532 H         1 UNK         0.3000 
    196 H196       -3.9172  -25.7205  -44.8935 H         1 UNK         0.0600 
    197 H197       -1.4252  -25.5994  -45.0284 H         1 UNK         0.0600 
    198 H198       -1.5386  -24.6807  -46.5274 H         1 UNK         0.0600 
    199 H199       -2.0959  -26.3491  -46.4682 H         1 UNK         0.0600 
    200 H200       -4.3954  -22.7473  -46.4485 H         1 UNK         0.3000 
    201 H201       -5.3118  -21.9344  -48.2770 H         1 UNK         0.0600 
    202 H202       -7.2877  -23.0523  -49.2576 H         1 UNK         0.0600 
    203 H203       -7.3359  -23.1956  -47.5080 H         1 UNK         0.0600 
    204 H204       -6.8553  -24.5765  -48.4942 H         1 UNK         0.0600 
    205 H205       -2.8084  -23.0495  -48.5446 H         1 UNK         0.3000 
    206 H206       -1.2124  -23.9766  -49.7696 H         1 UNK         0.0600 
    207 H207       -1.7663  -21.9453  -51.1446 H         1 UNK         0.0600 
    208 H208       -2.8000  -22.9487  -52.1690 H         1 UNK         0.0600 
    209 H209       -1.0683  -23.2367  -52.1083 H         1 UNK         0.0600 
    210 H210       -3.3666  -25.8187  -49.0900 H         1 UNK         0.3000 
    211 H211       -4.1092  -27.8598  -49.3719 H         1 UNK         0.0600 
    212 H212       -1.6844  -28.4730  -49.5966 H         1 UNK         0.0600 
    213 H213       -2.7309  -29.5650  -50.4870 H         1 UNK         0.0600 
    214 H214       -1.8172  -28.3363  -51.3498 H         1 UNK         0.0600 
    215 H215       -5.0705  -25.6738  -51.1035 H         1 UNK         0.3000 
    216 H216       -6.5545  -25.2154  -52.6231 H         1 UNK         0.0600 
    217 H217       -8.2077  -26.8580  -53.3815 H         1 UNK         0.0600 
    218 H218       -7.1795  -28.1996  -52.9037 H         1 UNK         0.0600 
    219 H219       -7.8717  -27.1331  -51.6813 H         1 UNK         0.0600 
    220 H220       -3.7080  -25.9001  -53.3842 H         1 UNK         0.3000 
    221 H221       -3.8201  -26.6277  -56.2067 H         1 UNK         0.0600 
    222 H222       -1.5617  -25.3590  -54.5567 H         1 UNK         0.0600 
    223 H223       -1.8329  -27.0942  -54.7005 H         1 UNK         0.0600 
    224 H224       -1.3990  -26.1529  -56.1170 H         1 UNK         0.0600 
    225 H225       -2.8325  -25.0995  -57.8315 H         1 UNK         0.3000 
    226 H226       -4.3052  -22.7057  -58.1149 H         1 UNK         0.0600 
    227 H227       -3.4522  -24.0501  -60.0193 H         1 UNK         0.0600 
    228 H228       -2.8618  -22.4011  -60.1352 H         1 UNK         0.0600 
    229 H229       -1.7868  -23.6751  -59.5724 H         1 UNK         0.0600 
    230 H230       -1.4360  -23.2289  -56.3233 H         1 UNK         0.3000 
    231 H231       -0.2957  -20.5792  -56.4007 H         1 UNK         0.0600 
    232 H232        1.0649  -21.4727  -54.5010 H         1 UNK         0.0600 
    233 H233        1.0399  -22.6016  -55.8451 H         1 UNK         0.0600 
    234 H234        0.0404  -22.9007  -54.4226 H         1 UNK         0.0600 
    235 H235       -3.1397  -21.7870  -54.8887 H         1 UNK         0.3000 
    236 H236       -3.2325  -20.5408  -52.4143 H         1 UNK         0.0600 
    237 H237       -5.7414  -20.7912  -52.7314 H         1 UNK         0.0600 
    238 H238       -5.4499  -21.2042  -54.4109 H         1 UNK         0.0600 
    239 H239       -4.8439  -22.2412  -53.1228 H         1 UNK         0.0600 
    240 H240       -4.1171  -17.0424  -52.9155 H         1 UNK         0.3000 
    241 H241       -3.8040  -17.1861  -50.8045 H         1 UNK         0.0600 
    242 H242       -6.4340  -19.6765  -50.1868 H         1 UNK         0.3800 
    243 H243       -6.1879  -18.4479  -51.3958 H         1 UNK         0.3800 
    244 H244       -1.8527  -18.6829  -49.9423 H         1 UNK         0.0800 
    245 H245       -1.6643  -19.2130  -51.5746 H         1 UNK         0.0800 
    246 H246       -0.3462  -16.9341  -49.0245 H         1 UNK         0.0800 
    247 H247       -0.0626  -15.3785  -49.7601 H         1 UNK         0.0800 
@<TRIPOS>BOND
     1    1    2 1    
     2    1  127 1    
     3    1  128 1    
     4    1  129 1    
     5    2    3 2    
     6    2    4 am   BACKBONE|DICT|INTERRES
     7    4    5 1    
     8    4  130 1    
     9    5    6 1    
    10    5   65 1    
    11    5  131 1    
    12    6    7 1    
    13    6  132 1    
    14    6  133 1    
    15    7    8 1    
    16    8    9 1    
    17    8  134 1    
    18    8  135 1    
    19    9   10 ar   
    20    9   14 ar   
    21   10   11 ar   
    22   10  136 1    
    23   11   12 ar   
    24   11  126 1    
    25   12   13 ar   
    26   12  137 1    
    27   13   14 ar   
    28   13   15 1    
    29   14  138 1    
    30   15   16 1    
    31   15  139 1    
    32   15  140 1    
    33   16   17 1    
    34   17   18 1    
    35   17  141 1    
    36   17  142 1    
    37   18   19 1    
    38   18   67 1    
    39   18  143 1    
    40   19   20 am   BACKBONE|DICT|INTERRES
    41   19  144 1    
    42   20   21 2    
    43   20   22 1    
    44   22   23 1    
    45   22   24 1    
    46   22  145 1    
    47   23  146 1    
    48   23  147 1    
    49   23  148 1    
    50   24   25 am   BACKBONE|DICT|INTERRES
    51   24  149 1    
    52   25   26 2    
    53   25   27 1    
    54   27   28 1    
    55   27   29 1    
    56   27  150 1    
    57   28  151 1    
    58   28  152 1    
    59   28  153 1    
    60   29   30 am   BACKBONE|DICT|INTERRES
    61   29  154 1    
    62   30   31 2    
    63   30   32 1    
    64   32   33 1    
    65   32   34 1    
    66   32  155 1    
    67   33  156 1    
    68   33  157 1    
    69   33  158 1    
    70   34   35 am   BACKBONE|DICT|INTERRES
    71   34  159 1    
    72   35   36 2    
    73   35   37 1    
    74   37   38 1    
    75   37   39 1    
    76   37  160 1    
    77   38  161 1    
    78   38  162 1    
    79   38  163 1    
    80   39   40 am   BACKBONE|DICT|INTERRES
    81   39  164 1    
    82   40   41 2    
    83   40   42 1    
    84   42   43 1    
    85   42   44 1    
    86   42  165 1    
    87   43  166 1    
    88   43  167 1    
    89   43  168 1    
    90   44   45 am   BACKBONE|DICT|INTERRES
    91   44  169 1    
    92   45   46 2    
    93   45   47 1    
    94   47   48 1    
    95   47   49 1    
    96   47  170 1    
    97   48  171 1    
    98   48  172 1    
    99   48  173 1    
   100   49   50 am   BACKBONE|DICT|INTERRES
   101   49  174 1    
   102   50   51 2    
   103   50   52 1    
   104   52   53 1    
   105   52   54 1    
   106   52  175 1    
   107   53  176 1    
   108   53  177 1    
   109   53  178 1    
   110   54   55 am   BACKBONE|DICT|INTERRES
   111   54  179 1    
   112   55   56 2    
   113   55   57 1    
   114   57   58 1    
   115   57   59 1    
   116   57  180 1    
   117   58  181 1    
   118   58  182 1    
   119   58  183 1    
   120   59   60 am   BACKBONE|DICT|INTERRES
   121   59  184 1    
   122   60   61 2    
   123   60   62 1    
   124   62   63 1    
   125   62   64 1    
   126   62  185 1    
   127   63  186 1    
   128   63  187 1    
   129   63  188 1    
   130   64   65 am   BACKBONE|DICT|INTERRES
   131   64  189 1    
   132   65   66 2    
   133   67   68 2    
   134   67   69 am   BACKBONE|DICT|INTERRES
   135   69   70 1    
   136   69  190 1    
   137   70   71 1    
   138   70   72 1    
   139   70  191 1    
   140   71  192 1    
   141   71  193 1    
   142   71  194 1    
   143   72   73 2    
   144   72   74 am   BACKBONE|DICT|INTERRES
   145   74   75 1    
   146   74  195 1    
   147   75   76 1    
   148   75   77 1    
   149   75  196 1    
   150   76  197 1    
   151   76  198 1    
   152   76  199 1    
   153   77   78 2    
   154   77   79 am   BACKBONE|DICT|INTERRES
   155   79   80 1    
   156   79  200 1    
   157   80   81 1    
   158   80   82 1    
   159   80  201 1    
   160   81  202 1    
   161   81  203 1    
   162   81  204 1    
   163   82   83 2    
   164   82   84 am   BACKBONE|DICT|INTERRES
   165   84   85 1    
   166   84  205 1    
   167   85   86 1    
   168   85   87 1    
   169   85  206 1    
   170   86  207 1    
   171   86  208 1    
   172   86  209 1    
   173   87   88 2    
   174   87   89 am   BACKBONE|DICT|INTERRES
   175   89   90 1    
   176   89  210 1    
   177   90   91 1    
   178   90   92 1    
   179   90  211 1    
   180   91  212 1    
   181   91  213 1    
   182   91  214 1    
   183   92   93 2    
   184   92   94 am   BACKBONE|DICT|INTERRES
   185   94   95 1    
   186   94  215 1    
   187   95   96 1    
   188   95   97 1    
   189   95  216 1    
   190   96  217 1    
   191   96  218 1    
   192   96  219 1    
   193   97   98 2    
   194   97   99 am   BACKBONE|DICT|INTERRES
   195   99  100 1    
   196   99  220 1    
   197  100  101 1    
   198  100  102 1    
   199  100  221 1    
   200  101  222 1    
   201  101  223 1    
   202  101  224 1    
   203  102  103 2    
   204  102  104 am   BACKBONE|DICT|INTERRES
   205  104  105 1    
   206  104  225 1    
   207  105  106 1    
   208  105  107 1    
   209  105  226 1    
   210  106  227 1    
   211  106  228 1    
   212  106  229 1    
   213  107  108 2    
   214  107  109 am   BACKBONE|DICT|INTERRES
   215  109  110 1    
   216  109  230 1    
   217  110  111 1    
   218  110  112 1    
   219  110  231 1    
   220  111  232 1    
   221  111  233 1    
   222  111  234 1    
   223  112  113 2    
   224  112  114 am   BACKBONE|DICT|INTERRES
   225  114  115 1    
   226  114  235 1    
   227  115  116 1    
   228  115  117 1    
   229  115  236 1    
   230  116  237 1    
   231  116  238 1    
   232  116  239 1    
   233  117  118 2    
   234  117  119 am   BACKBONE|DICT|INTERRES
   235  119  120 1    
   236  119  240 1    
   237  120  121 1    
   238  120  124 1    
   239  120  241 1    
   240  121  122 am   BACKBONE|DICT|INTERRES
   241  121  123 2    
   242  122  242 1    
   243  122  243 1    
   244  124  125 1    
   245  124  244 1    
   246  124  245 1    
   247  125  126 1    
   248  126  246 1    
   249  126  247 1    
@<TRIPOS>SUBSTRUCTURE
     1 UNK         1 GROUP             0       ****    0 ROOT    
