@<TRIPOS>MOLECULE
3R540
247   249    1
SMALL
USER_CHARGES


@<TRIPOS>ATOM
      1 CA         -1.2104  -16.4771  -48.4718 C.3       0 UNK        -0.1800 
      2 C          -0.9581  -15.3180  -47.5229 C.2       0 UNK         0.5000 
      3 O           0.1701  -14.8424  -47.4136 O.2       0 UNK        -0.5000 
      4 N          -2.0097  -14.8480  -46.8433 N.am      1 UNK        -0.5000 
      5 CA         -1.9501  -13.8324  -45.7830 C.3       1 UNK         0.1400 
      6 C6         -3.3077  -13.6481  -45.0619 C.3       23 UNK        -0.0398 
      7 S7         -4.0183  -15.2150  -44.4475 S.3       23 UNK        -0.2404 
      8 C8         -5.5338  -15.3654  -45.4443 C.3       23 UNK        -0.0205 
      9 C9         -5.2456  -15.7898  -46.8770 C.ar      23 UNK        -0.0193 
     10 C10        -5.0978  -14.8288  -47.8824 C.ar      23 UNK        -0.1150 
     11 C11        -4.8667  -15.2164  -49.2039 C.ar      23 UNK        -0.0193 
     12 C12        -4.8146  -16.5758  -49.5125 C.ar      23 UNK        -0.1150 
     13 C13        -4.9430  -17.5539  -48.5264 C.ar      23 UNK        -0.0193 
     14 C14        -5.1547  -17.1483  -47.2010 C.ar      23 UNK        -0.1150 
     15 C15        -4.8662  -19.0147  -48.9761 C.3       23 UNK        -0.0205 
     16 S16        -5.0962  -20.2756  -47.6815 S.3       23 UNK        -0.2404 
     17 C17        -3.4514  -20.3484  -46.8834 C.3       23 UNK        -0.0398 
     18 CA         -2.9723  -21.8072  -46.6629 C.3       11 UNK         0.1400 
     19 N          -1.5551  -21.8824  -46.2874 N.am      11 UNK        -0.5000 
     20 C          -0.8595  -23.0204  -46.1309 C.2       10 UNK         0.5000 
     21 O          -1.3261  -24.1410  -46.3338 O.2       10 UNK        -0.5000 
     22 CA          0.5777  -22.9002  -45.5929 C.3       10 UNK         0.1400 
     23 CB          1.5549  -22.4894  -46.7041 C.3       10 UNK        -0.1800 
     24 N           0.6708  -21.9755  -44.4620 N.am      10 UNK        -0.5000 
     25 C           0.0590  -22.1642  -43.2833 C.2       9 UNK         0.5000 
     26 O          -0.5900  -23.1720  -43.0087 O.2       9 UNK        -0.5000 
     27 CA          0.1364  -21.0217  -42.2547 C.3       9 UNK         0.1400 
     28 CB          1.4333  -21.1021  -41.4365 C.3       9 UNK        -0.1800 
     29 N           0.0196  -19.7003  -42.8691 N.am      9 UNK        -0.5000 
     30 C          -1.0613  -19.2574  -43.5284 C.2       8 UNK         0.5000 
     31 O          -2.1054  -19.8999  -43.6468 O.2       8 UNK        -0.5000 
     32 CA         -0.9212  -17.8884  -44.2197 C.3       8 UNK         0.1400 
     33 CB         -1.0103  -16.7609  -43.1801 C.3       8 UNK        -0.1800 
     34 N           0.3341  -17.7833  -44.9706 N.am      8 UNK        -0.5000 
     35 C           0.6774  -18.5885  -45.9872 C.2       7 UNK         0.5000 
     36 O          -0.0824  -19.4290  -46.4656 O.2       7 UNK        -0.5000 
     37 CA          2.1233  -18.5007  -46.5104 C.3       7 UNK         0.1400 
     38 CB          2.2777  -17.4617  -47.6274 C.3       7 UNK        -0.1800 
     39 N           3.0753  -18.2144  -45.4397 N.am      7 UNK        -0.5000 
     40 C           3.4707  -19.1126  -44.5278 C.2       6 UNK         0.5000 
     41 O           3.1081  -20.2879  -44.5287 O.2       6 UNK        -0.5000 
     42 CA          4.3926  -18.5995  -43.4059 C.3       6 UNK         0.1400 
     43 CB          5.8592  -18.6151  -43.8615 C.3       6 UNK        -0.1800 
     44 N           4.0361  -17.2492  -42.9679 N.am      6 UNK        -0.5000 
     45 C           2.8964  -16.9360  -42.3348 C.2       5 UNK         0.5000 
     46 O           2.0647  -17.7721  -41.9843 O.2       5 UNK        -0.5000 
     47 CA          2.6179  -15.4364  -42.1046 C.3       5 UNK         0.1400 
     48 CB          3.1710  -14.9878  -40.7442 C.3       5 UNK        -0.1800 
     49 N           3.1752  -14.5853  -43.1617 N.am      5 UNK        -0.5000 
     50 C           2.7745  -14.6094  -44.4398 C.2       4 UNK         0.5000 
     51 O           1.8482  -15.3106  -44.8480 O.2       4 UNK        -0.5000 
     52 CA          3.6165  -13.7957  -45.4293 C.3       4 UNK         0.1400 
     53 CB          4.9156  -14.5673  -45.7493 C.3       4 UNK        -0.1800 
     54 N           2.8667  -13.5402  -46.6596 N.am      4 UNK        -0.5000 
     55 C           3.2549  -12.6823  -47.6138 C.2       3 UNK         0.5000 
     56 O           4.2486  -11.9600  -47.5190 O.2       3 UNK        -0.5000 
     57 CA          2.3997  -12.6062  -48.8865 C.3       3 UNK         0.1400 
     58 CB          2.4907  -13.9065  -49.7025 C.3       3 UNK        -0.1800 
     59 N           1.0062  -12.3110  -48.5692 N.am      3 UNK        -0.5000 
     60 C           0.4966  -11.0741  -48.4776 C.2       2 UNK         0.5000 
     61 O           1.1586  -10.0508  -48.6570 O.2       2 UNK        -0.5000 
     62 CA         -1.0044  -10.9391  -48.1503 C.3       2 UNK         0.1400 
     63 CB         -1.8015  -10.6008  -49.4192 C.3       2 UNK        -0.1800 
     64 N          -1.5638  -12.1438  -47.5368 N.am      2 UNK        -0.5000 
     65 C          -1.4020  -12.4664  -46.2461 C.2       1 UNK         0.5000 
     66 O          -0.8328  -11.7399  -45.4304 O.2       1 UNK        -0.5000 
     67 C          -3.8706  -22.5528  -45.6513 C.2       11 UNK         0.5000 
     68 O          -4.7286  -23.3352  -46.0621 O.2       11 UNK        -0.5000 
     69 N          -3.6302  -22.3256  -44.3516 N.am      12 UNK        -0.5000 
     70 CA         -4.3238  -23.0009  -43.2543 C.3       12 UNK         0.1400 
     71 CB         -3.9290  -22.3485  -41.9208 C.3       12 UNK        -0.1800 
     72 C          -4.0681  -24.5207  -43.2220 C.2       12 UNK         0.5000 
     73 O          -4.9887  -25.2808  -42.9184 O.2       12 UNK        -0.5000 
     74 N          -2.8354  -24.9349  -43.5457 N.am      13 UNK        -0.5000 
     75 CA         -2.4284  -26.3340  -43.6442 C.3       13 UNK         0.1400 
     76 CB         -0.8949  -26.4339  -43.6611 C.3       13 UNK        -0.1800 
     77 C          -3.0416  -27.0494  -44.8613 C.2       13 UNK         0.5000 
     78 O          -3.5718  -28.1498  -44.6975 O.2       13 UNK        -0.5000 
     79 N          -2.9677  -26.4299  -46.0486 N.am      14 UNK        -0.5000 
     80 CA         -3.4786  -27.0040  -47.2931 C.3       14 UNK         0.1400 
     81 CB         -2.5453  -28.1229  -47.8000 C.3       14 UNK        -0.1800 
     82 C          -3.7092  -25.9580  -48.3942 C.2       14 UNK         0.5000 
     83 O          -4.8145  -25.8905  -48.9338 O.2       14 UNK        -0.5000 
     84 N          -2.6628  -25.2073  -48.7587 N.am      15 UNK        -0.5000 
     85 CA         -2.6183  -24.3689  -49.9559 C.3       15 UNK         0.1400 
     86 CB         -2.5386  -25.2648  -51.2084 C.3       15 UNK        -0.1800 
     87 C          -1.4007  -23.4369  -49.9056 C.2       15 UNK         0.5000 
     88 O          -0.3951  -23.7817  -49.2830 O.2       15 UNK        -0.5000 
     89 N          -1.4979  -22.2994  -50.5998 N.am      16 UNK        -0.5000 
     90 CA         -0.4405  -21.3072  -50.7460 C.3       16 UNK         0.1400 
     91 CB         -0.7436  -20.0921  -49.8544 C.3       16 UNK        -0.1800 
     92 C          -0.3743  -20.9272  -52.2295 C.2       16 UNK         0.5000 
     93 O          -1.2661  -20.2270  -52.7155 O.2       16 UNK        -0.5000 
     94 N           0.6757  -21.4049  -52.9102 N.am      17 UNK        -0.5000 
     95 CA          0.9084  -21.3381  -54.3589 C.3       17 UNK         0.1400 
     96 CB          0.8621  -19.8938  -54.9041 C.3       17 UNK        -0.1800 
     97 C           0.0105  -22.3275  -55.1302 C.2       17 UNK         0.5000 
     98 O          -0.6343  -21.9558  -56.1113 O.2       17 UNK        -0.5000 
     99 N           0.0105  -23.5856  -54.6600 N.am      18 UNK        -0.5000 
    100 CA        -0.6020  -24.7827  -55.2604 C.3       18 UNK         0.1400 
    101 CB        -0.0006  -25.0664  -56.6530 C.3       18 UNK        -0.1800 
    102 C         -2.1460  -24.8058  -55.2817 C.2       18 UNK         0.5000 
    103 O         -2.7303  -25.7119  -55.8781 O.2       18 UNK        -0.5000 
    104 N         -2.7819  -23.8465  -54.6065 N.am      19 UNK        -0.5000 
    105 CA        -4.2223  -23.7098  -54.4296 C.3       19 UNK         0.1400 
    106 CB        -4.8622  -23.1825  -55.7310 C.3       19 UNK        -0.1800 
    107 C         -4.4593  -22.7492  -53.2546 C.2       19 UNK         0.5000 
    108 O         -3.4992  -22.2843  -52.6342 O.2       19 UNK        -0.5000 
    109 N         -5.7231  -22.4014  -52.9945 N.am      20 UNK        -0.5000 
    110 CA        -6.0981  -21.2802  -52.1298 C.3       20 UNK         0.1400 
    111 CB        -7.4884  -21.5517  -51.5286 C.3       20 UNK        -0.1800 
    112 C         -6.0291  -19.9586  -52.9283 C.2       20 UNK         0.5000 
    113 O         -7.0358  -19.2609  -53.0602 O.2       20 UNK        -0.5000 
    114 N         -4.8493  -19.6803  -53.4997 N.am      21 UNK        -0.5000 
    115 CA        -4.5526  -18.5172  -54.3293 C.3       21 UNK         0.1400 
    116 CB        -3.4565  -18.8953  -55.3452 C.3       21 UNK        -0.1800 
    117 C         -4.1824  -17.3358  -53.4186 C.2       21 UNK         0.5000 
    118 O         -5.0867  -16.6775  -52.9077 O.2       21 UNK        -0.5000 
    119 N         -2.8791  -17.1128  -53.2130 N.am      22 UNK        -0.5000 
    120 CA        -2.2724  -16.2009  -52.2290 C.3       22 UNK         0.1400 
    121 C         -0.7247  -16.3648  -52.1799 C.2       22 UNK         0.5000 
    122 N         -0.1808  -17.5492  -52.4349 N.am      22 UNK        -0.7600 
    123 O          0.0075  -15.4164  -51.9167 O.2       22 UNK        -0.5000 
    124 C124       -2.7457  -14.7158  -52.3320 C.3       23 UNK        -0.0398 
    125 S125       -2.9215  -13.9162  -50.6939 S.3       23 UNK        -0.2404 
    126 C126       -4.6842  -14.1743  -50.2985 C.3       23 UNK        -0.0205 
    127 H127       -1.2304  -17.4202  -47.9283 H         1 UNK         0.0600 
    128 H128       -0.4281  -16.5288  -49.2278 H         1 UNK         0.0600 
    129 H129       -2.1628  -16.3578  -48.9798 H         1 UNK         0.0600 
    130 H130       -2.9175  -15.2710  -46.9839 H         1 UNK         0.3000 
    131 H131       -1.2315  -14.1982  -45.0503 H         1 UNK         0.0600 
    132 H132       -3.1835  -12.9913  -44.1990 H         1 UNK         0.0800 
    133 H133       -4.0253  -13.1468  -45.7118 H         1 UNK         0.0800 
    134 H134       -6.0851  -14.4240  -45.4255 H         1 UNK         0.0800 
    135 H135       -6.1864  -16.1018  -44.9729 H         1 UNK         0.0800 
    136 H136       -5.1681  -13.7780  -47.6400 H         1 UNK         0.1150 
    137 H137       -4.6652  -16.8828  -50.5328 H         1 UNK         0.1150 
    138 H138       -5.2704  -17.8780  -46.4136 H         1 UNK         0.1150 
    139 H139       -5.6473  -19.1721  -49.7210 H         1 UNK         0.0800 
    140 H140       -3.9202  -19.1900  -49.4884 H         1 UNK         0.0800 
    141 H141       -3.4932  -19.8007  -45.9410 H         1 UNK         0.0800 
    142 H142       -2.7330  -19.8132  -47.5046 H         1 UNK         0.0800 
    143 H143       -3.0611  -22.3309  -47.6164 H         1 UNK         0.0600 
    144 H144       -1.0749  -20.9982  -46.1384 H         1 UNK         0.3000 
    145 H145        0.8818  -23.8849  -45.2323 H         1 UNK         0.0600 
    146 H146        2.5658  -22.3581  -46.3184 H         1 UNK         0.0600 
    147 H147        1.6003  -23.2572  -47.4769 H         1 UNK         0.0600 
    148 H148        1.2537  -21.5631  -47.1909 H         1 UNK         0.0600 
    149 H149        1.2466  -21.1509  -44.5885 H         1 UNK         0.3000 
    150 H150       -0.7033  -21.1396  -41.5669 H         1 UNK         0.0600 
    151 H151        1.5206  -22.0687  -40.9389 H         1 UNK         0.0600 
    152 H152        1.4592  -20.3340  -40.6633 H         1 UNK         0.0600 
    153 H153        2.3159  -20.9747  -42.0626 H         1 UNK         0.0600 
    154 H154        0.8193  -19.0815  -42.7737 H         1 UNK         0.3000 
    155 H155       -1.7431  -17.7712  -44.9294 H         1 UNK         0.0600 
    156 H156       -0.3244  -16.9114  -42.3484 H         1 UNK         0.0600 
    157 H157       -2.0134  -16.7074  -42.7569 H         1 UNK         0.0600 
    158 H158       -0.7842  -15.7919  -43.6177 H         1 UNK         0.0600 
    159 H159        0.9758  -17.0451  -44.6988 H         1 UNK         0.3000 
    160 H160        2.3722  -19.4733  -46.9387 H         1 UNK         0.0600 
    161 H161        2.1446  -16.4484  -47.2544 H         1 UNK         0.0600 
    162 H162        1.5491  -17.6266  -48.4211 H         1 UNK         0.0600 
    163 H163        3.2674  -17.5177  -48.0804 H         1 UNK         0.0600 
    164 H164        3.3704  -17.2553  -45.3408 H         1 UNK         0.3000 
    165 H165        4.2902  -19.2747  -42.5536 H         1 UNK         0.0600 
    166 H166        6.5267  -18.3210  -43.0513 H         1 UNK         0.0600 
    167 H167        6.1575  -19.6149  -44.1801 H         1 UNK         0.0600 
    168 H168        6.0297  -17.9386  -44.7000 H         1 UNK         0.0600 
    169 H169        4.6773  -16.5070  -43.2032 H         1 UNK         0.3000 
    170 H170        1.5351  -15.2972  -42.0956 H         1 UNK         0.0600 
    171 H171        2.7543  -15.5907  -39.9362 H         1 UNK         0.0600 
    172 H172        4.2566  -15.0824  -40.6984 H         1 UNK         0.0600 
    173 H173        2.9146  -13.9486  -40.5375 H         1 UNK         0.0600 
    174 H174        3.9468  -13.9891  -42.8987 H         1 UNK         0.3000 
    175 H175        3.8606  -12.8397  -44.9617 H         1 UNK         0.0600 
    176 H176        4.7072  -15.5024  -46.2707 H         1 UNK         0.0600 
    177 H177        5.5883  -13.9826  -46.3761 H         1 UNK         0.0600 
    178 H178        5.4689  -14.8123  -44.8421 H         1 UNK         0.0600 
    179 H179        2.0115  -14.0812  -46.7711 H         1 UNK         0.3000 
    180 H180        2.8051  -11.8080  -49.5122 H         1 UNK         0.0600 
    181 H181        2.0979  -14.7655  -49.1599 H         1 UNK         0.0600 
    182 H182        3.5258  -14.1311  -49.9620 H         1 UNK         0.0600 
    183 H183        1.9331  -13.8220  -50.6353 H         1 UNK         0.0600 
    184 H184        0.4285  -13.1086  -48.3249 H         1 UNK         0.3000 
    185 H185       -1.1179  -10.1059  -47.4533 H         1 UNK         0.0600 
    186 H186       -1.4961   -9.6343  -49.8217 H         1 UNK         0.0600 
    187 H187       -1.6428  -11.3412  -50.2030 H         1 UNK         0.0600 
    188 H188       -2.8712  -10.5454  -49.2164 H         1 UNK         0.0600 
    189 H189       -2.0251  -12.8006  -48.1507 H         1 UNK         0.3000 
    190 H190       -2.9318  -21.6334  -44.0955 H         1 UNK         0.3000 
    191 H191       -5.3954  -22.8498  -43.3997 H         1 UNK         0.0600 
    192 H192       -2.8649  -22.4628  -41.7152 H         1 UNK         0.0600 
    193 H193       -4.4736  -22.7993  -41.0903 H         1 UNK         0.0600 
    194 H194       -4.1569  -21.2824  -41.9201 H         1 UNK         0.0600 
    195 H195       -2.1153  -24.2393  -43.7122 H         1 UNK         0.3000 
    196 H196       -2.7810  -26.8474  -42.7471 H         1 UNK         0.0600 
    197 H197       -0.5728  -27.4748  -43.7069 H         1 UNK         0.0600 
    198 H198       -0.4624  -25.9991  -42.7599 H         1 UNK         0.0600 
    199 H199       -0.4636  -25.9199  -44.5196 H         1 UNK         0.0600 
    200 H200       -2.5142  -25.5194  -46.1121 H         1 UNK         0.3000 
    201 H201       -4.4544  -27.4485  -47.0843 H         1 UNK         0.0600 
    202 H202       -2.5163  -28.9648  -47.1086 H         1 UNK         0.0600 
    203 H203       -1.5238  -27.7643  -47.9314 H         1 UNK         0.0600 
    204 H204       -2.8840  -28.5105  -48.7617 H         1 UNK         0.0600 
    205 H205       -1.8008  -25.2276  -48.2238 H         1 UNK         0.3000 
    206 H206       -3.5192  -23.7526  -49.9981 H         1 UNK         0.0600 
    207 H207       -1.7594  -26.0214  -51.1093 H         1 UNK         0.0600 
    208 H208       -3.4826  -25.7766  -51.3950 H         1 UNK         0.0600 
    209 H209       -2.3055  -24.6827  -52.0973 H         1 UNK         0.0600 
    210 H210       -2.3113  -22.1471  -51.1947 H         1 UNK         0.3000 
    211 H211        0.5235  -21.7216  -50.4433 H         1 UNK         0.0600 
    212 H212       -1.6888  -19.6179  -50.1175 H         1 UNK         0.0600 
    213 H213        0.0387  -19.3372  -49.9396 H         1 UNK         0.0600 
    214 H214       -0.7961  -20.3884  -48.8082 H         1 UNK         0.0600 
    215 H215        1.3586  -21.9444  -52.3966 H         1 UNK         0.3000 
    216 H216        1.9298  -21.6916  -54.5086 H         1 UNK         0.0600 
    217 H217        1.2131  -19.8616  -55.9360 H         1 UNK         0.0600 
    218 H218        1.5038  -19.2312  -54.3239 H         1 UNK         0.0600 
    219 H219       -0.1453  -19.4797  -54.8985 H         1 UNK         0.0600 
    220 H220        0.5508  -23.7652  -53.8259 H         1 UNK         0.3000 
    221 H221       -0.3130  -25.6112  -54.6122 H         1 UNK         0.0600 
    222 H222       -0.3000  -24.3156  -57.3846 H         1 UNK         0.0600 
    223 H223        1.0886  -25.0852  -56.6166 H         1 UNK         0.0600 
    224 H224       -0.3261  -26.0359  -57.0317 H         1 UNK         0.0600 
    225 H225       -2.2411  -23.1477  -54.1122 H         1 UNK         0.3000 
    226 H226       -4.6483  -24.6802  -54.1679 H         1 UNK         0.0600 
    227 H227       -4.6605  -23.8452  -56.5724 H         1 UNK         0.0600 
    228 H228       -5.9461  -23.1064  -55.6436 H         1 UNK         0.0600 
    229 H229       -4.4810  -22.1937  -55.9897 H         1 UNK         0.0600 
    230 H230       -6.4654  -22.8007  -53.5507 H         1 UNK         0.3000 
    231 H231       -5.3926  -21.2000  -51.2998 H         1 UNK         0.0600 
    232 H232       -7.4908  -22.4737  -50.9470 H         1 UNK         0.0600 
    233 H233       -8.2534  -21.6398  -52.3009 H         1 UNK         0.0600 
    234 H234       -7.7871  -20.7456  -50.8573 H         1 UNK         0.0600 
    235 H235       -4.0723  -20.3025  -53.3074 H         1 UNK         0.3000 
    236 H236       -5.4439  -18.2308  -54.8916 H         1 UNK         0.0600 
    237 H237       -2.5711  -19.3104  -54.8644 H         1 UNK         0.0600 
    238 H238       -3.8231  -19.6447  -56.0467 H         1 UNK         0.0600 
    239 H239       -3.1468  -18.0303  -55.9331 H         1 UNK         0.0600 
    240 H240       -2.2151  -17.6923  -53.7066 H         1 UNK         0.3000 
    241 H241       -2.5953  -16.5874  -51.2651 H         1 UNK         0.0600 
    242 H242       -0.7305  -18.3900  -52.5797 H         1 UNK         0.3800 
    243 H243        0.8233  -17.6166  -52.4111 H         1 UNK         0.3800 
    244 H244       -2.0482  -14.1269  -52.9296 H         1 UNK         0.0800 
    245 H245       -3.6913  -14.6173  -52.8610 H         1 UNK         0.0800 
    246 H246       -5.2438  -14.4715  -51.1861 H         1 UNK         0.0800 
    247 H247       -5.1103  -13.2212  -49.9819 H         1 UNK         0.0800 
@<TRIPOS>BOND
     1    1    2 1    
     2    1  127 1    
     3    1  128 1    
     4    1  129 1    
     5    2    3 2    
     6    2    4 am   BACKBONE|DICT|INTERRES
     7    4    5 1    
     8    4  130 1    
     9    5    6 1    
    10    5   65 1    
    11    5  131 1    
    12    6    7 1    
    13    6  132 1    
    14    6  133 1    
    15    7    8 1    
    16    8    9 1    
    17    8  134 1    
    18    8  135 1    
    19    9   10 ar   
    20    9   14 ar   
    21   10   11 ar   
    22   10  136 1    
    23   11   12 ar   
    24   11  126 1    
    25   12   13 ar   
    26   12  137 1    
    27   13   14 ar   
    28   13   15 1    
    29   14  138 1    
    30   15   16 1    
    31   15  139 1    
    32   15  140 1    
    33   16   17 1    
    34   17   18 1    
    35   17  141 1    
    36   17  142 1    
    37   18   19 1    
    38   18   67 1    
    39   18  143 1    
    40   19   20 am   BACKBONE|DICT|INTERRES
    41   19  144 1    
    42   20   21 2    
    43   20   22 1    
    44   22   23 1    
    45   22   24 1    
    46   22  145 1    
    47   23  146 1    
    48   23  147 1    
    49   23  148 1    
    50   24   25 am   BACKBONE|DICT|INTERRES
    51   24  149 1    
    52   25   26 2    
    53   25   27 1    
    54   27   28 1    
    55   27   29 1    
    56   27  150 1    
    57   28  151 1    
    58   28  152 1    
    59   28  153 1    
    60   29   30 am   BACKBONE|DICT|INTERRES
    61   29  154 1    
    62   30   31 2    
    63   30   32 1    
    64   32   33 1    
    65   32   34 1    
    66   32  155 1    
    67   33  156 1    
    68   33  157 1    
    69   33  158 1    
    70   34   35 am   BACKBONE|DICT|INTERRES
    71   34  159 1    
    72   35   36 2    
    73   35   37 1    
    74   37   38 1    
    75   37   39 1    
    76   37  160 1    
    77   38  161 1    
    78   38  162 1    
    79   38  163 1    
    80   39   40 am   BACKBONE|DICT|INTERRES
    81   39  164 1    
    82   40   41 2    
    83   40   42 1    
    84   42   43 1    
    85   42   44 1    
    86   42  165 1    
    87   43  166 1    
    88   43  167 1    
    89   43  168 1    
    90   44   45 am   BACKBONE|DICT|INTERRES
    91   44  169 1    
    92   45   46 2    
    93   45   47 1    
    94   47   48 1    
    95   47   49 1    
    96   47  170 1    
    97   48  171 1    
    98   48  172 1    
    99   48  173 1    
   100   49   50 am   BACKBONE|DICT|INTERRES
   101   49  174 1    
   102   50   51 2    
   103   50   52 1    
   104   52   53 1    
   105   52   54 1    
   106   52  175 1    
   107   53  176 1    
   108   53  177 1    
   109   53  178 1    
   110   54   55 am   BACKBONE|DICT|INTERRES
   111   54  179 1    
   112   55   56 2    
   113   55   57 1    
   114   57   58 1    
   115   57   59 1    
   116   57  180 1    
   117   58  181 1    
   118   58  182 1    
   119   58  183 1    
   120   59   60 am   BACKBONE|DICT|INTERRES
   121   59  184 1    
   122   60   61 2    
   123   60   62 1    
   124   62   63 1    
   125   62   64 1    
   126   62  185 1    
   127   63  186 1    
   128   63  187 1    
   129   63  188 1    
   130   64   65 am   BACKBONE|DICT|INTERRES
   131   64  189 1    
   132   65   66 2    
   133   67   68 2    
   134   67   69 am   BACKBONE|DICT|INTERRES
   135   69   70 1    
   136   69  190 1    
   137   70   71 1    
   138   70   72 1    
   139   70  191 1    
   140   71  192 1    
   141   71  193 1    
   142   71  194 1    
   143   72   73 2    
   144   72   74 am   BACKBONE|DICT|INTERRES
   145   74   75 1    
   146   74  195 1    
   147   75   76 1    
   148   75   77 1    
   149   75  196 1    
   150   76  197 1    
   151   76  198 1    
   152   76  199 1    
   153   77   78 2    
   154   77   79 am   BACKBONE|DICT|INTERRES
   155   79   80 1    
   156   79  200 1    
   157   80   81 1    
   158   80   82 1    
   159   80  201 1    
   160   81  202 1    
   161   81  203 1    
   162   81  204 1    
   163   82   83 2    
   164   82   84 am   BACKBONE|DICT|INTERRES
   165   84   85 1    
   166   84  205 1    
   167   85   86 1    
   168   85   87 1    
   169   85  206 1    
   170   86  207 1    
   171   86  208 1    
   172   86  209 1    
   173   87   88 2    
   174   87   89 am   BACKBONE|DICT|INTERRES
   175   89   90 1    
   176   89  210 1    
   177   90   91 1    
   178   90   92 1    
   179   90  211 1    
   180   91  212 1    
   181   91  213 1    
   182   91  214 1    
   183   92   93 2    
   184   92   94 am   BACKBONE|DICT|INTERRES
   185   94   95 1    
   186   94  215 1    
   187   95   96 1    
   188   95   97 1    
   189   95  216 1    
   190   96  217 1    
   191   96  218 1    
   192   96  219 1    
   193   97   98 2    
   194   97   99 am   BACKBONE|DICT|INTERRES
   195   99  100 1    
   196   99  220 1    
   197  100  101 1    
   198  100  102 1    
   199  100  221 1    
   200  101  222 1    
   201  101  223 1    
   202  101  224 1    
   203  102  103 2    
   204  102  104 am   BACKBONE|DICT|INTERRES
   205  104  105 1    
   206  104  225 1    
   207  105  106 1    
   208  105  107 1    
   209  105  226 1    
   210  106  227 1    
   211  106  228 1    
   212  106  229 1    
   213  107  108 2    
   214  107  109 am   BACKBONE|DICT|INTERRES
   215  109  110 1    
   216  109  230 1    
   217  110  111 1    
   218  110  112 1    
   219  110  231 1    
   220  111  232 1    
   221  111  233 1    
   222  111  234 1    
   223  112  113 2    
   224  112  114 am   BACKBONE|DICT|INTERRES
   225  114  115 1    
   226  114  235 1    
   227  115  116 1    
   228  115  117 1    
   229  115  236 1    
   230  116  237 1    
   231  116  238 1    
   232  116  239 1    
   233  117  118 2    
   234  117  119 am   BACKBONE|DICT|INTERRES
   235  119  120 1    
   236  119  240 1    
   237  120  121 1    
   238  120  124 1    
   239  120  241 1    
   240  121  122 am   BACKBONE|DICT|INTERRES
   241  121  123 2    
   242  122  242 1    
   243  122  243 1    
   244  124  125 1    
   245  124  244 1    
   246  124  245 1    
   247  125  126 1    
   248  126  246 1    
   249  126  247 1    
@<TRIPOS>SUBSTRUCTURE
     1 UNK         1 GROUP             0       ****    0 ROOT    
