@<TRIPOS>MOLECULE
3R540
247   249    1
SMALL
USER_CHARGES


@<TRIPOS>ATOM
      1 CA         -3.2489  -14.6566  -52.0762 C.3       0 UNK        -0.1800 
      2 C          -2.2847  -14.5416  -50.9056 C.2       0 UNK         0.5000 
      3 O          -1.3779  -15.3630  -50.7758 O.2       0 UNK        -0.5000 
      4 N          -2.4633  -13.5219  -50.0565 N.am      1 UNK        -0.5000 
      5 CA         -1.6690  -13.2532  -48.8474 C.3       1 UNK         0.1400 
      6 C6         -2.4491  -12.4028  -47.8080 C.3       23 UNK        -0.0398 
      7 S7         -4.1182  -13.0337  -47.4207 S.3       23 UNK        -0.2404 
      8 C8         -3.8189  -14.0223  -45.9136 C.3       23 UNK        -0.0205 
      9 C9         -3.1969  -15.4012  -46.1405 C.ar      23 UNK        -0.0193 
     10 C10        -3.2988  -16.0792  -47.3618 C.ar      23 UNK        -0.1150 
     11 C11        -2.7723  -17.3636  -47.5170 C.ar      23 UNK        -0.0193 
     12 C12        -2.0968  -17.9587  -46.4502 C.ar      23 UNK        -0.1150 
     13 C13        -2.0051  -17.3094  -45.2152 C.ar      23 UNK        -0.0193 
     14 C14        -2.5555  -16.0326  -45.0703 C.ar      23 UNK        -0.1150 
     15 C15        -1.2988  -17.9753  -44.0410 C.3       23 UNK        -0.0205 
     16 S16        -2.4044  -19.0364  -43.0447 S.3       23 UNK        -0.2404 
     17 C17        -2.9525  -20.3100  -44.2316 C.3       23 UNK        -0.0398 
     18 CA         -1.7941  -21.2240  -44.7200 C.3       11 UNK         0.1400 
     19 N          -1.2718  -22.1027  -43.6727 N.am      11 UNK        -0.5000 
     20 C          -1.8293  -23.2223  -43.1932 C.2       10 UNK         0.5000 
     21 O          -2.9144  -23.6644  -43.5746 O.2       10 UNK        -0.5000 
     22 CA         -1.0440  -23.9904  -42.1184 C.3       10 UNK         0.1400 
     23 CB         -0.0479  -24.9612  -42.7709 C.3       10 UNK        -0.1800 
     24 N          -0.3112  -23.1089  -41.2047 N.am      10 UNK        -0.5000 
     25 C          -0.2731  -23.2631  -39.8733 C.2       9 UNK         0.5000 
     26 O          -0.9171  -24.1226  -39.2694 O.2       9 UNK        -0.5000 
     27 CA          0.6560  -22.3333  -39.0634 C.3       9 UNK         0.1400 
     28 CB          1.9284  -23.0863  -38.6438 C.3       9 UNK        -0.1800 
     29 N           1.0497  -21.1192  -39.7768 N.am      9 UNK        -0.5000 
     30 C           0.2482  -20.0718  -40.0052 C.2       8 UNK         0.5000 
     31 O          -0.9038  -19.9932  -39.5776 O.2       8 UNK        -0.5000 
     32 CA          0.8211  -18.9181  -40.8547 C.3       8 UNK         0.1400 
     33 CB          1.2396  -17.7476  -39.9523 C.3       8 UNK        -0.1800 
     34 N           1.9494  -19.2567  -41.7314 N.am      8 UNK        -0.5000 
     35 C           1.9875  -20.2125  -42.6703 C.2       7 UNK         0.5000 
     36 O           1.0995  -21.0528  -42.8137 O.2       7 UNK        -0.5000 
     37 CA          3.2175  -20.2296  -43.6011 C.3       7 UNK         0.1400 
     38 CB          2.9768  -21.0729  -44.8676 C.3       7 UNK        -0.1800 
     39 N           3.6096  -18.8751  -43.9975 N.am      7 UNK        -0.5000 
     40 C           4.4481  -18.0806  -43.3155 C.2       6 UNK         0.5000 
     41 O           4.9892  -18.4194  -42.2629 O.2       6 UNK        -0.5000 
     42 CA          4.7033  -16.6640  -43.8682 C.3       6 UNK         0.1400 
     43 CB          6.0370  -16.6169  -44.6282 C.3       6 UNK        -0.1800 
     44 N           3.6313  -16.1888  -44.7436 N.am      6 UNK        -0.5000 
     45 C           2.4092  -15.8305  -44.3201 C.2       5 UNK         0.5000 
     46 O           2.0865  -15.7934  -43.1328 O.2       5 UNK        -0.5000 
     47 CA          1.3582  -15.4852  -45.3944 C.3       5 UNK         0.1400 
     48 CB          1.1563  -13.9669  -45.4984 C.3       5 UNK        -0.1800 
     49 N           1.6647  -16.0314  -46.7185 N.am      5 UNK        -0.5000 
     50 C           1.6994  -17.3422  -47.0074 C.2       4 UNK         0.5000 
     51 O           1.4804  -18.2246  -46.1783 O.2       4 UNK        -0.5000 
     52 CA          2.0800  -17.7472  -48.4445 C.3       4 UNK         0.1400 
     53 CB          0.8087  -17.9607  -49.2745 C.3       4 UNK        -0.1800 
     54 N           2.9295  -16.7783  -49.1354 N.am      4 UNK        -0.5000 
     55 C           4.1372  -16.3568  -48.7336 C.2       3 UNK         0.5000 
     56 O           4.7207  -16.7979  -47.7439 O.2       3 UNK        -0.5000 
     57 CA          4.7668  -15.2029  -49.5424 C.3       3 UNK         0.1400 
     58 CB          5.7647  -15.7506  -50.5734 C.3       3 UNK        -0.1800 
     59 N           3.7804  -14.3576  -50.2294 N.am      3 UNK        -0.5000 
     60 C           2.8066  -13.6626  -49.6226 C.2       2 UNK         0.5000 
     61 O           2.6631  -13.6470  -48.3990 O.2       2 UNK        -0.5000 
     62 CA          1.7994  -12.9076  -50.5140 C.3       2 UNK         0.1400 
     63 CB          1.9483  -13.2021  -52.0204 C.3       2 UNK        -0.1800 
     64 N           0.4413  -13.2589  -50.1070 N.am      2 UNK        -0.5000 
     65 C          -0.2918  -12.6274  -49.1834 C.2       1 UNK         0.5000 
     66 O           0.0708  -11.5895  -48.6260 O.2       1 UNK        -0.5000 
     67 C          -2.1019  -22.0092  -46.0108 C.2       11 UNK         0.5000 
     68 O          -1.1689  -22.5389  -46.6178 O.2       11 UNK        -0.5000 
     69 N          -3.3814  -22.0916  -46.4034 N.am      12 UNK        -0.5000 
     70 CA         -3.8596  -22.7298  -47.6305 C.3       12 UNK         0.1400 
     71 CB         -5.3893  -22.6084  -47.6987 C.3       12 UNK        -0.1800 
     72 C          -3.4377  -24.2006  -47.7943 C.2       12 UNK         0.5000 
     73 O          -3.2239  -24.6340  -48.9261 O.2       12 UNK        -0.5000 
     74 N          -3.2909  -24.9231  -46.6752 N.am      13 UNK        -0.5000 
     75 CA         -2.8457  -26.3166  -46.6442 C.3       13 UNK         0.1400 
     76 CB         -3.1093  -26.8972  -45.2467 C.3       13 UNK        -0.1800 
     77 C          -1.3671  -26.4993  -47.0415 C.2       13 UNK         0.5000 
     78 O          -1.0168  -27.5539  -47.5720 O.2       13 UNK        -0.5000 
     79 N          -0.5337  -25.4798  -46.7927 N.am      14 UNK        -0.5000 
     80 CA          0.8792  -25.4576  -47.1744 C.3       14 UNK         0.1400 
     81 CB          1.6931  -24.7568  -46.0761 C.3       14 UNK        -0.1800 
     82 C           1.0836  -24.7532  -48.5245 C.2       14 UNK         0.5000 
     83 O           1.8932  -25.2062  -49.3337 O.2       14 UNK        -0.5000 
     84 N           0.3441  -23.6589  -48.7435 N.am      15 UNK        -0.5000 
     85 CA          0.4471  -22.7956  -49.9194 C.3       15 UNK         0.1400 
     86 CB         -0.1261  -21.4186  -49.5505 C.3       15 UNK        -0.1800 
     87 C          -0.2617  -23.3420  -51.1729 C.2       15 UNK         0.5000 
     88 O          -0.1579  -22.7158  -52.2280 O.2       15 UNK        -0.5000 
     89 N          -1.0198  -24.4417  -51.0354 N.am      16 UNK        -0.5000 
     90 CA         -1.9224  -25.0206  -52.0424 C.3       16 UNK         0.1400 
     91 CB         -1.1276  -25.6117  -53.2249 C.3       16 UNK        -0.1800 
     92 C          -2.9993  -24.0031  -52.4774 C.2       16 UNK         0.5000 
     93 O          -3.2508  -23.8126  -53.6687 O.2       16 UNK        -0.5000 
     94 N          -3.5522  -23.3100  -51.4714 N.am      17 UNK        -0.5000 
     95 CA         -4.4940  -22.1877  -51.5469 C.3       17 UNK         0.1400 
     96 CB         -5.8287  -22.6561  -52.1566 C.3       17 UNK        -0.1800 
     97 C          -3.9367  -20.9242  -52.2442 C.2       17 UNK         0.5000 
     98 O          -4.7070  -20.0072  -52.5311 O.2       17 UNK        -0.5000 
     99 N          -2.6214  -20.8880  -52.5168 N.am      18 UNK        -0.5000 
    100 CA        -1.8728  -19.8094  -53.1758 C.3       18 UNK         0.1400 
    101 CB        -1.7943  -18.5760  -52.2530 C.3       18 UNK        -0.1800 
    102 C         -2.3911  -19.4531  -54.5878 C.2       18 UNK         0.5000 
    103 O         -2.1921  -18.3258  -55.0427 O.2       18 UNK        -0.5000 
    104 N         -3.0862  -20.4007  -55.2380 N.am      19 UNK        -0.5000 
    105 CA        -3.8092  -20.3197  -56.5176 C.3       19 UNK         0.1400 
    106 CB        -2.8514  -20.0077  -57.6827 C.3       19 UNK        -0.1800 
    107 C         -5.0203  -19.3587  -56.5231 C.2       19 UNK         0.5000 
    108 O         -6.0403  -19.6759  -57.1351 O.2       19 UNK        -0.5000 
    109 N         -4.9002  -18.2167  -55.8376 N.am      20 UNK        -0.5000 
    110 CA        -5.9071  -17.1618  -55.7128 C.3       20 UNK         0.1400 
    111 CB        -5.1858  -15.8595  -55.3289 C.3       20 UNK        -0.1800 
    112 C         -7.0310  -17.4741  -54.7017 C.2       20 UNK         0.5000 
    113 O         -7.9689  -16.6828  -54.5984 O.2       20 UNK        -0.5000 
    114 N         -6.9149  -18.5946  -53.9739 N.am      21 UNK        -0.5000 
    115 CA        -7.7785  -19.0436  -52.8756 C.3       21 UNK         0.1400 
    116 CB        -9.2517  -19.1957  -53.3124 C.3       21 UNK        -0.1800 
    117 C         -7.5878  -18.1975  -51.6000 C.2       21 UNK         0.5000 
    118 O         -8.5548  -17.9328  -50.8829 O.2       21 UNK        -0.5000 
    119 N         -6.3305  -17.8101  -51.3413 N.am      22 UNK        -0.5000 
    120 CA        -5.8753  -16.9850  -50.2107 C.3       22 UNK         0.1400 
    121 C         -6.6173  -15.6145  -50.1006 C.2       22 UNK         0.5000 
    122 N         -6.9049  -15.1036  -48.9100 N.am      22 UNK        -0.7600 
    123 O         -6.8801  -14.9641  -51.1092 O.2       22 UNK        -0.5000 
    124 C124       -5.7836  -17.8041  -48.8894 C.3       23 UNK        -0.0398 
    125 S125       -4.4739  -19.0798  -48.9331 S.3       23 UNK        -0.2404 
    126 C126       -2.9322  -18.1045  -48.8369 C.3       23 UNK        -0.0205 
    127 H127       -3.5531  -15.6939  -52.2111 H         1 UNK         0.0600 
    128 H128       -2.7649  -14.3238  -52.9942 H         1 UNK         0.0600 
    129 H129       -4.1462  -14.0569  -51.9214 H         1 UNK         0.0600 
    130 H130       -3.2161  -12.8700  -50.2249 H         1 UNK         0.3000 
    131 H131       -1.4490  -14.2118  -48.3736 H         1 UNK         0.0600 
    132 H132       -2.5740  -11.3830  -48.1761 H         1 UNK         0.0800 
    133 H133       -1.8785  -12.3182  -46.8816 H         1 UNK         0.0800 
    134 H134       -4.7773  -14.1695  -45.4143 H         1 UNK         0.0800 
    135 H135       -3.2036  -13.4418  -45.2246 H         1 UNK         0.0800 
    136 H136       -3.8075  -15.6218  -48.1970 H         1 UNK         0.1150 
    137 H137       -1.6613  -18.9382  -46.5783 H         1 UNK         0.1150 
    138 H138       -2.4885  -15.5301  -44.1155 H         1 UNK         0.1150 
    139 H139       -0.4365  -18.5439  -44.3868 H         1 UNK         0.0800 
    140 H140       -0.8877  -17.2076  -43.3839 H         1 UNK         0.0800 
    141 H141       -3.4464  -19.7961  -45.0562 H         1 UNK         0.0800 
    142 H142       -3.7280  -20.9064  -43.7486 H         1 UNK         0.0800 
    143 H143       -0.9526  -20.5927  -44.9998 H         1 UNK         0.0600 
    144 H144       -0.3594  -21.8188  -43.3207 H         1 UNK         0.3000 
    145 H145       -1.7813  -24.5787  -41.5683 H         1 UNK         0.0600 
    146 H146        0.3854  -25.6341  -42.0308 H         1 UNK         0.0600 
    147 H147        0.7697  -24.4201  -43.2470 H         1 UNK         0.0600 
    148 H148       -0.5260  -25.5781  -43.5319 H         1 UNK         0.0600 
    149 H149        0.2284  -22.3591  -41.6246 H         1 UNK         0.3000 
    150 H150        0.1188  -22.0426  -38.1581 H         1 UNK         0.0600 
    151 H151        1.6829  -23.9836  -38.0743 H         1 UNK         0.0600 
    152 H152        2.5639  -22.4663  -38.0110 H         1 UNK         0.0600 
    153 H153        2.5151  -23.3974  -39.5091 H         1 UNK         0.0600 
    154 H154        1.9804  -21.1005  -40.1664 H         1 UNK         0.3000 
    155 H155        0.0139  -18.5701  -41.4976 H         1 UNK         0.0600 
    156 H156        0.4181  -17.4364  -39.3055 H         1 UNK         0.0600 
    157 H157        1.5310  -16.8787  -40.5430 H         1 UNK         0.0600 
    158 H158        2.0801  -18.0163  -39.3113 H         1 UNK         0.0600 
    159 H159        2.7484  -18.6401  -41.6751 H         1 UNK         0.3000 
    160 H160        4.0335  -20.6960  -43.0457 H         1 UNK         0.0600 
    161 H161        2.7943  -22.1172  -44.6116 H         1 UNK         0.0600 
    162 H162        2.1130  -20.7198  -45.4319 H         1 UNK         0.0600 
    163 H163        3.8424  -21.0497  -45.5296 H         1 UNK         0.0600 
    164 H164        3.1367  -18.5020  -44.8123 H         1 UNK         0.3000 
    165 H165        4.7745  -15.9845  -43.0163 H         1 UNK         0.0600 
    166 H166        6.2362  -15.6189  -45.0192 H         1 UNK         0.0600 
    167 H167        6.8678  -16.8815  -43.9729 H         1 UNK         0.0600 
    168 H168        6.0476  -17.3150  -45.4659 H         1 UNK         0.0600 
    169 H169        3.8174  -16.2121  -45.7388 H         1 UNK         0.3000 
    170 H170        0.4148  -15.9218  -45.0702 H         1 UNK         0.0600 
    171 H171        2.0754  -13.4581  -45.7900 H         1 UNK         0.0600 
    172 H172        0.3868  -13.7194  -46.2297 H         1 UNK         0.0600 
    173 H173        0.8406  -13.5495  -44.5415 H         1 UNK         0.0600 
    174 H174        1.9093  -15.3580  -47.4360 H         1 UNK         0.3000 
    175 H175        2.6242  -18.6920  -48.3880 H         1 UNK         0.0600 
    176 H176        0.2474  -17.0340  -49.3985 H         1 UNK         0.0600 
    177 H177        1.0385  -18.3531  -50.2651 H         1 UNK         0.0600 
    178 H178        0.1504  -18.6738  -48.7822 H         1 UNK         0.0600 
    179 H179        2.5376  -16.3525  -49.9616 H         1 UNK         0.3000 
    180 H180        5.3119  -14.5719  -48.8374 H         1 UNK         0.0600 
    181 H181        5.2701  -16.3702  -51.3226 H         1 UNK         0.0600 
    182 H182        6.5271  -16.3641  -50.0913 H         1 UNK         0.0600 
    183 H183        6.2807  -14.9424  -51.0919 H         1 UNK         0.0600 
    184 H184        3.8371  -14.3288  -51.2372 H         1 UNK         0.3000 
    185 H185        1.9688  -11.8401  -50.3602 H         1 UNK         0.0600 
    186 H186        1.8133  -14.2612  -52.2451 H         1 UNK         0.0600 
    187 H187        1.2065  -12.6490  -52.5971 H         1 UNK         0.0600 
    188 H188        2.9274  -12.8973  -52.3920 H         1 UNK         0.0600 
    189 H189        0.0499  -14.1115  -50.4977 H         1 UNK         0.3000 
    190 H190       -4.0931  -21.6718  -45.8246 H         1 UNK         0.3000 
    191 H191       -3.4319  -22.1736  -48.4661 H         1 UNK         0.0600 
    192 H192       -5.7063  -21.5657  -47.6945 H         1 UNK         0.0600 
    193 H193       -5.8688  -23.1069  -46.8554 H         1 UNK         0.0600 
    194 H194       -5.7805  -23.0615  -48.6107 H         1 UNK         0.0600 
    195 H195       -3.4591  -24.4772  -45.7822 H         1 UNK         0.3000 
    196 H196       -3.4470  -26.8783  -47.3622 H         1 UNK         0.0600 
    197 H197       -4.1709  -26.8651  -45.0015 H         1 UNK         0.0600 
    198 H198       -2.5722  -26.3480  -44.4738 H         1 UNK         0.0600 
    199 H199       -2.7944  -27.9399  -45.1893 H         1 UNK         0.0600 
    200 H200       -0.9119  -24.6225  -46.4084 H         1 UNK         0.3000 
    201 H201        1.2611  -26.4762  -47.2715 H         1 UNK         0.0600 
    202 H202        1.7026  -25.3529  -45.1647 H         1 UNK         0.0600 
    203 H203        1.2890  -23.7724  -45.8358 H         1 UNK         0.0600 
    204 H204        2.7319  -24.6216  -46.3800 H         1 UNK         0.0600 
    205 H205       -0.2657  -23.3268  -47.9999 H         1 UNK         0.3000 
    206 H206        1.5026  -22.6705  -50.1695 H         1 UNK         0.0600 
    207 H207        0.3747  -21.0119  -48.6717 H         1 UNK         0.0600 
    208 H208       -1.1936  -21.4689  -49.3335 H         1 UNK         0.0600 
    209 H209        0.0107  -20.7069  -50.3651 H         1 UNK         0.0600 
    210 H210       -1.0825  -24.8477  -50.1117 H         1 UNK         0.3000 
    211 H211       -2.4507  -25.8402  -51.5532 H         1 UNK         0.0600 
    212 H212       -0.6128  -24.8399  -53.7977 H         1 UNK         0.0600 
    213 H213       -1.7891  -26.1403  -53.9121 H         1 UNK         0.0600 
    214 H214       -0.3809  -26.3261  -52.8786 H         1 UNK         0.0600 
    215 H215       -3.2985  -23.6083  -50.5336 H         1 UNK         0.3000 
    216 H216       -4.6914  -21.8915  -50.5173 H         1 UNK         0.0600 
    217 H217       -6.6270  -21.9545  -51.9260 H         1 UNK         0.0600 
    218 H218       -6.1331  -23.6209  -51.7506 H         1 UNK         0.0600 
    219 H219       -5.7691  -22.7518  -53.2414 H         1 UNK         0.0600 
    220 H220       -2.0675  -21.7055  -52.2925 H         1 UNK         0.3000 
    221 H221       -0.8577  -20.1832  -53.3151 H         1 UNK         0.0600 
    222 H222       -2.7750  -18.1288  -52.0907 H         1 UNK         0.0600 
    223 H223       -1.3805  -18.8411  -51.2816 H         1 UNK         0.0600 
    224 H224       -1.1490  -17.8034  -52.6727 H         1 UNK         0.0600 
    225 H225       -3.1974  -21.2801  -54.7505 H         1 UNK         0.3000 
    226 H226       -4.2109  -21.3202  -56.6859 H         1 UNK         0.0600 
    227 H227       -2.0293  -20.7223  -57.7193 H         1 UNK         0.0600 
    228 H228       -3.3732  -20.0633  -58.6389 H         1 UNK         0.0600 
    229 H229       -2.4243  -19.0076  -57.6050 H         1 UNK         0.0600 
    230 H230       -3.9988  -18.0404  -55.4017 H         1 UNK         0.3000 
    231 H231       -6.3791  -17.0176  -56.6867 H         1 UNK         0.0600 
    232 H232       -5.8841  -15.0240  -55.2653 H         1 UNK         0.0600 
    233 H233       -4.4295  -15.5936  -56.0676 H         1 UNK         0.0600 
    234 H234       -4.6922  -15.9494  -54.3612 H         1 UNK         0.0600 
    235 H235       -6.0750  -19.1454  -54.1003 H         1 UNK         0.3000 
    236 H236       -7.4284  -20.0405  -52.6209 H         1 UNK         0.0600 
    237 H237       -9.7316  -18.2319  -53.4820 H         1 UNK         0.0600 
    238 H238       -9.3336  -19.7800  -54.2289 H         1 UNK         0.0600 
    239 H239       -9.8302  -19.7124  -52.5459 H         1 UNK         0.0600 
    240 H240       -5.6052  -18.1589  -51.9555 H         1 UNK         0.3000 
    241 H241       -4.8627  -16.6876  -50.4743 H         1 UNK         0.0600 
    242 H242       -6.6999  -15.5874  -48.0517 H         1 UNK         0.3800 
    243 H243       -7.3562  -14.2034  -48.8697 H         1 UNK         0.3800 
    244 H244       -6.7353  -18.2989  -48.6917 H         1 UNK         0.0800 
    245 H245       -5.6035  -17.1764  -48.0201 H         1 UNK         0.0800 
    246 H246       -2.1027  -18.7972  -48.9695 H         1 UNK         0.0800 
    247 H247       -2.8704  -17.4054  -49.6699 H         1 UNK         0.0800 
@<TRIPOS>BOND
     1    1    2 1    
     2    1  127 1    
     3    1  128 1    
     4    1  129 1    
     5    2    3 2    
     6    2    4 am   BACKBONE|DICT|INTERRES
     7    4    5 1    
     8    4  130 1    
     9    5    6 1    
    10    5   65 1    
    11    5  131 1    
    12    6    7 1    
    13    6  132 1    
    14    6  133 1    
    15    7    8 1    
    16    8    9 1    
    17    8  134 1    
    18    8  135 1    
    19    9   10 ar   
    20    9   14 ar   
    21   10   11 ar   
    22   10  136 1    
    23   11   12 ar   
    24   11  126 1    
    25   12   13 ar   
    26   12  137 1    
    27   13   14 ar   
    28   13   15 1    
    29   14  138 1    
    30   15   16 1    
    31   15  139 1    
    32   15  140 1    
    33   16   17 1    
    34   17   18 1    
    35   17  141 1    
    36   17  142 1    
    37   18   19 1    
    38   18   67 1    
    39   18  143 1    
    40   19   20 am   BACKBONE|DICT|INTERRES
    41   19  144 1    
    42   20   21 2    
    43   20   22 1    
    44   22   23 1    
    45   22   24 1    
    46   22  145 1    
    47   23  146 1    
    48   23  147 1    
    49   23  148 1    
    50   24   25 am   BACKBONE|DICT|INTERRES
    51   24  149 1    
    52   25   26 2    
    53   25   27 1    
    54   27   28 1    
    55   27   29 1    
    56   27  150 1    
    57   28  151 1    
    58   28  152 1    
    59   28  153 1    
    60   29   30 am   BACKBONE|DICT|INTERRES
    61   29  154 1    
    62   30   31 2    
    63   30   32 1    
    64   32   33 1    
    65   32   34 1    
    66   32  155 1    
    67   33  156 1    
    68   33  157 1    
    69   33  158 1    
    70   34   35 am   BACKBONE|DICT|INTERRES
    71   34  159 1    
    72   35   36 2    
    73   35   37 1    
    74   37   38 1    
    75   37   39 1    
    76   37  160 1    
    77   38  161 1    
    78   38  162 1    
    79   38  163 1    
    80   39   40 am   BACKBONE|DICT|INTERRES
    81   39  164 1    
    82   40   41 2    
    83   40   42 1    
    84   42   43 1    
    85   42   44 1    
    86   42  165 1    
    87   43  166 1    
    88   43  167 1    
    89   43  168 1    
    90   44   45 am   BACKBONE|DICT|INTERRES
    91   44  169 1    
    92   45   46 2    
    93   45   47 1    
    94   47   48 1    
    95   47   49 1    
    96   47  170 1    
    97   48  171 1    
    98   48  172 1    
    99   48  173 1    
   100   49   50 am   BACKBONE|DICT|INTERRES
   101   49  174 1    
   102   50   51 2    
   103   50   52 1    
   104   52   53 1    
   105   52   54 1    
   106   52  175 1    
   107   53  176 1    
   108   53  177 1    
   109   53  178 1    
   110   54   55 am   BACKBONE|DICT|INTERRES
   111   54  179 1    
   112   55   56 2    
   113   55   57 1    
   114   57   58 1    
   115   57   59 1    
   116   57  180 1    
   117   58  181 1    
   118   58  182 1    
   119   58  183 1    
   120   59   60 am   BACKBONE|DICT|INTERRES
   121   59  184 1    
   122   60   61 2    
   123   60   62 1    
   124   62   63 1    
   125   62   64 1    
   126   62  185 1    
   127   63  186 1    
   128   63  187 1    
   129   63  188 1    
   130   64   65 am   BACKBONE|DICT|INTERRES
   131   64  189 1    
   132   65   66 2    
   133   67   68 2    
   134   67   69 am   BACKBONE|DICT|INTERRES
   135   69   70 1    
   136   69  190 1    
   137   70   71 1    
   138   70   72 1    
   139   70  191 1    
   140   71  192 1    
   141   71  193 1    
   142   71  194 1    
   143   72   73 2    
   144   72   74 am   BACKBONE|DICT|INTERRES
   145   74   75 1    
   146   74  195 1    
   147   75   76 1    
   148   75   77 1    
   149   75  196 1    
   150   76  197 1    
   151   76  198 1    
   152   76  199 1    
   153   77   78 2    
   154   77   79 am   BACKBONE|DICT|INTERRES
   155   79   80 1    
   156   79  200 1    
   157   80   81 1    
   158   80   82 1    
   159   80  201 1    
   160   81  202 1    
   161   81  203 1    
   162   81  204 1    
   163   82   83 2    
   164   82   84 am   BACKBONE|DICT|INTERRES
   165   84   85 1    
   166   84  205 1    
   167   85   86 1    
   168   85   87 1    
   169   85  206 1    
   170   86  207 1    
   171   86  208 1    
   172   86  209 1    
   173   87   88 2    
   174   87   89 am   BACKBONE|DICT|INTERRES
   175   89   90 1    
   176   89  210 1    
   177   90   91 1    
   178   90   92 1    
   179   90  211 1    
   180   91  212 1    
   181   91  213 1    
   182   91  214 1    
   183   92   93 2    
   184   92   94 am   BACKBONE|DICT|INTERRES
   185   94   95 1    
   186   94  215 1    
   187   95   96 1    
   188   95   97 1    
   189   95  216 1    
   190   96  217 1    
   191   96  218 1    
   192   96  219 1    
   193   97   98 2    
   194   97   99 am   BACKBONE|DICT|INTERRES
   195   99  100 1    
   196   99  220 1    
   197  100  101 1    
   198  100  102 1    
   199  100  221 1    
   200  101  222 1    
   201  101  223 1    
   202  101  224 1    
   203  102  103 2    
   204  102  104 am   BACKBONE|DICT|INTERRES
   205  104  105 1    
   206  104  225 1    
   207  105  106 1    
   208  105  107 1    
   209  105  226 1    
   210  106  227 1    
   211  106  228 1    
   212  106  229 1    
   213  107  108 2    
   214  107  109 am   BACKBONE|DICT|INTERRES
   215  109  110 1    
   216  109  230 1    
   217  110  111 1    
   218  110  112 1    
   219  110  231 1    
   220  111  232 1    
   221  111  233 1    
   222  111  234 1    
   223  112  113 2    
   224  112  114 am   BACKBONE|DICT|INTERRES
   225  114  115 1    
   226  114  235 1    
   227  115  116 1    
   228  115  117 1    
   229  115  236 1    
   230  116  237 1    
   231  116  238 1    
   232  116  239 1    
   233  117  118 2    
   234  117  119 am   BACKBONE|DICT|INTERRES
   235  119  120 1    
   236  119  240 1    
   237  120  121 1    
   238  120  124 1    
   239  120  241 1    
   240  121  122 am   BACKBONE|DICT|INTERRES
   241  121  123 2    
   242  122  242 1    
   243  122  243 1    
   244  124  125 1    
   245  124  244 1    
   246  124  245 1    
   247  125  126 1    
   248  126  246 1    
   249  126  247 1    
@<TRIPOS>SUBSTRUCTURE
     1 UNK         1 GROUP             0       ****    0 ROOT    
