@<TRIPOS>MOLECULE
3R540
247   249    1
SMALL
USER_CHARGES


@<TRIPOS>ATOM
      1 CA         -1.8923  -14.0424  -48.4663 C.3       0 UNK        -0.1800 
      2 C          -0.3926  -13.7995  -48.3943 C.2       0 UNK         0.5000 
      3 O           0.1554  -13.7010  -47.2973 O.2       0 UNK        -0.5000 
      4 N           0.2664  -13.6966  -49.5574 N.am      1 UNK        -0.5000 
      5 CA          1.7192  -13.5308  -49.7305 C.3       1 UNK         0.1400 
      6 C6          2.5396  -14.7778  -49.3005 C.3       23 UNK        -0.0398 
      7 S7          2.0115  -16.3095  -50.1460 S.3       23 UNK        -0.2404 
      8 C8          1.2782  -17.1976  -48.7414 C.3       23 UNK        -0.0205 
      9 C9          0.7039  -18.5465  -49.1401 C.ar      23 UNK        -0.0193 
     10 C10        -0.6778  -18.7155  -49.2703 C.ar      23 UNK        -0.1150 
     11 C11        -1.2131  -19.9751  -49.5552 C.ar      23 UNK        -0.0193 
     12 C12        -0.3577  -21.0685  -49.7034 C.ar      23 UNK        -0.1150 
     13 C13         1.0248  -20.9116  -49.5871 C.ar      23 UNK        -0.0193 
     14 C14         1.5516  -19.6426  -49.3225 C.ar      23 UNK        -0.1150 
     15 C15         1.9300  -22.1310  -49.7116 C.3       23 UNK        -0.0205 
     16 S16         3.1038  -22.3328  -48.3268 S.3       23 UNK        -0.2404 
     17 C17         2.1114  -21.9244  -46.8483 C.3       23 UNK        -0.0398 
     18 CA          1.4760  -23.1450  -46.1510 C.3       11 UNK         0.1400 
     19 N           1.2320  -22.8574  -44.7391 N.am      11 UNK        -0.5000 
     20 C           0.9008  -23.7622  -43.8120 C.2       10 UNK         0.5000 
     21 O           0.7911  -24.9666  -44.0401 O.2       10 UNK        -0.5000 
     22 CA          0.6072  -23.2137  -42.4045 C.3       10 UNK         0.1400 
     23 CB          1.9095  -22.9772  -41.6248 C.3       10 UNK        -0.1800 
     24 N          -0.1648  -21.9705  -42.4492 N.am      10 UNK        -0.5000 
     25 C          -1.4435  -21.8937  -42.8431 C.2       9 UNK         0.5000 
     26 O          -2.1127  -22.8699  -43.1835 O.2       9 UNK        -0.5000 
     27 CA         -2.0657  -20.4857  -42.9000 C.3       9 UNK         0.1400 
     28 CB         -2.4732  -20.0166  -41.4953 C.3       9 UNK        -0.1800 
     29 N          -1.1832  -19.4888  -43.5106 N.am      9 UNK        -0.5000 
     30 C          -0.7469  -19.5406  -44.7775 C.2       8 UNK         0.5000 
     31 O          -1.0488  -20.4305  -45.5660 O.2       8 UNK        -0.5000 
     32 CA          0.2320  -18.4505  -45.2366 C.3       8 UNK         0.1400 
     33 CB         -0.5261  -17.1709  -45.6190 C.3       8 UNK        -0.1800 
     34 N           1.2555  -18.1413  -44.2411 N.am      8 UNK        -0.5000 
     35 C           2.1271  -19.0159  -43.7189 C.2       7 UNK         0.5000 
     36 O           2.1481  -20.2158  -43.9918 O.2       7 UNK        -0.5000 
     37 CA          3.1199  -18.4555  -42.6906 C.3       7 UNK         0.1400 
     38 CB          4.2618  -17.6988  -43.3869 C.3       7 UNK        -0.1800 
     39 N           2.4457  -17.5685  -41.7459 N.am      7 UNK        -0.5000 
     40 C           1.7118  -17.9949  -40.7095 C.2       6 UNK         0.5000 
     41 O           1.5841  -19.1805  -40.4010 O.2       6 UNK        -0.5000 
     42 CA          0.9770  -16.9135  -39.8950 C.3       6 UNK         0.1400 
     43 CB          1.8975  -16.3334  -38.8107 C.3       6 UNK        -0.1800 
     44 N           0.4569  -15.8223  -40.7224 N.am      6 UNK        -0.5000 
     45 C          -0.5159  -15.9644  -41.6326 C.2       5 UNK         0.5000 
     46 O          -1.0673  -17.0359  -41.8849 O.2       5 UNK        -0.5000 
     47 CA         -0.9233  -14.7032  -42.4159 C.3       5 UNK         0.1400 
     48 CB         -1.9135  -13.8593  -41.5996 C.3       5 UNK        -0.1800 
     49 N           0.1823  -13.8482  -42.8598 N.am      5 UNK        -0.5000 
     50 C           1.2664  -14.2310  -43.5497 C.2       4 UNK         0.5000 
     51 O           1.5821  -15.4072  -43.7285 O.2       4 UNK        -0.5000 
     52 CA          2.1070  -13.1018  -44.1785 C.3       4 UNK         0.1400 
     53 CB          3.2731  -13.6384  -45.0275 C.3       4 UNK        -0.1800 
     54 N           1.2637  -12.2575  -45.0252 N.am      4 UNK        -0.5000 
     55 C           0.5306  -11.2211  -44.6022 C.2       3 UNK         0.5000 
     56 O           0.5241  -10.8364  -43.4310 O.2       3 UNK        -0.5000 
     57 CA         -0.3773  -10.5449  -45.6508 C.3       3 UNK         0.1400 
     58 CB         -0.9368   -9.1855  -45.1809 C.3       3 UNK        -0.1800 
     59 N           0.2454  -10.4254  -46.9737 N.am      3 UNK        -0.5000 
     60 C           1.3442   -9.7298  -47.3047 C.2       2 UNK         0.5000 
     61 O           2.0145   -9.0732  -46.5059 O.2       2 UNK        -0.5000 
     62 CA          1.7340   -9.7776  -48.7989 C.3       2 UNK         0.1400 
     63 CB          3.1449   -9.2193  -49.0849 C.3       2 UNK        -0.1800 
     64 N           1.5533  -11.1138  -49.3830 N.am      2 UNK        -0.5000 
     65 C           2.2243  -12.2313  -49.0614 C.2       1 UNK         0.5000 
     66 O           3.1575  -12.2667  -48.2581 O.2       1 UNK        -0.5000 
     67 C           0.1964  -23.6364  -46.8641 C.2       11 UNK         0.5000 
     68 O           0.2605  -24.6096  -47.6127 O.2       11 UNK        -0.5000 
     69 N          -0.9531  -23.0081  -46.5758 N.am      12 UNK        -0.5000 
     70 CA         -2.2743  -23.4031  -47.0672 C.3       12 UNK         0.1400 
     71 CB         -3.3165  -22.3466  -46.6687 C.3       12 UNK        -0.1800 
     72 C          -2.7123  -24.7882  -46.5629 C.2       12 UNK         0.5000 
     73 O          -3.3084  -25.5495  -47.3246 O.2       12 UNK        -0.5000 
     74 N          -2.3908  -25.1002  -45.2992 N.am      13 UNK        -0.5000 
     75 CA         -2.6245  -26.4123  -44.6951 C.3       13 UNK         0.1400 
     76 CB         -2.3808  -26.3351  -43.1804 C.3       13 UNK        -0.1800 
     77 C          -1.7711  -27.5231  -45.3383 C.2       13 UNK         0.5000 
     78 O          -2.2346  -28.6605  -45.4308 O.2       13 UNK        -0.5000 
     79 N          -0.5572  -27.1740  -45.7876 N.am      14 UNK        -0.5000 
     80 CA          0.3263  -28.0556  -46.5461 C.3       14 UNK         0.1400 
     81 CB          1.7703  -27.5305  -46.4859 C.3       14 UNK        -0.1800 
     82 C          -0.1551  -28.2351  -47.9983 C.2       14 UNK         0.5000 
     83 O          -0.3618  -29.3722  -48.4252 O.2       14 UNK        -0.5000 
     84 N          -0.3383  -27.1237  -48.7246 N.am      15 UNK        -0.5000 
     85 CA         -0.7640  -27.0953  -50.1221 C.3       15 UNK         0.1400 
     86 CB          0.3582  -27.6220  -51.0426 C.3       15 UNK        -0.1800 
     87 C          -1.1850  -25.6698  -50.5154 C.2       15 UNK         0.5000 
     88 O          -0.3388  -24.8677  -50.9148 O.2       15 UNK        -0.5000 
     89 N          -2.4859  -25.3747  -50.4066 N.am      16 UNK        -0.5000 
     90 CA         -3.0939  -24.1438  -50.9162 C.3       16 UNK         0.1400 
     91 CB         -4.5044  -23.9917  -50.3254 C.3       16 UNK        -0.1800 
     92 C          -3.1579  -24.1304  -52.4555 C.2       16 UNK         0.5000 
     93 O          -3.2986  -25.1876  -53.0767 O.2       16 UNK        -0.5000 
     94 N          -3.0917  -22.9277  -53.0367 N.am      17 UNK        -0.5000 
     95 CA         -3.3114  -22.6795  -54.4604 C.3       17 UNK         0.1400 
     96 CB         -2.6747  -21.3294  -54.8323 C.3       17 UNK        -0.1800 
     97 C          -4.8138  -22.6767  -54.8016 C.2       17 UNK         0.5000 
     98 O          -5.6618  -22.6133  -53.9056 O.2       17 UNK        -0.5000 
     99 N          -5.1173  -22.7141  -56.1047 N.am      18 UNK        -0.5000 
    100 CA        -6.4658  -22.6110  -56.6627 C.3       18 UNK         0.1400 
    101 CB        -6.4427  -23.1324  -58.1109 C.3       18 UNK        -0.1800 
    102 C         -6.9976  -21.1658  -56.5627 C.2       18 UNK         0.5000 
    103 O         -7.0033  -20.4373  -57.5570 O.2       18 UNK        -0.5000 
    104 N         -7.4016  -20.7814  -55.3450 N.am      19 UNK        -0.5000 
    105 CA        -7.8430  -19.4485  -54.9310 C.3       19 UNK         0.1400 
    106 CB        -9.1552  -19.0459  -55.6425 C.3       19 UNK        -0.1800 
    107 C         -6.6993  -18.4192  -55.0485 C.2       19 UNK         0.5000 
    108 O         -5.6043  -18.6896  -54.5492 O.2       19 UNK        -0.5000 
    109 N         -6.9700  -17.2565  -55.6614 N.am      20 UNK        -0.5000 
    110 CA        -6.0769  -16.0994  -55.7864 C.3       20 UNK         0.1400 
    111 CB        -4.8914  -16.4213  -56.7253 C.3       20 UNK        -0.1800 
    112 C         -5.6674  -15.5835  -54.3914 C.2       20 UNK         0.5000 
    113 O         -6.5467  -15.1919  -53.6207 O.2       20 UNK        -0.5000 
    114 N         -4.3701  -15.6482  -54.0602 N.am      21 UNK        -0.5000 
    115 CA        -3.8170  -15.3288  -52.7394 C.3       21 UNK         0.1400 
    116 CB        -2.2845  -15.4293  -52.8010 C.3       21 UNK        -0.1800 
    117 C         -4.3624  -16.2173  -51.6015 C.2       21 UNK         0.5000 
    118 O         -4.3629  -15.7845  -50.4488 O.2       21 UNK        -0.5000 
    119 N         -4.8268  -17.4243  -51.9461 N.am      22 UNK        -0.5000 
    120 CA        -5.4548  -18.3857  -51.0293 C.3       22 UNK         0.1400 
    121 C         -7.0069  -18.2674  -50.9821 C.2       22 UNK         0.5000 
    122 N         -7.6337  -17.3206  -51.6736 N.am      22 UNK        -0.7600 
    123 O         -7.6612  -19.0445  -50.2929 O.2       22 UNK        -0.5000 
    124 C124       -5.0021  -19.8426  -51.3191 C.3       23 UNK        -0.0398 
    125 S125       -3.1897  -20.0095  -51.4488 S.3       23 UNK        -0.2404 
    126 C126       -2.7132  -20.1541  -49.7064 C.3       23 UNK        -0.0205 
    127 H127       -2.2614  -14.0081  -49.4915 H         1 UNK         0.0600 
    128 H128       -2.4240  -13.2870  -47.8878 H         1 UNK         0.0600 
    129 H129       -2.1316  -15.0219  -48.0519 H         1 UNK         0.0600 
    130 H130       -0.2542  -13.7833  -50.4183 H         1 UNK         0.3000 
    131 H131        1.8813  -13.3940  -50.8009 H         1 UNK         0.0600 
    132 H132        3.5959  -14.6287  -49.5302 H         1 UNK         0.0800 
    133 H133        2.4866  -14.9158  -48.2194 H         1 UNK         0.0800 
    134 H134        2.0334  -17.3405  -47.9668 H         1 UNK         0.0800 
    135 H135        0.4988  -16.5770  -48.3008 H         1 UNK         0.0800 
    136 H136       -1.3385  -17.8696  -49.1414 H         1 UNK         0.1150 
    137 H137       -0.7657  -22.0469  -49.9074 H         1 UNK         0.1150 
    138 H138        2.6200  -19.5157  -49.2181 H         1 UNK         0.1150 
    139 H139        1.3351  -23.0428  -49.7828 H         1 UNK         0.0800 
    140 H140        2.4914  -22.0605  -50.6438 H         1 UNK         0.0800 
    141 H141        2.8239  -21.4563  -46.1688 H         1 UNK         0.0800 
    142 H142        1.3666  -21.1532  -47.0401 H         1 UNK         0.0800 
    143 H143        2.1977  -23.9645  -46.1797 H         1 UNK         0.0600 
    144 H144        1.3429  -21.8887  -44.4511 H         1 UNK         0.3000 
    145 H145        0.0200  -23.9630  -41.8694 H         1 UNK         0.0600 
    146 H146        1.7041  -22.6473  -40.6063 H         1 UNK         0.0600 
    147 H147        2.4961  -23.8943  -41.5584 H         1 UNK         0.0600 
    148 H148        2.5346  -22.2206  -42.1005 H         1 UNK         0.0600 
    149 H149        0.3259  -21.1179  -42.2179 H         1 UNK         0.3000 
    150 H150       -2.9677  -20.5495  -43.5122 H         1 UNK         0.0600 
    151 H151       -3.1233  -20.7462  -41.0108 H         1 UNK         0.0600 
    152 H152       -3.0192  -19.0740  -41.5393 H         1 UNK         0.0600 
    153 H153       -1.6043  -19.8686  -40.8525 H         1 UNK         0.0600 
    154 H154       -0.9226  -18.6947  -42.9326 H         1 UNK         0.3000 
    155 H155        0.7480  -18.8201  -46.1246 H         1 UNK         0.0600 
    156 H156        0.1555  -16.3803  -45.9331 H         1 UNK         0.0600 
    157 H157       -1.1136  -16.7912  -44.7844 H         1 UNK         0.0600 
    158 H158       -1.2143  -17.3583  -46.4439 H         1 UNK         0.0600 
    159 H159        1.3331  -17.1630  -43.9683 H         1 UNK         0.3000 
    160 H160        3.5543  -19.2962  -42.1451 H         1 UNK         0.0600 
    161 H161        3.8964  -16.8434  -43.9560 H         1 UNK         0.0600 
    162 H162        4.7929  -18.3510  -44.0813 H         1 UNK         0.0600 
    163 H163        4.9898  -17.3327  -42.6630 H         1 UNK         0.0600 
    164 H164        2.4291  -16.5851  -41.9809 H         1 UNK         0.3000 
    165 H165        0.1294  -17.3934  -39.4009 H         1 UNK         0.0600 
    166 H166        2.7528  -15.8131  -39.2437 H         1 UNK         0.0600 
    167 H167        1.3620  -15.6287  -38.1743 H         1 UNK         0.0600 
    168 H168        2.2855  -17.1225  -38.1652 H         1 UNK         0.0600 
    169 H169        0.8657  -14.9087  -40.5911 H         1 UNK         0.3000 
    170 H170       -1.4409  -15.0370  -43.3160 H         1 UNK         0.0600 
    171 H171       -2.7629  -14.4601  -41.2712 H         1 UNK         0.0600 
    172 H172       -1.4448  -13.4380  -40.7094 H         1 UNK         0.0600 
    173 H173       -2.3109  -13.0345  -42.1915 H         1 UNK         0.0600 
    174 H174        0.0387  -12.8507  -42.7598 H         1 UNK         0.3000 
    175 H175        2.5281  -12.5080  -43.3649 H         1 UNK         0.0600 
    176 H176        3.8570  -12.8226  -45.4541 H         1 UNK         0.0600 
    177 H177        3.9513  -14.2448  -44.4261 H         1 UNK         0.0600 
    178 H178        2.9167  -14.2581  -45.8514 H         1 UNK         0.0600 
    179 H179        1.1232  -12.5871  -45.9762 H         1 UNK         0.3000 
    180 H180       -1.2269  -11.2171  -45.7804 H         1 UNK         0.0600 
    181 H181       -1.5909   -8.7464  -45.9342 H         1 UNK         0.0600 
    182 H182       -1.5251   -9.2986  -44.2695 H         1 UNK         0.0600 
    183 H183       -0.1415   -8.4705  -44.9686 H         1 UNK         0.0600 
    184 H184       -0.2001  -10.9570  -47.7069 H         1 UNK         0.3000 
    185 H185        1.0233   -9.1273  -49.3111 H         1 UNK         0.0600 
    186 H186        3.3828   -9.2732  -50.1472 H         1 UNK         0.0600 
    187 H187        3.2147   -8.1716  -48.7905 H         1 UNK         0.0600 
    188 H188        3.9180   -9.7605  -48.5391 H         1 UNK         0.0600 
    189 H189        0.7978  -11.1975  -50.0491 H         1 UNK         0.3000 
    190 H190       -0.9262  -22.1644  -46.0055 H         1 UNK         0.3000 
    191 H191       -2.2197  -23.4421  -48.1555 H         1 UNK         0.0600 
    192 H192       -4.2973  -22.5885  -47.0795 H         1 UNK         0.0600 
    193 H193       -3.0447  -21.3580  -47.0347 H         1 UNK         0.0600 
    194 H194       -3.4222  -22.2765  -45.5857 H         1 UNK         0.0600 
    195 H195       -1.9528  -24.3970  -44.7155 H         1 UNK         0.3000 
    196 H196       -3.6737  -26.6702  -44.8537 H         1 UNK         0.0600 
    197 H197       -2.5950  -27.2918  -42.7025 H         1 UNK         0.0600 
    198 H198       -3.0238  -25.5877  -42.7152 H         1 UNK         0.0600 
    199 H199       -1.3477  -26.0779  -42.9483 H         1 UNK         0.0600 
    200 H200       -0.2400  -26.2245  -45.6384 H         1 UNK         0.3000 
    201 H201        0.3179  -29.0382  -46.0694 H         1 UNK         0.0600 
    202 H202        2.1176  -27.4551  -45.4552 H         1 UNK         0.0600 
    203 H203        1.8711  -26.5464  -46.9420 H         1 UNK         0.0600 
    204 H204        2.4495  -28.2036  -47.0103 H         1 UNK         0.0600 
    205 H205       -0.1506  -26.2129  -48.3034 H         1 UNK         0.3000 
    206 H206       -1.6333  -27.7464  -50.2359 H         1 UNK         0.0600 
    207 H207        0.5591  -28.6790  -50.8698 H         1 UNK         0.0600 
    208 H208        0.0823  -27.5169  -52.0926 H         1 UNK         0.0600 
    209 H209        1.2902  -27.0760  -50.8911 H         1 UNK         0.0600 
    210 H210       -3.1203  -26.0732  -50.0469 H         1 UNK         0.3000 
    211 H211       -2.4913  -23.2969  -50.5889 H         1 UNK         0.0600 
    212 H212       -5.1491  -24.8252  -50.6068 H         1 UNK         0.0600 
    213 H213       -4.9803  -23.0768  -50.6810 H         1 UNK         0.0600 
    214 H214       -4.4790  -23.9408  -49.2378 H         1 UNK         0.0600 
    215 H215       -3.0272  -22.1020  -52.4560 H         1 UNK         0.3000 
    216 H216       -2.8230  -23.4681  -55.0368 H         1 UNK         0.0600 
    217 H217       -2.6899  -21.1717  -55.9112 H         1 UNK         0.0600 
    218 H218       -1.6333  -21.2791  -54.5136 H         1 UNK         0.0600 
    219 H219       -3.2066  -20.4927  -54.3775 H         1 UNK         0.0600 
    220 H220       -4.3640  -22.7348  -56.7767 H         1 UNK         0.3000 
    221 H221       -7.1360  -23.2554  -56.0895 H         1 UNK         0.0600 
    222 H222       -5.7583  -22.5595  -58.7379 H         1 UNK         0.0600 
    223 H223       -6.1351  -24.1776  -58.1479 H         1 UNK         0.0600 
    224 H224       -7.4333  -23.0703  -58.5631 H         1 UNK         0.0600 
    225 H225       -7.2243  -21.4332  -54.5879 H         1 UNK         0.3000 
    226 H226       -8.0627  -19.5243  -53.8652 H         1 UNK         0.0600 
    227 H227       -9.9169  -19.8152  -55.5154 H         1 UNK         0.0600 
    228 H228       -9.5633  -18.1249  -55.2245 H         1 UNK         0.0600 
    229 H229       -9.0167  -18.8942  -56.7134 H         1 UNK         0.0600 
    230 H230       -7.9056  -17.1207  -56.0166 H         1 UNK         0.3000 
    231 H231       -6.6589  -15.3013  -56.2494 H         1 UNK         0.0600 
    232 H232       -4.2612  -15.5442  -56.8779 H         1 UNK         0.0600 
    233 H233       -5.2504  -16.7301  -57.7071 H         1 UNK         0.0600 
    234 H234       -4.2604  -17.2241  -56.3427 H         1 UNK         0.0600 
    235 H235       -3.7218  -16.0142  -54.7421 H         1 UNK         0.3000 
    236 H236       -4.0864  -14.2968  -52.5058 H         1 UNK         0.0600 
    237 H237       -1.9592  -16.4379  -53.0600 H         1 UNK         0.0600 
    238 H238       -1.8716  -14.7415  -53.5391 H         1 UNK         0.0600 
    239 H239       -1.8362  -15.1801  -51.8384 H         1 UNK         0.0600 
    240 H240       -4.8110  -17.7044  -52.9209 H         1 UNK         0.3000 
    241 H241       -5.1272  -18.1544  -50.0147 H         1 UNK         0.0600 
    242 H242       -7.1197  -16.6427  -52.2237 H         1 UNK         0.3800 
    243 H243       -8.6368  -17.2507  -51.6107 H         1 UNK         0.3800 
    244 H244       -5.3657  -20.5219  -50.5464 H         1 UNK         0.0800 
    245 H245       -5.4333  -20.1933  -52.2584 H         1 UNK         0.0800 
    246 H246       -3.2399  -19.4088  -49.1089 H         1 UNK         0.0800 
    247 H247       -3.0207  -21.1315  -49.3356 H         1 UNK         0.0800 
@<TRIPOS>BOND
     1    1    2 1    
     2    1  127 1    
     3    1  128 1    
     4    1  129 1    
     5    2    3 2    
     6    2    4 am   BACKBONE|DICT|INTERRES
     7    4    5 1    
     8    4  130 1    
     9    5    6 1    
    10    5   65 1    
    11    5  131 1    
    12    6    7 1    
    13    6  132 1    
    14    6  133 1    
    15    7    8 1    
    16    8    9 1    
    17    8  134 1    
    18    8  135 1    
    19    9   10 ar   
    20    9   14 ar   
    21   10   11 ar   
    22   10  136 1    
    23   11   12 ar   
    24   11  126 1    
    25   12   13 ar   
    26   12  137 1    
    27   13   14 ar   
    28   13   15 1    
    29   14  138 1    
    30   15   16 1    
    31   15  139 1    
    32   15  140 1    
    33   16   17 1    
    34   17   18 1    
    35   17  141 1    
    36   17  142 1    
    37   18   19 1    
    38   18   67 1    
    39   18  143 1    
    40   19   20 am   BACKBONE|DICT|INTERRES
    41   19  144 1    
    42   20   21 2    
    43   20   22 1    
    44   22   23 1    
    45   22   24 1    
    46   22  145 1    
    47   23  146 1    
    48   23  147 1    
    49   23  148 1    
    50   24   25 am   BACKBONE|DICT|INTERRES
    51   24  149 1    
    52   25   26 2    
    53   25   27 1    
    54   27   28 1    
    55   27   29 1    
    56   27  150 1    
    57   28  151 1    
    58   28  152 1    
    59   28  153 1    
    60   29   30 am   BACKBONE|DICT|INTERRES
    61   29  154 1    
    62   30   31 2    
    63   30   32 1    
    64   32   33 1    
    65   32   34 1    
    66   32  155 1    
    67   33  156 1    
    68   33  157 1    
    69   33  158 1    
    70   34   35 am   BACKBONE|DICT|INTERRES
    71   34  159 1    
    72   35   36 2    
    73   35   37 1    
    74   37   38 1    
    75   37   39 1    
    76   37  160 1    
    77   38  161 1    
    78   38  162 1    
    79   38  163 1    
    80   39   40 am   BACKBONE|DICT|INTERRES
    81   39  164 1    
    82   40   41 2    
    83   40   42 1    
    84   42   43 1    
    85   42   44 1    
    86   42  165 1    
    87   43  166 1    
    88   43  167 1    
    89   43  168 1    
    90   44   45 am   BACKBONE|DICT|INTERRES
    91   44  169 1    
    92   45   46 2    
    93   45   47 1    
    94   47   48 1    
    95   47   49 1    
    96   47  170 1    
    97   48  171 1    
    98   48  172 1    
    99   48  173 1    
   100   49   50 am   BACKBONE|DICT|INTERRES
   101   49  174 1    
   102   50   51 2    
   103   50   52 1    
   104   52   53 1    
   105   52   54 1    
   106   52  175 1    
   107   53  176 1    
   108   53  177 1    
   109   53  178 1    
   110   54   55 am   BACKBONE|DICT|INTERRES
   111   54  179 1    
   112   55   56 2    
   113   55   57 1    
   114   57   58 1    
   115   57   59 1    
   116   57  180 1    
   117   58  181 1    
   118   58  182 1    
   119   58  183 1    
   120   59   60 am   BACKBONE|DICT|INTERRES
   121   59  184 1    
   122   60   61 2    
   123   60   62 1    
   124   62   63 1    
   125   62   64 1    
   126   62  185 1    
   127   63  186 1    
   128   63  187 1    
   129   63  188 1    
   130   64   65 am   BACKBONE|DICT|INTERRES
   131   64  189 1    
   132   65   66 2    
   133   67   68 2    
   134   67   69 am   BACKBONE|DICT|INTERRES
   135   69   70 1    
   136   69  190 1    
   137   70   71 1    
   138   70   72 1    
   139   70  191 1    
   140   71  192 1    
   141   71  193 1    
   142   71  194 1    
   143   72   73 2    
   144   72   74 am   BACKBONE|DICT|INTERRES
   145   74   75 1    
   146   74  195 1    
   147   75   76 1    
   148   75   77 1    
   149   75  196 1    
   150   76  197 1    
   151   76  198 1    
   152   76  199 1    
   153   77   78 2    
   154   77   79 am   BACKBONE|DICT|INTERRES
   155   79   80 1    
   156   79  200 1    
   157   80   81 1    
   158   80   82 1    
   159   80  201 1    
   160   81  202 1    
   161   81  203 1    
   162   81  204 1    
   163   82   83 2    
   164   82   84 am   BACKBONE|DICT|INTERRES
   165   84   85 1    
   166   84  205 1    
   167   85   86 1    
   168   85   87 1    
   169   85  206 1    
   170   86  207 1    
   171   86  208 1    
   172   86  209 1    
   173   87   88 2    
   174   87   89 am   BACKBONE|DICT|INTERRES
   175   89   90 1    
   176   89  210 1    
   177   90   91 1    
   178   90   92 1    
   179   90  211 1    
   180   91  212 1    
   181   91  213 1    
   182   91  214 1    
   183   92   93 2    
   184   92   94 am   BACKBONE|DICT|INTERRES
   185   94   95 1    
   186   94  215 1    
   187   95   96 1    
   188   95   97 1    
   189   95  216 1    
   190   96  217 1    
   191   96  218 1    
   192   96  219 1    
   193   97   98 2    
   194   97   99 am   BACKBONE|DICT|INTERRES
   195   99  100 1    
   196   99  220 1    
   197  100  101 1    
   198  100  102 1    
   199  100  221 1    
   200  101  222 1    
   201  101  223 1    
   202  101  224 1    
   203  102  103 2    
   204  102  104 am   BACKBONE|DICT|INTERRES
   205  104  105 1    
   206  104  225 1    
   207  105  106 1    
   208  105  107 1    
   209  105  226 1    
   210  106  227 1    
   211  106  228 1    
   212  106  229 1    
   213  107  108 2    
   214  107  109 am   BACKBONE|DICT|INTERRES
   215  109  110 1    
   216  109  230 1    
   217  110  111 1    
   218  110  112 1    
   219  110  231 1    
   220  111  232 1    
   221  111  233 1    
   222  111  234 1    
   223  112  113 2    
   224  112  114 am   BACKBONE|DICT|INTERRES
   225  114  115 1    
   226  114  235 1    
   227  115  116 1    
   228  115  117 1    
   229  115  236 1    
   230  116  237 1    
   231  116  238 1    
   232  116  239 1    
   233  117  118 2    
   234  117  119 am   BACKBONE|DICT|INTERRES
   235  119  120 1    
   236  119  240 1    
   237  120  121 1    
   238  120  124 1    
   239  120  241 1    
   240  121  122 am   BACKBONE|DICT|INTERRES
   241  121  123 2    
   242  122  242 1    
   243  122  243 1    
   244  124  125 1    
   245  124  244 1    
   246  124  245 1    
   247  125  126 1    
   248  126  246 1    
   249  126  247 1    
@<TRIPOS>SUBSTRUCTURE
     1 UNK         1 GROUP             0       ****    0 ROOT    
