@<TRIPOS>MOLECULE
3R540
247   249    1
SMALL
USER_CHARGES


@<TRIPOS>ATOM
      1 CA         -8.7691  -13.4611  -48.3288 C.3       0 UNK        -0.1800 
      2 C          -7.4360  -12.7301  -48.4096 C.2       0 UNK         0.5000 
      3 O          -7.3855  -11.5213  -48.1792 O.2       0 UNK        -0.5000 
      4 N          -6.3613  -13.4554  -48.7436 N.am      1 UNK        -0.5000 
      5 CA         -4.9886  -12.9418  -48.8005 C.3       1 UNK         0.1400 
      6 C6         -4.0828  -13.8627  -49.6574 C.3       23 UNK        -0.0398 
      7 S7         -2.7708  -12.9351  -50.5258 S.3       23 UNK        -0.2404 
      8 C8         -1.2585  -13.5521  -49.7211 C.3       23 UNK        -0.0205 
      9 C9         -0.9974  -15.0162  -50.0391 C.ar      23 UNK        -0.0193 
     10 C10        -0.5733  -15.3908  -51.3159 C.ar      23 UNK        -0.1150 
     11 C11        -0.3293  -16.7326  -51.6203 C.ar      23 UNK        -0.0193 
     12 C12        -0.5039  -17.7055  -50.6300 C.ar      23 UNK        -0.1150 
     13 C13        -0.9424  -17.3438  -49.3523 C.ar      23 UNK        -0.0193 
     14 C14        -1.1800  -15.9970  -49.0612 C.ar      23 UNK        -0.1150 
     15 C15        -1.1461  -18.3960  -48.2747 C.3       23 UNK        -0.0205 
     16 S16        -2.7572  -19.2268  -48.4147 S.3       23 UNK        -0.2404 
     17 C17        -2.9939  -19.8801  -46.7223 C.3       23 UNK        -0.0398 
     18 CA         -2.6449  -21.3862  -46.5988 C.3       11 UNK         0.1400 
     19 N          -1.2242  -21.6235  -46.3236 N.am      11 UNK        -0.5000 
     20 C          -0.6334  -22.8264  -46.3674 C.2       10 UNK         0.5000 
     21 O          -1.2193  -23.8626  -46.6767 O.2       10 UNK        -0.5000 
     22 CA          0.8426  -22.8978  -45.9396 C.3       10 UNK         0.1400 
     23 CB          1.7639  -22.3260  -47.0282 C.3       10 UNK        -0.1800 
     24 N           1.0882  -22.2230  -44.6642 N.am      10 UNK        -0.5000 
     25 C           0.5537  -22.6001  -43.4934 C.2       9 UNK         0.5000 
     26 O          -0.1849  -23.5755  -43.3606 O.2       9 UNK        -0.5000 
     27 CA          0.8610  -21.7200  -42.2696 C.3       9 UNK         0.1400 
     28 CB          2.2284  -22.0730  -41.6656 C.3       9 UNK        -0.1800 
     29 N           0.8149  -20.2939  -42.5869 N.am      9 UNK        -0.5000 
     30 C          -0.3044  -19.6249  -42.8979 C.2       8 UNK         0.5000 
     31 O          -1.4249  -20.1327  -42.9243 O.2       8 UNK        -0.5000 
     32 CA         -0.1300  -18.1501  -43.3041 C.3       8 UNK         0.1400 
     33 CB          0.0247  -17.2699  -42.0555 C.3       8 UNK        -0.1800 
     34 N           1.0060  -17.9297  -44.2031 N.am      8 UNK        -0.5000 
     35 C           1.1795  -18.5544  -45.3770 C.2       7 UNK         0.5000 
     36 O           0.3922  -19.3830  -45.8279 O.2       7 UNK        -0.5000 
     37 CA          2.4738  -18.2580  -46.1504 C.3       7 UNK         0.1400 
     38 CB          2.3584  -16.9317  -46.9141 C.3       7 UNK        -0.1800 
     39 N           3.6502  -18.2294  -45.2834 N.am      7 UNK        -0.5000 
     40 C           4.0919  -19.2464  -44.5322 C.2       6 UNK         0.5000 
     41 O           3.5528  -20.3538  -44.5084 O.2       6 UNK        -0.5000 
     42 CA          5.3088  -18.9813  -43.6207 C.3       6 UNK         0.1400 
     43 CB          6.6321  -19.2327  -44.3680 C.3       6 UNK        -0.1800 
     44 N           5.2935  -17.6668  -42.9583 N.am      6 UNK        -0.5000 
     45 C           5.4137  -16.4486  -43.5043 C.2       5 UNK         0.5000 
     46 O           5.6414  -16.2417  -44.6986 O.2       5 UNK        -0.5000 
     47 CA          5.1895  -15.2548  -42.5570 C.3       5 UNK         0.1400 
     48 CB          6.5288  -14.6016  -42.1842 C.3       5 UNK        -0.1800 
     49 N           4.3032  -14.2410  -43.1363 N.am      5 UNK        -0.5000 
     50 C           3.0542  -14.4600  -43.5702 C.2       4 UNK         0.5000 
     51 O           2.4980  -15.5618  -43.5329 O.2       4 UNK        -0.5000 
     52 CA          2.3159  -13.2414  -44.1596 C.3       4 UNK         0.1400 
     53 CB          2.7457  -12.9828  -45.6123 C.3       4 UNK        -0.1800 
     54 N           0.8643  -13.4139  -44.1243 N.am      4 UNK        -0.5000 
     55 C           0.1168  -13.3932  -43.0152 C.2       3 UNK         0.5000 
     56 O           0.5594  -13.1088  -41.9003 O.2       3 UNK        -0.5000 
     57 CA         -1.3787  -13.7218  -43.2014 C.3       3 UNK         0.1400 
     58 CB         -2.1342  -13.8400  -41.8652 C.3       3 UNK        -0.1800 
     59 N          -2.0413  -12.7157  -44.0306 N.am      3 UNK        -0.5000 
     60 C          -2.0096  -12.6777  -45.3673 C.2       2 UNK         0.5000 
     61 O          -1.4066  -13.5016  -46.0596 O.2       2 UNK        -0.5000 
     62 CA         -2.7287  -11.4873  -46.0304 C.3       2 UNK         0.1400 
     63 CB         -1.7243  -10.3624  -46.3247 C.3       2 UNK        -0.1800 
     64 N          -3.4104  -11.8468  -47.2747 N.am      2 UNK        -0.5000 
     65 C          -4.4158  -12.7251  -47.3805 C.2       1 UNK         0.5000 
     66 O          -4.8869  -13.3440  -46.4216 O.2       1 UNK        -0.5000 
     67 C          -3.5590  -22.0977  -45.5804 C.2       11 UNK         0.5000 
     68 O          -4.5863  -22.6359  -45.9919 O.2       11 UNK        -0.5000 
     69 N          -3.1762  -22.1331  -44.2954 N.am      12 UNK        -0.5000 
     70 CA         -3.9042  -22.8666  -43.2567 C.3       12 UNK         0.1400 
     71 CB         -3.3439  -22.5195  -41.8694 C.3       12 UNK        -0.1800 
     72 C          -3.8939  -24.3893  -43.4878 C.2       12 UNK         0.5000 
     73 O          -4.9472  -25.0210  -43.3999 O.2       12 UNK        -0.5000 
     74 N          -2.7162  -24.9439  -43.8069 N.am      13 UNK        -0.5000 
     75 CA         -2.5168  -26.3667  -44.0871 C.3       13 UNK         0.1400 
     76 CB         -1.0116  -26.6691  -44.1443 C.3       13 UNK        -0.1800 
     77 C          -3.2103  -26.8307  -45.3807 C.2       13 UNK         0.5000 
     78 O          -3.8096  -27.9065  -45.3980 O.2       13 UNK        -0.5000 
     79 N          -3.1232  -26.0102  -46.4352 N.am      14 UNK        -0.5000 
     80 CA         -3.6919  -26.2881  -47.7547 C.3       14 UNK         0.1400 
     81 CB         -2.9171  -25.4715  -48.7990 C.3       14 UNK        -0.1800 
     82 C          -5.1992  -25.9865  -47.8606 C.2       14 UNK         0.5000 
     83 O          -5.7964  -26.3196  -48.8836 O.2       14 UNK        -0.5000 
     84 N          -5.7792  -25.3334  -46.8423 N.am      15 UNK        -0.5000 
     85 CA         -7.1559  -24.8257  -46.7904 C.3       15 UNK         0.1400 
     86 CB         -8.1764  -25.9828  -46.7750 C.3       15 UNK        -0.1800 
     87 C          -7.4172  -23.7892  -47.9044 C.2       15 UNK         0.5000 
     88 O          -8.3589  -23.9245  -48.6867 O.2       15 UNK        -0.5000 
     89 N          -6.5231  -22.7934  -47.9640 N.am      16 UNK        -0.5000 
     90 CA         -6.4429  -21.6652  -48.8985 C.3       16 UNK         0.1400 
     91 CB         -7.7385  -20.8302  -48.8927 C.3       16 UNK        -0.1800 
     92 C          -6.0021  -22.0286  -50.3310 C.2       16 UNK         0.5000 
     93 O          -5.7677  -21.1169  -51.1242 O.2       16 UNK        -0.5000 
     94 N          -5.8336  -23.3220  -50.6486 N.am      17 UNK        -0.5000 
     95 CA         -5.4060  -23.7987  -51.9713 C.3       17 UNK         0.1400 
     96 CB         -5.5941  -25.3195  -52.0605 C.3       17 UNK        -0.1800 
     97 C          -3.9621  -23.4002  -52.3422 C.2       17 UNK         0.5000 
     98 O          -3.6256  -23.3737  -53.5268 O.2       17 UNK        -0.5000 
     99 N          -3.1503  -23.0410  -51.3355 N.am      18 UNK        -0.5000 
    100 CA        -1.8019  -22.4914  -51.4936 C.3       18 UNK         0.1400 
    101 CB        -1.0978  -22.4318  -50.1301 C.3       18 UNK        -0.1800 
    102 C         -1.7693  -21.1099  -52.1766 C.2       18 UNK         0.5000 
    103 O         -0.7006  -20.7029  -52.6261 O.2       18 UNK        -0.5000 
    104 N         -2.9208  -20.4297  -52.3021 N.am      19 UNK        -0.5000 
    105 CA        -3.0785  -19.1786  -53.0513 C.3       19 UNK         0.1400 
    106 CB        -4.5252  -18.6843  -52.9165 C.3       19 UNK        -0.1800 
    107 C         -2.6781  -19.2857  -54.5394 C.2       19 UNK         0.5000 
    108 O         -2.2686  -18.2869  -55.1306 O.2       19 UNK        -0.5000 
    109 N         -2.7655  -20.4959  -55.1095 N.am      20 UNK        -0.5000 
    110 CA        -2.3203  -20.8068  -56.4670 C.3       20 UNK         0.1400 
    111 CB        -2.9813  -22.1201  -56.9120 C.3       20 UNK        -0.1800 
    112 C         -0.7867  -20.9076  -56.6050 C.2       20 UNK         0.5000 
    113 O         -0.2751  -20.7441  -57.7140 O.2       20 UNK        -0.5000 
    114 N         -0.0700  -21.1719  -55.5000 N.am      21 UNK        -0.5000 
    115 CA         1.3774  -21.4190  -55.4884 C.3       21 UNK         0.1400 
    116 CB         1.7897  -22.0254  -54.1379 C.3       21 UNK        -0.1800 
    117 C          2.2263  -20.1727  -55.8026 C.2       21 UNK         0.5000 
    118 O          3.3820  -20.3175  -56.2037 O.2       21 UNK        -0.5000 
    119 N          1.6395  -18.9803  -55.6411 N.am      22 UNK        -0.5000 
    120 CA         2.2335  -17.6977  -56.0488 C.3       22 UNK         0.1400 
    121 C          2.2191  -17.4561  -57.5899 C.2       22 UNK         0.5000 
    122 N          1.5399  -18.2664  -58.3960 N.am      22 UNK        -0.7600 
    123 O          2.8457  -16.5139  -58.0669 O.2       22 UNK        -0.5000 
    124 C124        1.5939  -16.4978  -55.3048 C.3       23 UNK        -0.0398 
    125 S125        1.7355  -16.5931  -53.4838 S.3       23 UNK        -0.2404 
    126 C126        0.0529  -17.1217  -53.0396 C.3       23 UNK        -0.0205 
    127 H127       -8.6669  -14.5198  -48.5687 H         1 UNK         0.0600 
    128 H128       -9.4813  -13.0217  -49.0273 H         1 UNK         0.0600 
    129 H129       -9.1812  -13.3789  -47.3230 H         1 UNK         0.0600 
    130 H130       -6.4643  -14.4501  -48.8832 H         1 UNK         0.3000 
    131 H131       -5.0428  -11.9643  -49.2858 H         1 UNK         0.0600 
    132 H132       -4.6712  -14.3439  -50.4401 H         1 UNK         0.0800 
    133 H133       -3.6672  -14.6798  -49.0661 H         1 UNK         0.0800 
    134 H134       -1.3271  -13.3941  -48.6454 H         1 UNK         0.0800 
    135 H135       -0.4101  -12.9567  -50.0613 H         1 UNK         0.0800 
    136 H136       -0.4462  -14.6364  -52.0799 H         1 UNK         0.1150 
    137 H137       -0.3226  -18.7462  -50.8572 H         1 UNK         0.1150 
    138 H138       -1.5105  -15.7108  -48.0719 H         1 UNK         0.1150 
    139 H139       -0.3511  -19.1412  -48.3260 H         1 UNK         0.0800 
    140 H140       -1.0751  -17.9164  -47.2987 H         1 UNK         0.0800 
    141 H141       -4.0459  -19.7024  -46.4896 H         1 UNK         0.0800 
    142 H142       -2.4350  -19.2889  -45.9953 H         1 UNK         0.0800 
    143 H143       -2.8691  -21.8630  -47.5543 H         1 UNK         0.0600 
    144 H144       -0.6613  -20.8131  -46.0681 H         1 UNK         0.3000 
    145 H145        1.0966  -23.9515  -45.8066 H         1 UNK         0.0600 
    146 H146        2.8118  -22.3988  -46.7367 H         1 UNK         0.0600 
    147 H147        1.6456  -22.8755  -47.9629 H         1 UNK         0.0600 
    148 H148        1.5476  -21.2793  -47.2385 H         1 UNK         0.0600 
    149 H149        1.6961  -21.4121  -44.6845 H         1 UNK         0.3000 
    150 H150        0.0981  -21.9222  -41.5149 H         1 UNK         0.0600 
    151 H151        2.2688  -23.1267  -41.3867 H         1 UNK         0.0600 
    152 H152        2.4237  -21.4912  -40.7647 H         1 UNK         0.0600 
    153 H153        3.0426  -21.8896  -42.3669 H         1 UNK         0.0600 
    154 H154        1.6984  -19.8103  -42.6477 H         1 UNK         0.3000 
    155 H155       -1.0332  -17.8414  -43.8342 H         1 UNK         0.0600 
    156 H156        0.9281  -17.5175  -41.4969 H         1 UNK         0.0600 
    157 H157       -0.8248  -17.3905  -41.3820 H         1 UNK         0.0600 
    158 H158        0.0813  -16.2165  -42.3210 H         1 UNK         0.0600 
    159 H159        1.6795  -17.2201  -43.9224 H         1 UNK         0.3000 
    160 H160        2.6205  -19.0586  -46.8777 H         1 UNK         0.0600 
    161 H161        2.1854  -16.0969  -46.2362 H         1 UNK         0.0600 
    162 H162        1.5276  -16.9576  -47.6200 H         1 UNK         0.0600 
    163 H163        3.2633  -16.7214  -47.4841 H         1 UNK         0.0600 
    164 H164        4.1686  -17.3576  -45.2356 H         1 UNK         0.3000 
    165 H165        5.2511  -19.7134  -42.8135 H         1 UNK         0.0600 
    166 H166        6.7517  -18.5716  -45.2265 H         1 UNK         0.0600 
    167 H167        7.4897  -19.0892  -43.7107 H         1 UNK         0.0600 
    168 H168        6.6760  -20.2567  -44.7411 H         1 UNK         0.0600 
    169 H169        5.0854  -17.7074  -41.9701 H         1 UNK         0.3000 
    170 H170        4.7154  -15.6154  -41.6418 H         1 UNK         0.0600 
    171 H171        7.0322  -14.1894  -43.0598 H         1 UNK         0.0600 
    172 H172        6.3889  -13.7942  -41.4651 H         1 UNK         0.0600 
    173 H173        7.2041  -15.3273  -41.7290 H         1 UNK         0.0600 
    174 H174        4.6951  -13.3160  -43.2345 H         1 UNK         0.3000 
    175 H175        2.5720  -12.3646  -43.5610 H         1 UNK         0.0600 
    176 H176        2.4651  -13.8036  -46.2716 H         1 UNK         0.0600 
    177 H177        2.2854  -12.0740  -46.0007 H         1 UNK         0.0600 
    178 H178        3.8264  -12.8558  -45.6883 H         1 UNK         0.0600 
    179 H179        0.4061  -13.6436  -44.9986 H         1 UNK         0.3000 
    180 H180       -1.4393  -14.6923  -43.6994 H         1 UNK         0.0600 
    181 H181       -3.1718  -14.1339  -42.0249 H         1 UNK         0.0600 
    182 H182       -2.1334  -12.8982  -41.3149 H         1 UNK         0.0600 
    183 H183       -1.6796  -14.5963  -41.2240 H         1 UNK         0.0600 
    184 H184       -2.5201  -11.9788  -43.5329 H         1 UNK         0.3000 
    185 H185       -3.4841  -11.1064  -45.3399 H         1 UNK         0.0600 
    186 H186       -2.2226   -9.4840  -46.7355 H         1 UNK         0.0600 
    187 H187       -1.2107  -10.0473  -45.4154 H         1 UNK         0.0600 
    188 H188       -0.9622  -10.6813  -47.0374 H         1 UNK         0.0600 
    189 H189       -3.0615  -11.4085  -48.1146 H         1 UNK         0.3000 
    190 H190       -2.3451  -21.6307  -44.0026 H         1 UNK         0.3000 
    191 H191       -4.9452  -22.5378  -43.2855 H         1 UNK         0.0600 
    192 H192       -3.8726  -23.0646  -41.0865 H         1 UNK         0.0600 
    193 H193       -3.4559  -21.4567  -41.6550 H         1 UNK         0.0600 
    194 H194       -2.2862  -22.7687  -41.7859 H         1 UNK         0.0600 
    195 H195       -1.8849  -24.3587  -43.8259 H         1 UNK         0.3000 
    196 H196       -2.9449  -26.9352  -43.2589 H         1 UNK         0.0600 
    197 H197       -0.5156  -26.0938  -44.9272 H         1 UNK         0.0600 
    198 H198       -0.5264  -26.4306  -43.1977 H         1 UNK         0.0600 
    199 H199       -0.8307  -27.7257  -44.3458 H         1 UNK         0.0600 
    200 H200       -2.5611  -25.1656  -46.3565 H         1 UNK         0.3000 
    201 H201       -3.5531  -27.3471  -47.9818 H         1 UNK         0.0600 
    202 H202       -3.2351  -25.7176  -49.8113 H         1 UNK         0.0600 
    203 H203       -3.0660  -24.4014  -48.6530 H         1 UNK         0.0600 
    204 H204       -1.8472  -25.6732  -48.7428 H         1 UNK         0.0600 
    205 H205       -5.1899  -25.0710  -46.0634 H         1 UNK         0.3000 
    206 H206       -7.2501  -24.2921  -45.8433 H         1 UNK         0.0600 
    207 H207       -7.9656  -26.6814  -45.9653 H         1 UNK         0.0600 
    208 H208       -9.1882  -25.6053  -46.6236 H         1 UNK         0.0600 
    209 H209       -8.1753  -26.5434  -47.7101 H         1 UNK         0.0600 
    210 H210       -5.7907  -22.8015  -47.2532 H         1 UNK         0.3000 
    211 H211       -5.6499  -21.0274  -48.5051 H         1 UNK         0.0600 
    212 H212       -7.6101  -19.9091  -49.4626 H         1 UNK         0.0600 
    213 H213       -8.0207  -20.5461  -47.8790 H         1 UNK         0.0600 
    214 H214       -8.5744  -21.3704  -49.3373 H         1 UNK         0.0600 
    215 H215       -6.0634  -24.0270  -49.9612 H         1 UNK         0.3000 
    216 H216       -6.0631  -23.3389  -52.7125 H         1 UNK         0.0600 
    217 H217       -4.9299  -25.8516  -51.3812 H         1 UNK         0.0600 
    218 H218       -5.3828  -25.6787  -53.0685 H         1 UNK         0.0600 
    219 H219       -6.6183  -25.6068  -51.8214 H         1 UNK         0.0600 
    220 H220       -3.5183  -23.0778  -50.3980 H         1 UNK         0.3000 
    221 H221       -1.2391  -23.1752  -52.1325 H         1 UNK         0.0600 
    222 H222       -1.0403  -23.4146  -49.6641 H         1 UNK         0.0600 
    223 H223       -1.6095  -21.7584  -49.4461 H         1 UNK         0.0600 
    224 H224       -0.0748  -22.0677  -50.2342 H         1 UNK         0.0600 
    225 H225       -3.7659  -20.8147  -51.8968 H         1 UNK         0.3000 
    226 H226       -2.4311  -18.4355  -52.5884 H         1 UNK         0.0600 
    227 H227       -5.2345  -19.4003  -53.3336 H         1 UNK         0.0600 
    228 H228       -4.7886  -18.5207  -51.8712 H         1 UNK         0.0600 
    229 H229       -4.6660  -17.7370  -53.4386 H         1 UNK         0.0600 
    230 H230       -3.1073  -21.2711  -54.5559 H         1 UNK         0.3000 
    231 H231       -2.6593  -20.0122  -57.1352 H         1 UNK         0.0600 
    232 H232       -2.6889  -22.9540  -56.2722 H         1 UNK         0.0600 
    233 H233       -2.6985  -22.3747  -57.9344 H         1 UNK         0.0600 
    234 H234       -4.0684  -22.0434  -56.8858 H         1 UNK         0.0600 
    235 H235       -0.5352  -21.2056  -54.6001 H         1 UNK         0.3000 
    236 H236        1.5894  -22.1582  -56.2638 H         1 UNK         0.0600 
    237 H237        1.7159  -21.2976  -53.3295 H         1 UNK         0.0600 
    238 H238        1.1698  -22.8840  -53.8790 H         1 UNK         0.0600 
    239 H239        2.8245  -22.3684  -54.1681 H         1 UNK         0.0600 
    240 H240        0.6861  -18.9543  -55.3122 H         1 UNK         0.3000 
    241 H241        3.2877  -17.7229  -55.7658 H         1 UNK         0.0600 
    242 H242        1.5495  -18.0925  -59.3887 H         1 UNK         0.3800 
    243 H243        1.0197  -19.0565  -58.0352 H         1 UNK         0.3800 
    244 H244        0.5485  -16.3866  -55.5968 H         1 UNK         0.0800 
    245 H245        2.0822  -15.5693  -55.6061 H         1 UNK         0.0800 
    246 H246       -0.6719  -16.6665  -53.7151 H         1 UNK         0.0800 
    247 H247       -0.0220  -18.1998  -53.1817 H         1 UNK         0.0800 
@<TRIPOS>BOND
     1    1    2 1    
     2    1  127 1    
     3    1  128 1    
     4    1  129 1    
     5    2    3 2    
     6    2    4 am   BACKBONE|DICT|INTERRES
     7    4    5 1    
     8    4  130 1    
     9    5    6 1    
    10    5   65 1    
    11    5  131 1    
    12    6    7 1    
    13    6  132 1    
    14    6  133 1    
    15    7    8 1    
    16    8    9 1    
    17    8  134 1    
    18    8  135 1    
    19    9   10 ar   
    20    9   14 ar   
    21   10   11 ar   
    22   10  136 1    
    23   11   12 ar   
    24   11  126 1    
    25   12   13 ar   
    26   12  137 1    
    27   13   14 ar   
    28   13   15 1    
    29   14  138 1    
    30   15   16 1    
    31   15  139 1    
    32   15  140 1    
    33   16   17 1    
    34   17   18 1    
    35   17  141 1    
    36   17  142 1    
    37   18   19 1    
    38   18   67 1    
    39   18  143 1    
    40   19   20 am   BACKBONE|DICT|INTERRES
    41   19  144 1    
    42   20   21 2    
    43   20   22 1    
    44   22   23 1    
    45   22   24 1    
    46   22  145 1    
    47   23  146 1    
    48   23  147 1    
    49   23  148 1    
    50   24   25 am   BACKBONE|DICT|INTERRES
    51   24  149 1    
    52   25   26 2    
    53   25   27 1    
    54   27   28 1    
    55   27   29 1    
    56   27  150 1    
    57   28  151 1    
    58   28  152 1    
    59   28  153 1    
    60   29   30 am   BACKBONE|DICT|INTERRES
    61   29  154 1    
    62   30   31 2    
    63   30   32 1    
    64   32   33 1    
    65   32   34 1    
    66   32  155 1    
    67   33  156 1    
    68   33  157 1    
    69   33  158 1    
    70   34   35 am   BACKBONE|DICT|INTERRES
    71   34  159 1    
    72   35   36 2    
    73   35   37 1    
    74   37   38 1    
    75   37   39 1    
    76   37  160 1    
    77   38  161 1    
    78   38  162 1    
    79   38  163 1    
    80   39   40 am   BACKBONE|DICT|INTERRES
    81   39  164 1    
    82   40   41 2    
    83   40   42 1    
    84   42   43 1    
    85   42   44 1    
    86   42  165 1    
    87   43  166 1    
    88   43  167 1    
    89   43  168 1    
    90   44   45 am   BACKBONE|DICT|INTERRES
    91   44  169 1    
    92   45   46 2    
    93   45   47 1    
    94   47   48 1    
    95   47   49 1    
    96   47  170 1    
    97   48  171 1    
    98   48  172 1    
    99   48  173 1    
   100   49   50 am   BACKBONE|DICT|INTERRES
   101   49  174 1    
   102   50   51 2    
   103   50   52 1    
   104   52   53 1    
   105   52   54 1    
   106   52  175 1    
   107   53  176 1    
   108   53  177 1    
   109   53  178 1    
   110   54   55 am   BACKBONE|DICT|INTERRES
   111   54  179 1    
   112   55   56 2    
   113   55   57 1    
   114   57   58 1    
   115   57   59 1    
   116   57  180 1    
   117   58  181 1    
   118   58  182 1    
   119   58  183 1    
   120   59   60 am   BACKBONE|DICT|INTERRES
   121   59  184 1    
   122   60   61 2    
   123   60   62 1    
   124   62   63 1    
   125   62   64 1    
   126   62  185 1    
   127   63  186 1    
   128   63  187 1    
   129   63  188 1    
   130   64   65 am   BACKBONE|DICT|INTERRES
   131   64  189 1    
   132   65   66 2    
   133   67   68 2    
   134   67   69 am   BACKBONE|DICT|INTERRES
   135   69   70 1    
   136   69  190 1    
   137   70   71 1    
   138   70   72 1    
   139   70  191 1    
   140   71  192 1    
   141   71  193 1    
   142   71  194 1    
   143   72   73 2    
   144   72   74 am   BACKBONE|DICT|INTERRES
   145   74   75 1    
   146   74  195 1    
   147   75   76 1    
   148   75   77 1    
   149   75  196 1    
   150   76  197 1    
   151   76  198 1    
   152   76  199 1    
   153   77   78 2    
   154   77   79 am   BACKBONE|DICT|INTERRES
   155   79   80 1    
   156   79  200 1    
   157   80   81 1    
   158   80   82 1    
   159   80  201 1    
   160   81  202 1    
   161   81  203 1    
   162   81  204 1    
   163   82   83 2    
   164   82   84 am   BACKBONE|DICT|INTERRES
   165   84   85 1    
   166   84  205 1    
   167   85   86 1    
   168   85   87 1    
   169   85  206 1    
   170   86  207 1    
   171   86  208 1    
   172   86  209 1    
   173   87   88 2    
   174   87   89 am   BACKBONE|DICT|INTERRES
   175   89   90 1    
   176   89  210 1    
   177   90   91 1    
   178   90   92 1    
   179   90  211 1    
   180   91  212 1    
   181   91  213 1    
   182   91  214 1    
   183   92   93 2    
   184   92   94 am   BACKBONE|DICT|INTERRES
   185   94   95 1    
   186   94  215 1    
   187   95   96 1    
   188   95   97 1    
   189   95  216 1    
   190   96  217 1    
   191   96  218 1    
   192   96  219 1    
   193   97   98 2    
   194   97   99 am   BACKBONE|DICT|INTERRES
   195   99  100 1    
   196   99  220 1    
   197  100  101 1    
   198  100  102 1    
   199  100  221 1    
   200  101  222 1    
   201  101  223 1    
   202  101  224 1    
   203  102  103 2    
   204  102  104 am   BACKBONE|DICT|INTERRES
   205  104  105 1    
   206  104  225 1    
   207  105  106 1    
   208  105  107 1    
   209  105  226 1    
   210  106  227 1    
   211  106  228 1    
   212  106  229 1    
   213  107  108 2    
   214  107  109 am   BACKBONE|DICT|INTERRES
   215  109  110 1    
   216  109  230 1    
   217  110  111 1    
   218  110  112 1    
   219  110  231 1    
   220  111  232 1    
   221  111  233 1    
   222  111  234 1    
   223  112  113 2    
   224  112  114 am   BACKBONE|DICT|INTERRES
   225  114  115 1    
   226  114  235 1    
   227  115  116 1    
   228  115  117 1    
   229  115  236 1    
   230  116  237 1    
   231  116  238 1    
   232  116  239 1    
   233  117  118 2    
   234  117  119 am   BACKBONE|DICT|INTERRES
   235  119  120 1    
   236  119  240 1    
   237  120  121 1    
   238  120  124 1    
   239  120  241 1    
   240  121  122 am   BACKBONE|DICT|INTERRES
   241  121  123 2    
   242  122  242 1    
   243  122  243 1    
   244  124  125 1    
   245  124  244 1    
   246  124  245 1    
   247  125  126 1    
   248  126  246 1    
   249  126  247 1    
@<TRIPOS>SUBSTRUCTURE
     1 UNK         1 GROUP             0       ****    0 ROOT    
