@<TRIPOS>MOLECULE
3R540
247   249    1
SMALL
USER_CHARGES


@<TRIPOS>ATOM
      1 CA         -2.4223  -12.2417  -48.0265 C.3       0 UNK        -0.1800 
      2 C          -0.9220  -12.3786  -47.8089 C.2       0 UNK         0.5000 
      3 O          -0.2927  -11.4538  -47.2953 O.2       0 UNK        -0.5000 
      4 N          -0.3501  -13.5224  -48.2039 N.am      1 UNK        -0.5000 
      5 CA          1.0714  -13.8534  -48.0446 C.3       1 UNK         0.1400 
      6 C6          1.4764  -15.0811  -48.8983 C.3       23 UNK        -0.0398 
      7 S7          1.2299  -14.7810  -50.6834 S.3       23 UNK        -0.2404 
      8 C8          0.3627  -16.2907  -51.2140 C.3       23 UNK        -0.0205 
      9 C9          1.3329  -17.3858  -51.6335 C.ar      23 UNK        -0.0193 
     10 C10         1.5605  -17.6470  -52.9879 C.ar      23 UNK        -0.1150 
     11 C11         2.4546  -18.6487  -53.3795 C.ar      23 UNK        -0.0193 
     12 C12         3.1238  -19.3920  -52.4022 C.ar      23 UNK        -0.1150 
     13 C13         2.8937  -19.1514  -51.0446 C.ar      23 UNK        -0.0193 
     14 C14         1.9999  -18.1449  -50.6698 C.ar      23 UNK        -0.1150 
     15 C15         3.6366  -19.9480  -49.9807 C.3       23 UNK        -0.0205 
     16 S16         3.2475  -21.7295  -50.0036 S.3       23 UNK        -0.2404 
     17 C17         1.4624  -21.7848  -49.6292 C.3       23 UNK        -0.0398 
     18 CA          1.1730  -21.9332  -48.1087 C.3       11 UNK         0.1400 
     19 N           1.4554  -20.7216  -47.3348 N.am      11 UNK        -0.5000 
     20 C           0.8526  -19.5287  -47.4526 C.2       10 UNK         0.5000 
     21 O          -0.0233  -19.2925  -48.2859 O.2       10 UNK        -0.5000 
     22 CA          1.2757  -18.4077  -46.4775 C.3       10 UNK         0.1400 
     23 CB          0.0414  -17.6730  -45.9379 C.3       10 UNK        -0.1800 
     24 N           2.0667  -18.8890  -45.3444 N.am      10 UNK        -0.5000 
     25 C           3.3661  -19.2183  -45.3862 C.2       9 UNK         0.5000 
     26 O           4.0743  -19.0436  -46.3768 O.2       9 UNK        -0.5000 
     27 CA          3.9726  -19.8985  -44.1407 C.3       9 UNK         0.1400 
     28 CB          4.9109  -18.9279  -43.4067 C.3       9 UNK        -0.1800 
     29 N           2.9855  -20.4032  -43.1833 N.am      9 UNK        -0.5000 
     30 C           2.0412  -21.3311  -43.4038 C.2       8 UNK         0.5000 
     31 O           1.9074  -21.9454  -44.4642 O.2       8 UNK        -0.5000 
     32 CA          1.0322  -21.5495  -42.2576 C.3       8 UNK         0.1400 
     33 CB          1.4480  -22.7478  -41.3927 C.3       8 UNK        -0.1800 
     34 N           0.8572  -20.3679  -41.4030 N.am      8 UNK        -0.5000 
     35 C           0.3649  -19.1930  -41.8211 C.2       7 UNK         0.5000 
     36 O          -0.0128  -18.9832  -42.9753 O.2       7 UNK        -0.5000 
     37 CA          0.3973  -18.0404  -40.8061 C.3       7 UNK         0.1400 
     38 CB          1.7420  -17.3016  -40.9015 C.3       7 UNK        -0.1800 
     39 N          -0.6887  -17.0898  -41.0406 N.am      7 UNK        -0.5000 
     40 C          -1.9475  -17.2585  -40.6152 C.2       6 UNK         0.5000 
     41 O          -2.3158  -18.2200  -39.9387 O.2       6 UNK        -0.5000 
     42 CA         -2.9661  -16.1674  -40.9935 C.3       6 UNK         0.1400 
     43 CB         -3.0531  -15.1082  -39.8839 C.3       6 UNK        -0.1800 
     44 N          -2.6501  -15.5169  -42.2684 N.am      6 UNK        -0.5000 
     45 C          -2.9882  -16.0244  -43.4639 C.2       5 UNK         0.5000 
     46 O          -3.5901  -17.0922  -43.5879 O.2       5 UNK        -0.5000 
     47 CA         -2.5869  -15.2487  -44.7388 C.3       5 UNK         0.1400 
     48 CB         -3.7417  -15.1533  -45.7584 C.3       5 UNK        -0.1800 
     49 N          -1.9678  -13.9394  -44.5100 N.am      5 UNK        -0.5000 
     50 C          -2.5417  -12.8306  -44.0220 C.2       4 UNK         0.5000 
     51 O          -3.7279  -12.7588  -43.6969 O.2       4 UNK        -0.5000 
     52 CA         -1.6125  -11.6091  -43.8402 C.3       4 UNK         0.1400 
     53 CB         -2.2612  -10.4897  -43.0001 C.3       4 UNK        -0.1800 
     54 N          -0.2933  -11.9434  -43.2871 N.am      4 UNK        -0.5000 
     55 C          -0.0333  -12.6219  -42.1606 C.2       3 UNK         0.5000 
     56 O          -0.9009  -13.1648  -41.4759 O.2       3 UNK        -0.5000 
     57 CA          1.4516  -12.7412  -41.7595 C.3       3 UNK         0.1400 
     58 CB          1.6363  -13.3893  -40.3761 C.3       3 UNK        -0.1800 
     59 N           2.2021  -13.5131  -42.7493 N.am      3 UNK        -0.5000 
     60 C           2.6494  -13.0359  -43.9171 C.2       2 UNK         0.5000 
     61 O           2.5327  -11.8543  -44.2508 O.2       2 UNK        -0.5000 
     62 CA          3.3098  -14.0319  -44.8961 C.3       2 UNK         0.1400 
     63 CB          3.2955  -15.5031  -44.4194 C.3       2 UNK        -0.1800 
     64 N           2.7282  -13.9210  -46.2387 N.am      2 UNK        -0.5000 
     65 C           1.4356  -14.0767  -46.5608 C.2       1 UNK         0.5000 
     66 O           0.5608  -14.3954  -45.7509 O.2       1 UNK        -0.5000 
     67 C          -0.2576  -22.4139  -47.8003 C.2       11 UNK         0.5000 
     68 O          -1.0841  -22.5366  -48.7046 O.2       11 UNK        -0.5000 
     69 N          -0.5363  -22.6158  -46.5063 N.am      12 UNK        -0.5000 
     70 CA         -1.8310  -23.0634  -46.0061 C.3       12 UNK         0.1400 
     71 CB         -1.9161  -22.7873  -44.4978 C.3       12 UNK        -0.1800 
     72 C          -2.0681  -24.5502  -46.3247 C.2       12 UNK         0.5000 
     73 O          -1.4681  -25.4162  -45.6843 O.2       12 UNK        -0.5000 
     74 N          -2.9403  -24.8073  -47.3033 N.am      13 UNK        -0.5000 
     75 CA         -3.5126  -26.1176  -47.5987 C.3       13 UNK         0.1400 
     76 CB         -3.4903  -26.3348  -49.1247 C.3       13 UNK        -0.1800 
     77 C          -4.9201  -26.1366  -46.9723 C.2       13 UNK         0.5000 
     78 O          -5.0346  -26.0013  -45.7526 O.2       13 UNK        -0.5000 
     79 N          -5.9716  -26.2289  -47.7996 N.am      14 UNK        -0.5000 
     80 CA         -7.3563  -25.9486  -47.3963 C.3       14 UNK         0.1400 
     81 CB         -8.3159  -26.4636  -48.4799 C.3       14 UNK        -0.1800 
     82 C          -7.5919  -24.4447  -47.1279 C.2       14 UNK         0.5000 
     83 O          -8.4860  -24.0899  -46.3594 O.2       14 UNK        -0.5000 
     84 N          -6.7597  -23.6011  -47.7472 N.am      15 UNK        -0.5000 
     85 CA         -6.6196  -22.1681  -47.5335 C.3       15 UNK         0.1400 
     86 CB         -7.7059  -21.4031  -48.3133 C.3       15 UNK        -0.1800 
     87 C          -5.1956  -21.7782  -47.9695 C.2       15 UNK         0.5000 
     88 O          -4.4470  -22.6362  -48.4547 O.2       15 UNK        -0.5000 
     89 N          -4.8399  -20.5012  -47.7888 N.am      16 UNK        -0.5000 
     90 CA         -3.5618  -19.9155  -48.2051 C.3       16 UNK         0.1400 
     91 CB         -3.4825  -18.4751  -47.6752 C.3       16 UNK        -0.1800 
     92 C          -3.3433  -19.9516  -49.7318 C.2       16 UNK         0.5000 
     93 O          -4.2925  -20.1491  -50.4975 O.2       16 UNK        -0.5000 
     94 N          -2.0818  -19.7608  -50.1400 N.am      17 UNK        -0.5000 
     95 CA         -1.5923  -19.8037  -51.5207 C.3       17 UNK         0.1400 
     96 CB         -2.1623  -18.6230  -52.3343 C.3       17 UNK        -0.1800 
     97 C          -1.8465  -21.1683  -52.1923 C.2       17 UNK         0.5000 
     98 O          -2.2003  -21.2125  -53.3702 O.2       17 UNK        -0.5000 
     99 N          -1.6939  -22.2545  -51.4193 N.am      18 UNK        -0.5000 
    100 CA        -1.9605  -23.6476  -51.7866 C.3       18 UNK         0.1400 
    101 CB        -0.9599  -24.1300  -52.8579 C.3       18 UNK        -0.1800 
    102 C         -3.4339  -23.8598  -52.1876 C.2       18 UNK         0.5000 
    103 O         -3.7135  -24.4582  -53.2259 O.2       18 UNK        -0.5000 
    104 N         -4.3497  -23.3144  -51.3723 N.am      19 UNK        -0.5000 
    105 CA        -5.7928  -23.2196  -51.6170 C.3       19 UNK         0.1400 
    106 CB        -6.4583  -24.6096  -51.5644 C.3       19 UNK        -0.1800 
    107 C         -6.1053  -22.4346  -52.9081 C.2       19 UNK         0.5000 
    108 O         -6.8884  -22.8881  -53.7437 O.2       19 UNK        -0.5000 
    109 N         -5.4365  -21.2817  -53.0484 N.am      20 UNK        -0.5000 
    110 CA        -5.4520  -20.3462  -54.1790 C.3       20 UNK         0.1400 
    111 CB        -6.8724  -19.8005  -54.4304 C.3       20 UNK        -0.1800 
    112 C         -4.7955  -20.8581  -55.4812 C.2       20 UNK         0.5000 
    113 O         -4.7163  -20.0880  -56.4404 O.2       20 UNK        -0.5000 
    114 N         -4.3004  -22.1051  -55.5143 N.am      21 UNK        -0.5000 
    115 CA        -3.6664  -22.7172  -56.6879 C.3       21 UNK         0.1400 
    116 CB        -3.4593  -24.2179  -56.4394 C.3       21 UNK        -0.1800 
    117 C         -2.3363  -22.0537  -57.0966 C.2       21 UNK         0.5000 
    118 O         -1.9787  -22.0966  -58.2746 O.2       21 UNK        -0.5000 
    119 N         -1.6420  -21.4393  -56.1313 N.am      22 UNK        -0.5000 
    120 CA        -0.4364  -20.6253  -56.3435 C.3       22 UNK         0.1400 
    121 C         -0.7316  -19.1925  -56.8868 C.2       22 UNK         0.5000 
    122 N         -1.9823  -18.7541  -56.9901 N.am      22 UNK        -0.7600 
    123 O          0.1896  -18.4640  -57.2423 O.2       22 UNK        -0.5000 
    124 C124        0.4370  -20.5983  -55.0592 C.3       23 UNK        -0.0398 
    125 S125        2.2324  -20.5854  -55.3841 S.3       23 UNK        -0.2404 
    126 C126        2.7140  -18.9073  -54.8583 C.3       23 UNK        -0.0205 
    127 H127       -2.6362  -11.3471  -48.6112 H         1 UNK         0.0600 
    128 H128       -2.9352  -12.1544  -47.0690 H         1 UNK         0.0600 
    129 H129       -2.8347  -13.0995  -48.5581 H         1 UNK         0.0600 
    130 H130       -0.9218  -14.2451  -48.6141 H         1 UNK         0.3000 
    131 H131        1.6479  -12.9935  -48.3930 H         1 UNK         0.0600 
    132 H132        0.9096  -15.9582  -48.5841 H         1 UNK         0.0800 
    133 H133        2.5293  -15.3291  -48.7523 H         1 UNK         0.0800 
    134 H134       -0.2969  -16.6544  -50.4248 H         1 UNK         0.0800 
    135 H135       -0.2848  -16.0283  -52.0518 H         1 UNK         0.0800 
    136 H136        1.0459  -17.0639  -53.7389 H         1 UNK         0.1150 
    137 H137        3.8213  -20.1629  -52.6990 H         1 UNK         0.1150 
    138 H138        1.8307  -17.9393  -49.6249 H         1 UNK         0.1150 
    139 H139        4.7085  -19.8265  -50.1412 H         1 UNK         0.0800 
    140 H140        3.4381  -19.5505  -48.9857 H         1 UNK         0.0800 
    141 H141        0.9612  -20.9169  -50.0542 H         1 UNK         0.0800 
    142 H142        1.0720  -22.6461  -50.1741 H         1 UNK         0.0800 
    143 H143        1.8327  -22.7104  -47.7193 H         1 UNK         0.0600 
    144 H144        2.1238  -20.8345  -46.5860 H         1 UNK         0.3000 
    145 H145        1.8797  -17.6927  -47.0387 H         1 UNK         0.0600 
    146 H146        0.3118  -16.9677  -45.1532 H         1 UNK         0.0600 
    147 H147       -0.6912  -18.3657  -45.5215 H         1 UNK         0.0600 
    148 H148       -0.4527  -17.1096  -46.7299 H         1 UNK         0.0600 
    149 H149        1.5454  -19.0677  -44.4939 H         1 UNK         0.3000 
    150 H150        4.5592  -20.7495  -44.4919 H         1 UNK         0.0600 
    151 H151        4.3665  -18.0776  -42.9948 H         1 UNK         0.0600 
    152 H152        5.4291  -19.4243  -42.5861 H         1 UNK         0.0600 
    153 H153        5.6745  -18.5343  -44.0791 H         1 UNK         0.0600 
    154 H154        2.9977  -19.9691  -42.2729 H         1 UNK         0.3000 
    155 H155        0.0660  -21.7717  -42.7091 H         1 UNK         0.0600 
    156 H156        1.5569  -23.6478  -41.9996 H         1 UNK         0.0600 
    157 H157        0.6998  -22.9620  -40.6292 H         1 UNK         0.0600 
    158 H158        2.4006  -22.5722  -40.8913 H         1 UNK         0.0600 
    159 H159        1.1571  -20.4610  -40.4429 H         1 UNK         0.3000 
    160 H160        0.3011  -18.4552  -39.8003 H         1 UNK         0.0600 
    161 H161        1.8573  -16.7926  -41.8588 H         1 UNK         0.0600 
    162 H162        2.5807  -17.9905  -40.7938 H         1 UNK         0.0600 
    163 H163        1.8389  -16.5632  -40.1068 H         1 UNK         0.0600 
    164 H164       -0.4873  -16.2998  -41.6338 H         1 UNK         0.3000 
    165 H165       -3.9470  -16.6413  -41.0721 H         1 UNK         0.0600 
    166 H166       -3.7476  -14.3111  -40.1501 H         1 UNK         0.0600 
    167 H167       -3.4067  -15.5515  -38.9523 H         1 UNK         0.0600 
    168 H168       -2.0830  -14.6550  -39.6788 H         1 UNK         0.0600 
    169 H169       -2.1576  -14.6311  -42.2186 H         1 UNK         0.3000 
    170 H170       -1.8098  -15.8498  -45.2038 H         1 UNK         0.0600 
    171 H171       -4.1295  -16.1404  -46.0083 H         1 UNK         0.0600 
    172 H172       -4.5791  -14.5694  -45.3773 H         1 UNK         0.0600 
    173 H173       -3.4070  -14.6978  -46.6891 H         1 UNK         0.0600 
    174 H174       -0.9816  -13.9014  -44.7600 H         1 UNK         0.3000 
    175 H175       -1.4362  -11.2096  -44.8391 H         1 UNK         0.0600 
    176 H176       -2.4963  -10.8290  -41.9906 H         1 UNK         0.0600 
    177 H177       -1.6016   -9.6258  -42.9182 H         1 UNK         0.0600 
    178 H178       -3.1898  -10.1440  -43.4557 H         1 UNK         0.0600 
    179 H179        0.5055  -11.6098  -43.8166 H         1 UNK         0.3000 
    180 H180        1.8612  -11.7302  -41.7067 H         1 UNK         0.0600 
    181 H181        1.1904  -14.3822  -40.3336 H         1 UNK         0.0600 
    182 H182        1.1613  -12.7876  -39.6003 H         1 UNK         0.0600 
    183 H183        2.6912  -13.4800  -40.1165 H         1 UNK         0.0600 
    184 H184        2.3089  -14.4982  -42.5624 H         1 UNK         0.3000 
    185 H185        4.3525  -13.7235  -44.9834 H         1 UNK         0.0600 
    186 H186        3.8379  -15.6203  -43.4808 H         1 UNK         0.0600 
    187 H187        2.2839  -15.8815  -44.2723 H         1 UNK         0.0600 
    188 H188        3.7830  -16.1495  -45.1491 H         1 UNK         0.0600 
    189 H189        3.3710  -13.6218  -46.9583 H         1 UNK         0.3000 
    190 H190        0.2005  -22.4927  -45.8223 H         1 UNK         0.3000 
    191 H191       -2.6111  -22.4718  -46.4856 H         1 UNK         0.0600 
    192 H192       -2.8876  -23.0873  -44.1031 H         1 UNK         0.0600 
    193 H193       -1.7925  -21.7251  -44.2847 H         1 UNK         0.0600 
    194 H194       -1.1544  -23.3381  -43.9452 H         1 UNK         0.0600 
    195 H195       -3.3719  -24.0175  -47.7778 H         1 UNK         0.3000 
    196 H196       -2.9325  -26.9147  -47.1296 H         1 UNK         0.0600 
    197 H197       -4.0337  -25.5548  -49.6565 H         1 UNK         0.0600 
    198 H198       -2.4662  -26.3306  -49.4983 H         1 UNK         0.0600 
    199 H199       -3.9239  -27.2982  -49.3959 H         1 UNK         0.0600 
    200 H200       -5.8060  -26.3801  -48.7835 H         1 UNK         0.3000 
    201 H201       -7.5654  -26.4891  -46.4706 H         1 UNK         0.0600 
    202 H202       -9.3543  -26.3179  -48.1792 H         1 UNK         0.0600 
    203 H203       -8.1768  -27.5303  -48.6565 H         1 UNK         0.0600 
    204 H204       -8.1758  -25.9439  -49.4277 H         1 UNK         0.0600 
    205 H205       -6.0188  -23.9852  -48.3182 H         1 UNK         0.3000 
    206 H206       -6.7142  -21.9555  -46.4667 H         1 UNK         0.0600 
    207 H207       -8.7040  -21.7053  -47.9962 H         1 UNK         0.0600 
    208 H208       -7.6307  -20.3282  -48.1468 H         1 UNK         0.0600 
    209 H209       -7.6352  -21.5732  -49.3867 H         1 UNK         0.0600 
    210 H210       -5.5176  -19.8575  -47.4087 H         1 UNK         0.3000 
    211 H211       -2.7595  -20.4928  -47.7435 H         1 UNK         0.0600 
    212 H212       -4.2853  -17.8546  -48.0751 H         1 UNK         0.0600 
    213 H213       -2.5376  -18.0033  -47.9472 H         1 UNK         0.0600 
    214 H214       -3.5475  -18.4550  -46.5870 H         1 UNK         0.0600 
    215 H215       -1.3637  -19.6052  -49.4320 H         1 UNK         0.3000 
    216 H216       -0.5104  -19.6813  -51.4724 H         1 UNK         0.0600 
    217 H217       -2.0101  -17.6773  -51.8188 H         1 UNK         0.0600 
    218 H218       -3.2326  -18.7265  -52.4999 H         1 UNK         0.0600 
    219 H219       -1.6836  -18.5467  -53.3109 H         1 UNK         0.0600 
    220 H220       -1.4579  -22.1220  -50.4373 H         1 UNK         0.3000 
    221 H221       -1.7961  -24.2414  -50.8865 H         1 UNK         0.0600 
    222 H222       -1.0769  -25.1977  -53.0462 H         1 UNK         0.0600 
    223 H223       -1.0997  -23.6151  -53.8086 H         1 UNK         0.0600 
    224 H224        0.0690  -23.9671  -52.5372 H         1 UNK         0.0600 
    225 H225       -4.0261  -22.8373  -50.5379 H         1 UNK         0.3000 
    226 H226       -6.1997  -22.6292  -50.7981 H         1 UNK         0.0600 
    227 H227       -6.2238  -25.1219  -50.6334 H         1 UNK         0.0600 
    228 H228       -7.5437  -24.5232  -51.6234 H         1 UNK         0.0600 
    229 H229       -6.1364  -25.2476  -52.3879 H         1 UNK         0.0600 
    230 H230       -4.8294  -21.0063  -52.2817 H         1 UNK         0.3000 
    231 H231       -4.8411  -19.5020  -53.8633 H         1 UNK         0.0600 
    232 H232       -6.8545  -18.9842  -55.1534 H         1 UNK         0.0600 
    233 H233       -7.3130  -19.4092  -53.5134 H         1 UNK         0.0600 
    234 H234       -7.5399  -20.5663  -54.8255 H         1 UNK         0.0600 
    235 H235       -4.3539  -22.6734  -54.6790 H         1 UNK         0.3000 
    236 H236       -4.3573  -22.6076  -57.5263 H         1 UNK         0.0600 
    237 H237       -4.3870  -24.7032  -56.1354 H         1 UNK         0.0600 
    238 H238       -3.1107  -24.7171  -57.3443 H         1 UNK         0.0600 
    239 H239       -2.7148  -24.3962  -55.6633 H         1 UNK         0.0600 
    240 H240       -2.0112  -21.4404  -55.1819 H         1 UNK         0.3000 
    241 H241        0.1402  -21.1232  -57.1252 H         1 UNK         0.0600 
    242 H242       -2.7704  -19.3403  -56.7442 H         1 UNK         0.3800 
    243 H243       -2.1481  -17.8292  -57.3537 H         1 UNK         0.3800 
    244 H244        0.2650  -21.5026  -54.4742 H         1 UNK         0.0800 
    245 H245        0.1509  -19.7756  -54.4039 H         1 UNK         0.0800 
    246 H246        2.1940  -18.1757  -55.4779 H         1 UNK         0.0800 
    247 H247        3.7778  -18.7708  -55.0567 H         1 UNK         0.0800 
@<TRIPOS>BOND
     1    1    2 1    
     2    1  127 1    
     3    1  128 1    
     4    1  129 1    
     5    2    3 2    
     6    2    4 am   BACKBONE|DICT|INTERRES
     7    4    5 1    
     8    4  130 1    
     9    5    6 1    
    10    5   65 1    
    11    5  131 1    
    12    6    7 1    
    13    6  132 1    
    14    6  133 1    
    15    7    8 1    
    16    8    9 1    
    17    8  134 1    
    18    8  135 1    
    19    9   10 ar   
    20    9   14 ar   
    21   10   11 ar   
    22   10  136 1    
    23   11   12 ar   
    24   11  126 1    
    25   12   13 ar   
    26   12  137 1    
    27   13   14 ar   
    28   13   15 1    
    29   14  138 1    
    30   15   16 1    
    31   15  139 1    
    32   15  140 1    
    33   16   17 1    
    34   17   18 1    
    35   17  141 1    
    36   17  142 1    
    37   18   19 1    
    38   18   67 1    
    39   18  143 1    
    40   19   20 am   BACKBONE|DICT|INTERRES
    41   19  144 1    
    42   20   21 2    
    43   20   22 1    
    44   22   23 1    
    45   22   24 1    
    46   22  145 1    
    47   23  146 1    
    48   23  147 1    
    49   23  148 1    
    50   24   25 am   BACKBONE|DICT|INTERRES
    51   24  149 1    
    52   25   26 2    
    53   25   27 1    
    54   27   28 1    
    55   27   29 1    
    56   27  150 1    
    57   28  151 1    
    58   28  152 1    
    59   28  153 1    
    60   29   30 am   BACKBONE|DICT|INTERRES
    61   29  154 1    
    62   30   31 2    
    63   30   32 1    
    64   32   33 1    
    65   32   34 1    
    66   32  155 1    
    67   33  156 1    
    68   33  157 1    
    69   33  158 1    
    70   34   35 am   BACKBONE|DICT|INTERRES
    71   34  159 1    
    72   35   36 2    
    73   35   37 1    
    74   37   38 1    
    75   37   39 1    
    76   37  160 1    
    77   38  161 1    
    78   38  162 1    
    79   38  163 1    
    80   39   40 am   BACKBONE|DICT|INTERRES
    81   39  164 1    
    82   40   41 2    
    83   40   42 1    
    84   42   43 1    
    85   42   44 1    
    86   42  165 1    
    87   43  166 1    
    88   43  167 1    
    89   43  168 1    
    90   44   45 am   BACKBONE|DICT|INTERRES
    91   44  169 1    
    92   45   46 2    
    93   45   47 1    
    94   47   48 1    
    95   47   49 1    
    96   47  170 1    
    97   48  171 1    
    98   48  172 1    
    99   48  173 1    
   100   49   50 am   BACKBONE|DICT|INTERRES
   101   49  174 1    
   102   50   51 2    
   103   50   52 1    
   104   52   53 1    
   105   52   54 1    
   106   52  175 1    
   107   53  176 1    
   108   53  177 1    
   109   53  178 1    
   110   54   55 am   BACKBONE|DICT|INTERRES
   111   54  179 1    
   112   55   56 2    
   113   55   57 1    
   114   57   58 1    
   115   57   59 1    
   116   57  180 1    
   117   58  181 1    
   118   58  182 1    
   119   58  183 1    
   120   59   60 am   BACKBONE|DICT|INTERRES
   121   59  184 1    
   122   60   61 2    
   123   60   62 1    
   124   62   63 1    
   125   62   64 1    
   126   62  185 1    
   127   63  186 1    
   128   63  187 1    
   129   63  188 1    
   130   64   65 am   BACKBONE|DICT|INTERRES
   131   64  189 1    
   132   65   66 2    
   133   67   68 2    
   134   67   69 am   BACKBONE|DICT|INTERRES
   135   69   70 1    
   136   69  190 1    
   137   70   71 1    
   138   70   72 1    
   139   70  191 1    
   140   71  192 1    
   141   71  193 1    
   142   71  194 1    
   143   72   73 2    
   144   72   74 am   BACKBONE|DICT|INTERRES
   145   74   75 1    
   146   74  195 1    
   147   75   76 1    
   148   75   77 1    
   149   75  196 1    
   150   76  197 1    
   151   76  198 1    
   152   76  199 1    
   153   77   78 2    
   154   77   79 am   BACKBONE|DICT|INTERRES
   155   79   80 1    
   156   79  200 1    
   157   80   81 1    
   158   80   82 1    
   159   80  201 1    
   160   81  202 1    
   161   81  203 1    
   162   81  204 1    
   163   82   83 2    
   164   82   84 am   BACKBONE|DICT|INTERRES
   165   84   85 1    
   166   84  205 1    
   167   85   86 1    
   168   85   87 1    
   169   85  206 1    
   170   86  207 1    
   171   86  208 1    
   172   86  209 1    
   173   87   88 2    
   174   87   89 am   BACKBONE|DICT|INTERRES
   175   89   90 1    
   176   89  210 1    
   177   90   91 1    
   178   90   92 1    
   179   90  211 1    
   180   91  212 1    
   181   91  213 1    
   182   91  214 1    
   183   92   93 2    
   184   92   94 am   BACKBONE|DICT|INTERRES
   185   94   95 1    
   186   94  215 1    
   187   95   96 1    
   188   95   97 1    
   189   95  216 1    
   190   96  217 1    
   191   96  218 1    
   192   96  219 1    
   193   97   98 2    
   194   97   99 am   BACKBONE|DICT|INTERRES
   195   99  100 1    
   196   99  220 1    
   197  100  101 1    
   198  100  102 1    
   199  100  221 1    
   200  101  222 1    
   201  101  223 1    
   202  101  224 1    
   203  102  103 2    
   204  102  104 am   BACKBONE|DICT|INTERRES
   205  104  105 1    
   206  104  225 1    
   207  105  106 1    
   208  105  107 1    
   209  105  226 1    
   210  106  227 1    
   211  106  228 1    
   212  106  229 1    
   213  107  108 2    
   214  107  109 am   BACKBONE|DICT|INTERRES
   215  109  110 1    
   216  109  230 1    
   217  110  111 1    
   218  110  112 1    
   219  110  231 1    
   220  111  232 1    
   221  111  233 1    
   222  111  234 1    
   223  112  113 2    
   224  112  114 am   BACKBONE|DICT|INTERRES
   225  114  115 1    
   226  114  235 1    
   227  115  116 1    
   228  115  117 1    
   229  115  236 1    
   230  116  237 1    
   231  116  238 1    
   232  116  239 1    
   233  117  118 2    
   234  117  119 am   BACKBONE|DICT|INTERRES
   235  119  120 1    
   236  119  240 1    
   237  120  121 1    
   238  120  124 1    
   239  120  241 1    
   240  121  122 am   BACKBONE|DICT|INTERRES
   241  121  123 2    
   242  122  242 1    
   243  122  243 1    
   244  124  125 1    
   245  124  244 1    
   246  124  245 1    
   247  125  126 1    
   248  126  246 1    
   249  126  247 1    
@<TRIPOS>SUBSTRUCTURE
     1 UNK         1 GROUP             0       ****    0 ROOT    
