@<TRIPOS>MOLECULE
3R540
247   249    1
SMALL
USER_CHARGES


@<TRIPOS>ATOM
      1 CA          4.9568  -16.3946  -47.9562 C.3       0 UNK        -0.1800 
      2 C           3.4597  -16.1555  -48.0860 C.2       0 UNK         0.5000 
      3 O           2.6965  -16.5871  -47.2252 O.2       0 UNK        -0.5000 
      4 N           3.0419  -15.4640  -49.1543 N.am      1 UNK        -0.5000 
      5 CA          1.6383  -15.1885  -49.4947 C.3       1 UNK         0.1400 
      6 C6          1.5009  -14.5234  -50.8868 C.3       23 UNK        -0.0398 
      7 S7          2.2081  -15.5358  -52.2287 S.3       23 UNK        -0.2404 
      8 C8          0.7068  -16.2342  -52.9832 C.3       23 UNK        -0.0205 
      9 C9         -0.0097  -17.1928  -52.0443 C.ar      23 UNK        -0.0193 
     10 C10        -1.1822  -16.8054  -51.3878 C.ar      23 UNK        -0.1150 
     11 C11        -1.8422  -17.6924  -50.5313 C.ar      23 UNK        -0.0193 
     12 C12        -1.3157  -18.9710  -50.3282 C.ar      23 UNK        -0.1150 
     13 C13        -0.1391  -19.3640  -50.9717 C.ar      23 UNK        -0.0193 
     14 C14         0.5036  -18.4746  -51.8351 C.ar      23 UNK        -0.1150 
     15 C15         0.4342  -20.7529  -50.7501 C.3       23 UNK        -0.0205 
     16 S16         1.8553  -20.7388  -49.6103 S.3       23 UNK        -0.2404 
     17 C17         1.0755  -20.4069  -47.9924 C.3       23 UNK        -0.0398 
     18 CA          0.7295  -21.7113  -47.2307 C.3       11 UNK         0.1400 
     19 N           0.8089  -21.5609  -45.7774 N.am      11 UNK        -0.5000 
     20 C           0.7485  -22.5804  -44.9083 C.2       10 UNK         0.5000 
     21 O           0.6774  -23.7632  -45.2447 O.2       10 UNK        -0.5000 
     22 CA          0.7068  -22.2160  -43.4137 C.3       10 UNK         0.1400 
     23 CB          2.1173  -21.9264  -42.8799 C.3       10 UNK        -0.1800 
     24 N          -0.1774  -21.0816  -43.1373 N.am      10 UNK        -0.5000 
     25 C          -1.5026  -21.0957  -43.3439 C.2       9 UNK         0.5000 
     26 O          -2.1178  -22.0822  -43.7449 O.2       9 UNK        -0.5000 
     27 CA         -2.2704  -19.7861  -43.0991 C.3       9 UNK         0.1400 
     28 CB         -2.5478  -19.5932  -41.6010 C.3       9 UNK        -0.1800 
     29 N          -1.5781  -18.6129  -43.6297 N.am      9 UNK        -0.5000 
     30 C          -1.3142  -18.3960  -44.9270 C.2       8 UNK         0.5000 
     31 O          -1.6566  -19.1537  -45.8347 O.2       8 UNK        -0.5000 
     32 CA         -0.4677  -17.1529  -45.2567 C.3       8 UNK         0.1400 
     33 CB         -1.3129  -15.8727  -45.1876 C.3       8 UNK        -0.1800 
     34 N           0.6891  -17.0247  -44.3714 N.am      8 UNK        -0.5000 
     35 C           1.6724  -17.9321  -44.2785 C.2       7 UNK         0.5000 
     36 O           1.7175  -18.9738  -44.9323 O.2       7 UNK        -0.5000 
     37 CA          2.7586  -17.6558  -43.2301 C.3       7 UNK         0.1400 
     38 CB          3.7744  -16.6399  -43.7654 C.3       7 UNK        -0.1800 
     39 N           2.1857  -17.1807  -41.9700 N.am      7 UNK        -0.5000 
     40 C           1.4591  -17.9505  -41.1460 C.2       6 UNK         0.5000 
     41 O           1.2203  -19.1397  -41.3547 O.2       6 UNK        -0.5000 
     42 CA          0.8644  -17.2700  -39.9002 C.3       6 UNK         0.1400 
     43 CB          1.9180  -17.1545  -38.7884 C.3       6 UNK        -0.1800 
     44 N           0.3105  -15.9463  -40.1835 N.am      6 UNK        -0.5000 
     45 C          -0.7227  -15.7105  -41.0045 C.2       5 UNK         0.5000 
     46 O          -1.3339  -16.5914  -41.6066 O.2       5 UNK        -0.5000 
     47 CA         -1.1195  -14.2390  -41.2180 C.3       5 UNK         0.1400 
     48 CB         -2.1985  -13.8215  -40.2080 C.3       5 UNK        -0.1800 
     49 N           0.0087  -13.3075  -41.1343 N.am      5 UNK        -0.5000 
     50 C           1.0607  -13.3089  -41.9629 C.2       4 UNK         0.5000 
     51 O           1.2071  -14.1339  -42.8709 O.2       4 UNK        -0.5000 
     52 CA          2.0966  -12.1915  -41.7236 C.3       4 UNK         0.1400 
     53 CB          2.8762  -12.4011  -40.4086 C.3       4 UNK        -0.1800 
     54 N           2.9788  -12.0165  -42.8807 N.am      4 UNK        -0.5000 
     55 C           3.9802  -12.8011  -43.3008 C.2       3 UNK         0.5000 
     56 O           4.5115  -13.6787  -42.6194 O.2       3 UNK        -0.5000 
     57 CA          4.4088  -12.5879  -44.7691 C.3       3 UNK         0.1400 
     58 CB          5.5823  -13.4914  -45.1886 C.3       3 UNK        -0.1800 
     59 N           3.2819  -12.8239  -45.6796 N.am      3 UNK        -0.5000 
     60 C           2.2912  -11.9539  -45.9259 C.2       2 UNK         0.5000 
     61 O           2.2545  -10.8247  -45.4331 O.2       2 UNK        -0.5000 
     62 CA          1.1576  -12.4238  -46.8542 C.3       2 UNK         0.1400 
     63 CB          0.4348  -11.2563  -47.5558 C.3       2 UNK        -0.1800 
     64 N           1.6558  -13.3733  -47.8470 N.am      2 UNK        -0.5000 
     65 C           0.9198  -14.3202  -48.4419 C.2       1 UNK         0.5000 
     66 O          -0.2730  -14.5138  -48.2061 O.2       1 UNK        -0.5000 
     67 C          -0.6363  -22.2816  -47.6597 C.2       11 UNK         0.5000 
     68 O          -0.6705  -23.2463  -48.4206 O.2       11 UNK        -0.5000 
     69 N          -1.7322  -21.7189  -47.1306 N.am      12 UNK        -0.5000 
     70 CA         -3.1002  -22.1792  -47.3772 C.3       12 UNK         0.1400 
     71 CB         -4.0947  -21.2055  -46.7298 C.3       12 UNK        -0.1800 
     72 C          -3.3560  -23.6211  -46.8982 C.2       12 UNK         0.5000 
     73 O          -4.0637  -24.3649  -47.5752 O.2       12 UNK        -0.5000 
     74 N          -2.7607  -24.0147  -45.7654 N.am      13 UNK        -0.5000 
     75 CA         -2.8100  -25.3843  -45.2524 C.3       13 UNK         0.1400 
     76 CB         -2.2395  -25.4243  -43.8267 C.3       13 UNK        -0.1800 
     77 C          -2.0771  -26.3859  -46.1657 C.2       13 UNK         0.5000 
     78 O          -2.5766  -27.4918  -46.3756 O.2       13 UNK        -0.5000 
     79 N          -0.9188  -25.9782  -46.7009 N.am      14 UNK        -0.5000 
     80 CA         -0.0942  -26.7849  -47.5988 C.3       14 UNK         0.1400 
     81 CB          1.3288  -26.2050  -47.6336 C.3       14 UNK        -0.1800 
     82 C          -0.6751  -26.8856  -49.0217 C.2       14 UNK         0.5000 
     83 O          -0.7226  -27.9804  -49.5835 O.2       14 UNK        -0.5000 
     84 N          -1.0873  -25.7429  -49.5840 N.am      15 UNK        -0.5000 
     85 CA         -1.5052  -25.5972  -50.9809 C.3       15 UNK         0.1400 
     86 CB         -1.0620  -24.2135  -51.4756 C.3       15 UNK        -0.1800 
     87 C          -3.0156  -25.8042  -51.2109 C.2       15 UNK         0.5000 
     88 O          -3.4559  -25.7157  -52.3572 O.2       15 UNK        -0.5000 
     89 N          -3.7694  -26.0839  -50.1393 N.am      16 UNK        -0.5000 
     90 CA         -5.2101  -26.3456  -50.0948 C.3       16 UNK         0.1400 
     91 CB         -5.6037  -27.5463  -50.9816 C.3       16 UNK        -0.1800 
     92 C          -6.0511  -25.0853  -50.3794 C.2       16 UNK         0.5000 
     93 O          -6.5634  -24.9002  -51.4854 O.2       16 UNK        -0.5000 
     94 N          -6.1900  -24.2586  -49.3369 N.am      17 UNK        -0.5000 
     95 CA         -7.0370  -23.0727  -49.2164 C.3       17 UNK         0.1400 
     96 CB         -8.5326  -23.4473  -49.3241 C.3       17 UNK        -0.1800 
     97 C          -6.6044  -21.9470  -50.1706 C.2       17 UNK         0.5000 
     98 O          -5.6645  -21.2209  -49.8501 O.2       17 UNK        -0.5000 
     99 N          -7.3021  -21.8161  -51.3066 N.am      18 UNK        -0.5000 
    100 CA        -7.1167  -20.7692  -52.3134 C.3       18 UNK         0.1400 
    101 CB        -8.2411  -20.8906  -53.3536 C.3       18 UNK        -0.1800 
    102 C         -5.7455  -20.7894  -53.0122 C.2       18 UNK         0.5000 
    103 O         -5.3461  -19.7693  -53.5771 O.2       18 UNK        -0.5000 
    104 N         -5.0676  -21.9484  -53.0059 N.am      19 UNK        -0.5000 
    105 CA        -3.6925  -22.1800  -53.4754 C.3       19 UNK         0.1400 
    106 CB        -2.7136  -21.3574  -52.6107 C.3       19 UNK        -0.1800 
    107 C         -3.4499  -21.9148  -54.9791 C.2       19 UNK         0.5000 
    108 O         -2.3000  -21.9509  -55.4187 O.2       19 UNK        -0.5000 
    109 N         -4.5231  -21.6104  -55.7257 N.am      20 UNK        -0.5000 
    110 CA        -4.5388  -20.9998  -57.0591 C.3       20 UNK         0.1400 
    111 CB        -3.9969  -21.9787  -58.1217 C.3       20 UNK        -0.1800 
    112 C         -3.8381  -19.6191  -57.0905 C.2       20 UNK         0.5000 
    113 O         -3.2939  -19.2363  -58.1283 O.2       20 UNK        -0.5000 
    114 N         -3.8479  -18.9042  -55.9540 N.am      21 UNK        -0.5000 
    115 CA        -3.0953  -17.6648  -55.7509 C.3       21 UNK         0.1400 
    116 CB        -1.7174  -18.0037  -55.1602 C.3       21 UNK        -0.1800 
    117 C         -3.8225  -16.6335  -54.8703 C.2       21 UNK         0.5000 
    118 O         -3.5254  -15.4441  -54.9933 O.2       21 UNK        -0.5000 
    119 N         -4.7511  -17.0719  -54.0119 N.am      22 UNK        -0.5000 
    120 CA        -5.5109  -16.2121  -53.0890 C.3       22 UNK         0.1400 
    121 C         -7.0229  -16.5671  -52.9917 C.2       22 UNK         0.5000 
    122 N         -7.5632  -17.4032  -53.8693 N.am      22 UNK        -0.7600 
    123 O         -7.7320  -16.0486  -52.1332 O.2       22 UNK        -0.5000 
    124 C124       -4.8097  -16.0612  -51.7121 C.3       23 UNK        -0.0398 
    125 S125       -4.6054  -17.6245  -50.7863 S.3       23 UNK        -0.2404 
    126 C126       -3.1115  -17.2740  -49.8047 C.3       23 UNK        -0.0205 
    127 H127        5.3105  -16.0576  -46.9828 H         1 UNK         0.0600 
    128 H128        5.5207  -15.8656  -48.7247 H         1 UNK         0.0600 
    129 H129        5.1727  -17.4591  -48.0462 H         1 UNK         0.0600 
    130 H130        3.7190  -15.1565  -49.8380 H         1 UNK         0.3000 
    131 H131        1.1196  -16.1495  -49.5206 H         1 UNK         0.0600 
    132 H132        0.4542  -14.3125  -51.1135 H         1 UNK         0.0800 
    133 H133        2.0075  -13.5567  -50.8984 H         1 UNK         0.0800 
    134 H134        0.9924  -16.7672  -53.8910 H         1 UNK         0.0800 
    135 H135        0.0427  -15.4279  -53.2988 H         1 UNK         0.0800 
    136 H136       -1.5771  -15.8120  -51.5411 H         1 UNK         0.1150 
    137 H137       -1.8233  -19.6595  -49.6667 H         1 UNK         0.1150 
    138 H138        1.4127  -18.7762  -52.3363 H         1 UNK         0.1150 
    139 H139       -0.3355  -21.4301  -50.3835 H         1 UNK         0.0800 
    140 H140        0.7594  -21.1625  -51.7075 H         1 UNK         0.0800 
    141 H141        0.2142  -19.7455  -48.0952 H         1 UNK         0.0800 
    142 H142        1.8096  -19.8327  -47.4261 H         1 UNK         0.0800 
    143 H143        1.4821  -22.4603  -47.4883 H         1 UNK         0.0600 
    144 H144        0.9161  -20.6145  -45.4194 H         1 UNK         0.3000 
    145 H145        0.3146  -23.0810  -42.8749 H         1 UNK         0.0600 
    146 H146        2.1035  -21.7591  -41.8028 H         1 UNK         0.0600 
    147 H147        2.7866  -22.7664  -43.0696 H         1 UNK         0.0600 
    148 H148        2.5545  -21.0453  -43.3495 H         1 UNK         0.0600 
    149 H149        0.2579  -20.2451  -42.7621 H         1 UNK         0.3000 
    150 H150       -3.2303  -19.8635  -43.6133 H         1 UNK         0.0600 
    151 H151       -3.0686  -20.4565  -41.1848 H         1 UNK         0.0600 
    152 H152       -3.1760  -18.7196  -41.4266 H         1 UNK         0.0600 
    153 H153       -1.6253  -19.4599  -41.0347 H         1 UNK         0.0600 
    154 H154       -1.2915  -17.9152  -42.9475 H         1 UNK         0.3000 
    155 H155       -0.0926  -17.2601  -46.2771 H         1 UNK         0.0600 
    156 H156       -1.7406  -15.7206  -44.1968 H         1 UNK         0.0600 
    157 H157       -2.1374  -15.9144  -45.9003 H         1 UNK         0.0600 
    158 H158       -0.7163  -14.9943  -45.4328 H         1 UNK         0.0600 
    159 H159        0.7383  -16.1950  -43.7936 H         1 UNK         0.3000 
    160 H160        3.2869  -18.5913  -43.0343 H         1 UNK         0.0600 
    161 H161        3.2965  -15.6915  -44.0113 H         1 UNK         0.0600 
    162 H162        4.2502  -17.0093  -44.6747 H         1 UNK         0.0600 
    163 H163        4.5634  -16.4450  -43.0391 H         1 UNK         0.0600 
    164 H164        2.2945  -16.1985  -41.7607 H         1 UNK         0.3000 
    165 H165        0.0512  -17.9012  -39.5354 H         1 UNK         0.0600 
    166 H166        1.4823  -16.7552  -37.8724 H         1 UNK         0.0600 
    167 H167        2.3393  -18.1315  -38.5475 H         1 UNK         0.0600 
    168 H168        2.7433  -16.5035  -39.0797 H         1 UNK         0.0600 
    169 H169        0.7547  -15.1590  -39.7354 H         1 UNK         0.3000 
    170 H170       -1.5428  -14.1575  -42.2212 H         1 UNK         0.0600 
    171 H171       -3.0622  -14.4857  -40.2629 H         1 UNK         0.0600 
    172 H172       -1.8253  -13.8524  -39.1836 H         1 UNK         0.0600 
    173 H173       -2.5552  -12.8107  -40.4062 H         1 UNK         0.0600 
    174 H174       -0.0476  -12.6006  -40.4152 H         1 UNK         0.3000 
    175 H175        1.5432  -11.2552  -41.6382 H         1 UNK         0.0600 
    176 H176        3.3225  -13.3941  -40.3490 H         1 UNK         0.0600 
    177 H177        3.6737  -11.6660  -40.2999 H         1 UNK         0.0600 
    178 H178        2.2194  -12.2940  -39.5449 H         1 UNK         0.0600 
    179 H179        2.6314  -11.3590  -43.5726 H         1 UNK         0.3000 
    180 H180        4.7384  -11.5514  -44.8673 H         1 UNK         0.0600 
    181 H181        5.3310  -14.5478  -45.0979 H         1 UNK         0.0600 
    182 H182        6.4573  -13.3083  -44.5639 H         1 UNK         0.0600 
    183 H183        5.8762  -13.3036  -46.2214 H         1 UNK         0.0600 
    184 H184        3.1962  -13.7600  -46.0475 H         1 UNK         0.3000 
    185 H185        0.4390  -12.9330  -46.2088 H         1 UNK         0.0600 
    186 H186        0.0168  -10.5571  -46.8306 H         1 UNK         0.0600 
    187 H187        1.1134  -10.6975  -48.2011 H         1 UNK         0.0600 
    188 H188       -0.3932  -11.6121  -48.1688 H         1 UNK         0.0600 
    189 H189        2.6278  -13.2781  -48.1074 H         1 UNK         0.3000 
    190 H190       -1.6316  -20.9053  -46.5278 H         1 UNK         0.3000 
    191 H191       -3.2639  -22.1607  -48.4570 H         1 UNK         0.0600 
    192 H192       -3.9522  -21.1424  -45.6511 H         1 UNK         0.0600 
    193 H193       -5.1233  -21.5192  -46.9088 H         1 UNK         0.0600 
    194 H194       -3.9865  -20.2024  -47.1431 H         1 UNK         0.0600 
    195 H195       -2.2615  -23.3295  -45.2052 H         1 UNK         0.3000 
    196 H196       -3.8582  -25.6865  -45.2034 H         1 UNK         0.0600 
    197 H197       -2.2826  -26.4340  -43.4167 H         1 UNK         0.0600 
    198 H198       -2.8069  -24.7771  -43.1577 H         1 UNK         0.0600 
    199 H199       -1.1984  -25.1024  -43.7989 H         1 UNK         0.0600 
    200 H200       -0.5647  -25.0601  -46.4568 H         1 UNK         0.3000 
    201 H201       -0.0322  -27.7967  -47.1922 H         1 UNK         0.0600 
    202 H202        1.7780  -26.2066  -46.6403 H         1 UNK         0.0600 
    203 H203        1.3381  -25.1778  -48.0002 H         1 UNK         0.0600 
    204 H204        1.9758  -26.7934  -48.2853 H         1 UNK         0.0600 
    205 H205       -0.9927  -24.8750  -49.0565 H         1 UNK         0.3000 
    206 H206       -0.9875  -26.3437  -51.5866 H         1 UNK         0.0600 
    207 H207        0.0055  -24.0578  -51.3179 H         1 UNK         0.0600 
    208 H208       -1.2522  -24.0961  -52.5428 H         1 UNK         0.0600 
    209 H209       -1.5967  -23.4231  -50.9506 H         1 UNK         0.0600 
    210 H210       -3.3073  -26.0669  -49.2401 H         1 UNK         0.3000 
    211 H211       -5.4220  -26.6400  -49.0654 H         1 UNK         0.0600 
    212 H212       -5.4625  -27.3431  -52.0431 H         1 UNK         0.0600 
    213 H213       -6.6549  -27.7995  -50.8406 H         1 UNK         0.0600 
    214 H214       -5.0193  -28.4309  -50.7287 H         1 UNK         0.0600 
    215 H215       -5.5868  -24.4328  -48.5343 H         1 UNK         0.3000 
    216 H216       -6.8772  -22.6908  -48.2072 H         1 UNK         0.0600 
    217 H217       -9.1652  -22.5657  -49.2123 H         1 UNK         0.0600 
    218 H218       -8.8140  -24.1450  -48.5352 H         1 UNK         0.0600 
    219 H219       -8.7821  -23.9142  -50.2771 H         1 UNK         0.0600 
    220 H220       -8.0280  -22.4930  -51.4927 H         1 UNK         0.3000 
    221 H221       -7.2068  -19.8019  -51.8144 H         1 UNK         0.0600 
    222 H222       -9.2188  -20.7391  -52.8958 H         1 UNK         0.0600 
    223 H223       -8.1353  -20.1457  -54.1425 H         1 UNK         0.0600 
    224 H224       -8.2418  -21.8712  -53.8313 H         1 UNK         0.0600 
    225 H225       -5.5111  -22.7392  -52.5566 H         1 UNK         0.3000 
    226 H226       -3.4865  -23.2372  -53.3128 H         1 UNK         0.0600 
    227 H227       -1.6775  -21.6169  -52.8283 H         1 UNK         0.0600 
    228 H228       -2.8184  -20.2861  -52.7854 H         1 UNK         0.0600 
    229 H229       -2.8811  -21.5320  -51.5479 H         1 UNK         0.0600 
    230 H230       -5.4125  -21.6185  -55.2476 H         1 UNK         0.3000 
    231 H231       -5.5870  -20.8089  -57.2926 H         1 UNK         0.0600 
    232 H232       -4.5036  -22.9420  -58.0652 H         1 UNK         0.0600 
    233 H233       -2.9273  -22.1544  -58.0047 H         1 UNK         0.0600 
    234 H234       -4.1545  -21.5894  -59.1281 H         1 UNK         0.0600 
    235 H235       -4.3261  -19.2865  -55.1441 H         1 UNK         0.3000 
    236 H236       -2.9402  -17.1758  -56.7149 H         1 UNK         0.0600 
    237 H237       -1.1146  -17.1027  -55.0510 H         1 UNK         0.0600 
    238 H238       -1.8054  -18.4666  -54.1765 H         1 UNK         0.0600 
    239 H239       -1.1650  -18.6880  -55.8043 H         1 UNK         0.0600 
    240 H240       -4.9245  -18.0681  -53.8985 H         1 UNK         0.3000 
    241 H241       -5.5405  -15.2107  -53.5217 H         1 UNK         0.0600 
    242 H242       -7.0043  -17.8128  -54.5996 H         1 UNK         0.3800 
    243 H243       -8.5487  -17.6044  -53.8149 H         1 UNK         0.3800 
    244 H244       -3.8308  -15.6107  -51.8693 H         1 UNK         0.0800 
    245 H245       -5.3538  -15.3573  -51.0805 H         1 UNK         0.0800 
    246 H246       -3.0694  -16.2157  -49.5422 H         1 UNK         0.0800 
    247 H247       -3.1851  -17.8136  -48.8589 H         1 UNK         0.0800 
@<TRIPOS>BOND
     1    1    2 1    
     2    1  127 1    
     3    1  128 1    
     4    1  129 1    
     5    2    3 2    
     6    2    4 am   BACKBONE|DICT|INTERRES
     7    4    5 1    
     8    4  130 1    
     9    5    6 1    
    10    5   65 1    
    11    5  131 1    
    12    6    7 1    
    13    6  132 1    
    14    6  133 1    
    15    7    8 1    
    16    8    9 1    
    17    8  134 1    
    18    8  135 1    
    19    9   10 ar   
    20    9   14 ar   
    21   10   11 ar   
    22   10  136 1    
    23   11   12 ar   
    24   11  126 1    
    25   12   13 ar   
    26   12  137 1    
    27   13   14 ar   
    28   13   15 1    
    29   14  138 1    
    30   15   16 1    
    31   15  139 1    
    32   15  140 1    
    33   16   17 1    
    34   17   18 1    
    35   17  141 1    
    36   17  142 1    
    37   18   19 1    
    38   18   67 1    
    39   18  143 1    
    40   19   20 am   BACKBONE|DICT|INTERRES
    41   19  144 1    
    42   20   21 2    
    43   20   22 1    
    44   22   23 1    
    45   22   24 1    
    46   22  145 1    
    47   23  146 1    
    48   23  147 1    
    49   23  148 1    
    50   24   25 am   BACKBONE|DICT|INTERRES
    51   24  149 1    
    52   25   26 2    
    53   25   27 1    
    54   27   28 1    
    55   27   29 1    
    56   27  150 1    
    57   28  151 1    
    58   28  152 1    
    59   28  153 1    
    60   29   30 am   BACKBONE|DICT|INTERRES
    61   29  154 1    
    62   30   31 2    
    63   30   32 1    
    64   32   33 1    
    65   32   34 1    
    66   32  155 1    
    67   33  156 1    
    68   33  157 1    
    69   33  158 1    
    70   34   35 am   BACKBONE|DICT|INTERRES
    71   34  159 1    
    72   35   36 2    
    73   35   37 1    
    74   37   38 1    
    75   37   39 1    
    76   37  160 1    
    77   38  161 1    
    78   38  162 1    
    79   38  163 1    
    80   39   40 am   BACKBONE|DICT|INTERRES
    81   39  164 1    
    82   40   41 2    
    83   40   42 1    
    84   42   43 1    
    85   42   44 1    
    86   42  165 1    
    87   43  166 1    
    88   43  167 1    
    89   43  168 1    
    90   44   45 am   BACKBONE|DICT|INTERRES
    91   44  169 1    
    92   45   46 2    
    93   45   47 1    
    94   47   48 1    
    95   47   49 1    
    96   47  170 1    
    97   48  171 1    
    98   48  172 1    
    99   48  173 1    
   100   49   50 am   BACKBONE|DICT|INTERRES
   101   49  174 1    
   102   50   51 2    
   103   50   52 1    
   104   52   53 1    
   105   52   54 1    
   106   52  175 1    
   107   53  176 1    
   108   53  177 1    
   109   53  178 1    
   110   54   55 am   BACKBONE|DICT|INTERRES
   111   54  179 1    
   112   55   56 2    
   113   55   57 1    
   114   57   58 1    
   115   57   59 1    
   116   57  180 1    
   117   58  181 1    
   118   58  182 1    
   119   58  183 1    
   120   59   60 am   BACKBONE|DICT|INTERRES
   121   59  184 1    
   122   60   61 2    
   123   60   62 1    
   124   62   63 1    
   125   62   64 1    
   126   62  185 1    
   127   63  186 1    
   128   63  187 1    
   129   63  188 1    
   130   64   65 am   BACKBONE|DICT|INTERRES
   131   64  189 1    
   132   65   66 2    
   133   67   68 2    
   134   67   69 am   BACKBONE|DICT|INTERRES
   135   69   70 1    
   136   69  190 1    
   137   70   71 1    
   138   70   72 1    
   139   70  191 1    
   140   71  192 1    
   141   71  193 1    
   142   71  194 1    
   143   72   73 2    
   144   72   74 am   BACKBONE|DICT|INTERRES
   145   74   75 1    
   146   74  195 1    
   147   75   76 1    
   148   75   77 1    
   149   75  196 1    
   150   76  197 1    
   151   76  198 1    
   152   76  199 1    
   153   77   78 2    
   154   77   79 am   BACKBONE|DICT|INTERRES
   155   79   80 1    
   156   79  200 1    
   157   80   81 1    
   158   80   82 1    
   159   80  201 1    
   160   81  202 1    
   161   81  203 1    
   162   81  204 1    
   163   82   83 2    
   164   82   84 am   BACKBONE|DICT|INTERRES
   165   84   85 1    
   166   84  205 1    
   167   85   86 1    
   168   85   87 1    
   169   85  206 1    
   170   86  207 1    
   171   86  208 1    
   172   86  209 1    
   173   87   88 2    
   174   87   89 am   BACKBONE|DICT|INTERRES
   175   89   90 1    
   176   89  210 1    
   177   90   91 1    
   178   90   92 1    
   179   90  211 1    
   180   91  212 1    
   181   91  213 1    
   182   91  214 1    
   183   92   93 2    
   184   92   94 am   BACKBONE|DICT|INTERRES
   185   94   95 1    
   186   94  215 1    
   187   95   96 1    
   188   95   97 1    
   189   95  216 1    
   190   96  217 1    
   191   96  218 1    
   192   96  219 1    
   193   97   98 2    
   194   97   99 am   BACKBONE|DICT|INTERRES
   195   99  100 1    
   196   99  220 1    
   197  100  101 1    
   198  100  102 1    
   199  100  221 1    
   200  101  222 1    
   201  101  223 1    
   202  101  224 1    
   203  102  103 2    
   204  102  104 am   BACKBONE|DICT|INTERRES
   205  104  105 1    
   206  104  225 1    
   207  105  106 1    
   208  105  107 1    
   209  105  226 1    
   210  106  227 1    
   211  106  228 1    
   212  106  229 1    
   213  107  108 2    
   214  107  109 am   BACKBONE|DICT|INTERRES
   215  109  110 1    
   216  109  230 1    
   217  110  111 1    
   218  110  112 1    
   219  110  231 1    
   220  111  232 1    
   221  111  233 1    
   222  111  234 1    
   223  112  113 2    
   224  112  114 am   BACKBONE|DICT|INTERRES
   225  114  115 1    
   226  114  235 1    
   227  115  116 1    
   228  115  117 1    
   229  115  236 1    
   230  116  237 1    
   231  116  238 1    
   232  116  239 1    
   233  117  118 2    
   234  117  119 am   BACKBONE|DICT|INTERRES
   235  119  120 1    
   236  119  240 1    
   237  120  121 1    
   238  120  124 1    
   239  120  241 1    
   240  121  122 am   BACKBONE|DICT|INTERRES
   241  121  123 2    
   242  122  242 1    
   243  122  243 1    
   244  124  125 1    
   245  124  244 1    
   246  124  245 1    
   247  125  126 1    
   248  126  246 1    
   249  126  247 1    
@<TRIPOS>SUBSTRUCTURE
     1 UNK         1 GROUP             0       ****    0 ROOT    
