@<TRIPOS>MOLECULE
3R540
247   249    1
SMALL
USER_CHARGES


@<TRIPOS>ATOM
      1 CA         -3.2058  -17.9459  -44.5681 C.3       0 UNK        -0.1800 
      2 C          -3.1457  -16.4917  -45.0023 C.2       0 UNK         0.5000 
      3 O          -3.1200  -15.5957  -44.1597 O.2       0 UNK        -0.5000 
      4 N          -3.1234  -16.2526  -46.3176 N.am      1 UNK        -0.5000 
      5 CA         -3.1078  -14.9321  -46.9602 C.3       1 UNK         0.1400 
      6 C6         -3.8095  -14.9389  -48.3514 C.3       23 UNK        -0.0398 
      7 S7         -3.5489  -16.4406  -49.3632 S.3       23 UNK        -0.2404 
      8 C8         -2.3734  -15.9132  -50.6438 C.3       23 UNK        -0.0205 
      9 C9         -1.1367  -16.7932  -50.6090 C.ar      23 UNK        -0.0193 
     10 C10        -1.1923  -18.1066  -51.0828 C.ar      23 UNK        -0.1150 
     11 C11        -0.0694  -18.9359  -51.0160 C.ar      23 UNK        -0.0193 
     12 C12         1.1174  -18.4408  -50.4671 C.ar      23 UNK        -0.1150 
     13 C13         1.1679  -17.1436  -49.9494 C.ar      23 UNK        -0.0193 
     14 C14         0.0493  -16.3145  -50.0534 C.ar      23 UNK        -0.1150 
     15 C15         2.3916  -16.6581  -49.1895 C.3       23 UNK        -0.0205 
     16 S16         2.6143  -17.4986  -47.5791 S.3       23 UNK        -0.2404 
     17 C17         0.9158  -17.8802  -46.9956 C.3       23 UNK        -0.0398 
     18 CA          0.6310  -19.4016  -47.0873 C.3       11 UNK         0.1400 
     19 N           1.4666  -20.1519  -46.1409 N.am      11 UNK        -0.5000 
     20 C           1.7619  -21.4560  -46.1999 C.2       10 UNK         0.5000 
     21 O           1.2777  -22.2211  -47.0322 O.2       10 UNK        -0.5000 
     22 CA          2.7255  -21.9962  -45.1302 C.3       10 UNK         0.1400 
     23 CB          4.1799  -21.6740  -45.5069 C.3       10 UNK        -0.1800 
     24 N           2.4303  -21.4190  -43.8181 N.am      10 UNK        -0.5000 
     25 C           1.7186  -22.0233  -42.8565 C.2       9 UNK         0.5000 
     26 O           1.2841  -23.1719  -42.9489 O.2       9 UNK        -0.5000 
     27 CA          1.4250  -21.2105  -41.5756 C.3       9 UNK         0.1400 
     28 CB          2.5122  -21.4603  -40.5197 C.3       9 UNK        -0.1800 
     29 N           1.3072  -19.7688  -41.8001 N.am      9 UNK        -0.5000 
     30 C           0.3976  -19.1870  -42.5932 C.2       8 UNK         0.5000 
     31 O          -0.4981  -19.8035  -43.1660 O.2       8 UNK        -0.5000 
     32 CA          0.5464  -17.6740  -42.8402 C.3       8 UNK         0.1400 
     33 CB         -0.3186  -16.8774  -41.8551 C.3       8 UNK        -0.1800 
     34 N           1.9300  -17.1869  -42.7873 N.am      8 UNK        -0.5000 
     35 C           2.9520  -17.6407  -43.5298 C.2       7 UNK         0.5000 
     36 O           2.8542  -18.5703  -44.3275 O.2       7 UNK        -0.5000 
     37 CA          4.3249  -16.9932  -43.3014 C.3       7 UNK         0.1400 
     38 CB          4.4051  -15.6073  -43.9574 C.3       7 UNK        -0.1800 
     39 N           4.6178  -16.8931  -41.8743 N.am      7 UNK        -0.5000 
     40 C           5.0312  -17.9222  -41.1208 C.2       6 UNK         0.5000 
     41 O           5.3013  -19.0357  -41.5707 O.2       6 UNK        -0.5000 
     42 CA          5.1398  -17.6733  -39.6047 C.3       6 UNK         0.1400 
     43 CB          6.5468  -17.1770  -39.2393 C.3       6 UNK        -0.1800 
     44 N           4.1498  -16.7140  -39.1128 N.am      6 UNK        -0.5000 
     45 C           2.8274  -16.9319  -39.0787 C.2       5 UNK         0.5000 
     46 O           2.2964  -17.9858  -39.4300 O.2       5 UNK        -0.5000 
     47 CA          1.9537  -15.7494  -38.6170 C.3       5 UNK         0.1400 
     48 CB          1.8180  -15.7440  -37.0872 C.3       5 UNK        -0.1800 
     49 N           2.4580  -14.4464  -39.0658 N.am      5 UNK        -0.5000 
     50 C           2.5666  -14.0772  -40.3487 C.2       4 UNK         0.5000 
     51 O           2.2859  -14.8119  -41.2972 O.2       4 UNK        -0.5000 
     52 CA          3.1460  -12.6835  -40.6257 C.3       4 UNK         0.1400 
     53 CB          4.6289  -12.7906  -41.0143 C.3       4 UNK        -0.1800 
     54 N           2.4111  -12.0396  -41.7124 N.am      4 UNK        -0.5000 
     55 C           1.2888  -11.3297  -41.5428 C.2       3 UNK         0.5000 
     56 O           0.7796  -11.1077  -40.4431 O.2       3 UNK        -0.5000 
     57 CA          0.6295  -10.7558  -42.8103 C.3       3 UNK         0.1400 
     58 CB          1.2412   -9.3905  -43.1620 C.3       3 UNK        -0.1800 
     59 N           0.7243  -11.6389  -43.9759 N.am      3 UNK        -0.5000 
     60 C          -0.0026  -12.7520  -44.1344 C.2       2 UNK         0.5000 
     61 O          -0.7743  -13.1947  -43.2804 O.2       2 UNK        -0.5000 
     62 CA          0.1411  -13.4760  -45.4818 C.3       2 UNK         0.1400 
     63 CB          1.3166  -14.4620  -45.4647 C.3       2 UNK        -0.1800 
     64 N          -1.0983  -14.1935  -45.7620 N.am      2 UNK        -0.5000 
     65 C          -1.7008  -14.2871  -46.9522 C.2       1 UNK         0.5000 
     66 O          -1.2010  -13.8636  -47.9946 O.2       1 UNK        -0.5000 
     67 C          -0.8774  -19.7412  -47.0065 C.2       11 UNK         0.5000 
     68 O          -1.6657  -19.2074  -47.7853 O.2       11 UNK        -0.5000 
     69 N          -1.2592  -20.6523  -46.1033 N.am      12 UNK        -0.5000 
     70 CA         -2.5707  -21.2948  -46.0557 C.3       12 UNK         0.1400 
     71 CB         -2.8175  -21.8091  -44.6290 C.3       12 UNK        -0.1800 
     72 C          -2.7290  -22.4395  -47.0792 C.2       12 UNK         0.5000 
     73 O          -3.8448  -22.9428  -47.2204 O.2       12 UNK        -0.5000 
     74 N          -1.6420  -22.8424  -47.7604 N.am      13 UNK        -0.5000 
     75 CA         -1.5863  -23.9322  -48.7429 C.3       13 UNK         0.1400 
     76 CB         -0.2017  -23.9546  -49.4068 C.3       13 UNK        -0.1800 
     77 C          -2.6849  -23.8692  -49.8217 C.2       13 UNK         0.5000 
     78 O          -2.9550  -22.7942  -50.3629 O.2       13 UNK        -0.5000 
     79 N          -3.2982  -25.0319  -50.0870 N.am      14 UNK        -0.5000 
     80 CA         -4.4394  -25.2535  -50.9842 C.3       14 UNK         0.1400 
     81 CB         -4.0380  -25.0337  -52.4565 C.3       14 UNK        -0.1800 
     82 C          -5.6996  -24.4591  -50.5794 C.2       14 UNK         0.5000 
     83 O          -6.4715  -24.0599  -51.4484 O.2       14 UNK        -0.5000 
     84 N          -5.8805  -24.2536  -49.2649 N.am      15 UNK        -0.5000 
     85 CA         -6.9369  -23.4579  -48.6311 C.3       15 UNK         0.1400 
     86 CB         -8.3272  -24.0888  -48.8609 C.3       15 UNK        -0.1800 
     87 C          -6.8562  -21.9770  -49.0520 C.2       15 UNK         0.5000 
     88 O          -7.8294  -21.4198  -49.5622 O.2       15 UNK        -0.5000 
     89 N          -5.6724  -21.3860  -48.8302 N.am      16 UNK        -0.5000 
     90 CA         -5.2770  -20.0200  -49.1901 C.3       16 UNK         0.1400 
     91 CB         -6.1263  -18.9875  -48.4163 C.3       16 UNK        -0.1800 
     92 C          -5.2906  -19.8183  -50.7198 C.2       16 UNK         0.5000 
     93 O          -6.0048  -18.9560  -51.2361 O.2       16 UNK        -0.5000 
     94 N          -4.5286  -20.6738  -51.4156 N.am      17 UNK        -0.5000 
     95 CA         -4.3949  -20.8376  -52.8667 C.3       17 UNK         0.1400 
     96 CB         -3.8380  -19.5836  -53.5672 C.3       17 UNK        -0.1800 
     97 C          -5.6533  -21.3547  -53.5823 C.2       17 UNK         0.5000 
     98 O          -5.5253  -22.2637  -54.4002 O.2       17 UNK        -0.5000 
     99 N          -6.8181  -20.7481  -53.3118 N.am      18 UNK        -0.5000 
    100 CA        -8.1531  -21.0804  -53.8348 C.3       18 UNK         0.1400 
    101 CB        -8.6762  -22.3651  -53.1641 C.3       18 UNK        -0.1800 
    102 C         -8.2362  -21.1554  -55.3780 C.2       18 UNK         0.5000 
    103 O         -9.0083  -21.9508  -55.9162 O.2       18 UNK        -0.5000 
    104 N         -7.4128  -20.3420  -56.0578 N.am      19 UNK        -0.5000 
    105 CA        -7.1857  -20.3051  -57.5092 C.3       19 UNK         0.1400 
    106 CB        -8.4712  -19.9116  -58.2671 C.3       19 UNK        -0.1800 
    107 C         -6.5240  -21.5811  -58.0852 C.2       19 UNK         0.5000 
    108 O         -6.5101  -21.7557  -59.3045 O.2       19 UNK        -0.5000 
    109 N         -5.9478  -22.4270  -57.2188 N.am      20 UNK        -0.5000 
    110 CA        -5.2126  -23.6458  -57.5677 C.3       20 UNK         0.1400 
    111 CB        -5.6546  -24.7802  -56.6259 C.3       20 UNK        -0.1800 
    112 C         -3.6851  -23.4307  -57.5133 C.2       20 UNK         0.5000 
    113 O         -2.9349  -24.4085  -57.5021 O.2       20 UNK        -0.5000 
    114 N         -3.2474  -22.1614  -57.4648 N.am      21 UNK        -0.5000 
    115 CA        -1.8549  -21.6922  -57.4986 C.3       21 UNK         0.1400 
    116 CB        -1.2549  -21.9148  -58.9025 C.3       21 UNK        -0.1800 
    117 C         -0.9749  -22.2770  -56.3724 C.2       21 UNK         0.5000 
    118 O          0.1983  -22.5795  -56.5976 O.2       21 UNK        -0.5000 
    119 N         -1.5760  -22.4386  -55.1858 N.am      22 UNK        -0.5000 
    120 CA        -0.9805  -23.0481  -53.9815 C.3       22 UNK         0.1400 
    121 C         -0.7765  -24.5923  -54.0763 C.2       22 UNK         0.5000 
    122 N         -1.2991  -25.2806  -55.0857 N.am      22 UNK        -0.7600 
    123 O         -0.1610  -25.1891  -53.1975 O.2       22 UNK        -0.5000 
    124 C124        0.2988  -22.3232  -53.4695 C.3       23 UNK        -0.0398 
    125 S125        0.1019  -20.5173  -53.2721 S.3       23 UNK        -0.2404 
    126 C126       -0.1523  -20.3811  -51.4788 C.3       23 UNK        -0.0205 
    127 H127       -2.2089  -18.3817  -44.5872 H         1 UNK         0.0600 
    128 H128       -3.8522  -18.5213  -45.2299 H         1 UNK         0.0600 
    129 H129       -3.5972  -18.0318  -43.5545 H         1 UNK         0.0600 
    130 H130       -3.1003  -17.0302  -46.9654 H         1 UNK         0.3000 
    131 H131       -3.7087  -14.2652  -46.3376 H         1 UNK         0.0600 
    132 H132       -4.8859  -14.8872  -48.1825 H         1 UNK         0.0800 
    133 H133       -3.5844  -14.0419  -48.9301 H         1 UNK         0.0800 
    134 H134       -2.8512  -15.9909  -51.6213 H         1 UNK         0.0800 
    135 H135       -2.1021  -14.8648  -50.5140 H         1 UNK         0.0800 
    136 H136       -2.1246  -18.4893  -51.4671 H         1 UNK         0.1150 
    137 H137        1.9824  -19.0834  -50.3816 H         1 UNK         0.1150 
    138 H138        0.0857  -15.3126  -49.6515 H         1 UNK         0.1150 
    139 H139        3.2830  -16.8134  -49.7984 H         1 UNK         0.0800 
    140 H140        2.3283  -15.5835  -49.0112 H         1 UNK         0.0800 
    141 H141        0.1805  -17.2933  -47.5442 H         1 UNK         0.0800 
    142 H142        0.8296  -17.5414  -45.9657 H         1 UNK         0.0800 
    143 H143        0.9255  -19.7317  -48.0840 H         1 UNK         0.0600 
    144 H144        1.9467  -19.5844  -45.4442 H         1 UNK         0.3000 
    145 H145        2.6189  -23.0825  -45.1000 H         1 UNK         0.0600 
    146 H146        4.8755  -22.0907  -44.7784 H         1 UNK         0.0600 
    147 H147        4.4338  -22.0974  -46.4795 H         1 UNK         0.0600 
    148 H148        4.3567  -20.5988  -45.5603 H         1 UNK         0.0600 
    149 H149        2.7102  -20.4534  -43.6826 H         1 UNK         0.3000 
    150 H150        0.4713  -21.5608  -41.1759 H         1 UNK         0.0600 
    151 H151        2.6064  -22.5242  -40.2985 H         1 UNK         0.0600 
    152 H152        2.2776  -20.9527  -39.5837 H         1 UNK         0.0600 
    153 H153        3.4872  -21.1063  -40.8569 H         1 UNK         0.0600 
    154 H154        1.9708  -19.1750  -41.3182 H         1 UNK         0.3000 
    155 H155        0.1674  -17.4716  -43.8412 H         1 UNK         0.0600 
    156 H156       -1.3677  -17.1647  -41.9377 H         1 UNK         0.0600 
    157 H157       -0.2606  -15.8065  -42.0526 H         1 UNK         0.0600 
    158 H158       -0.0112  -17.0499  -40.8245 H         1 UNK         0.0600 
    159 H159        2.0974  -16.3953  -42.1690 H         1 UNK         0.3000 
    160 H160        5.0777  -17.6276  -43.7745 H         1 UNK         0.0600 
    161 H161        3.6798  -14.9132  -43.5346 H         1 UNK         0.0600 
    162 H162        4.2087  -15.6752  -45.0283 H         1 UNK         0.0600 
    163 H163        5.3966  -15.1714  -43.8359 H         1 UNK         0.0600 
    164 H164        4.3662  -16.0286  -41.4185 H         1 UNK         0.3000 
    165 H165        4.9695  -18.6265  -39.0995 H         1 UNK         0.0600 
    166 H166        6.6589  -17.0676  -38.1605 H         1 UNK         0.0600 
    167 H167        7.3085  -17.8826  -39.5739 H         1 UNK         0.0600 
    168 H168        6.7670  -16.2132  -39.7002 H         1 UNK         0.0600 
    169 H169        4.4972  -15.8194  -38.8006 H         1 UNK         0.3000 
    170 H170        0.9585  -15.8849  -39.0433 H         1 UNK         0.0600 
    171 H171        1.4249  -16.6958  -36.7272 H         1 UNK         0.0600 
    172 H172        2.7782  -15.5788  -36.5968 H         1 UNK         0.0600 
    173 H173        1.1321  -14.9646  -36.7547 H         1 UNK         0.0600 
    174 H174        2.7182  -13.7916  -38.3422 H         1 UNK         0.3000 
    175 H175        3.0721  -12.0759  -39.7211 H         1 UNK         0.0600 
    176 H176        4.7707  -13.3780  -41.9216 H         1 UNK         0.0600 
    177 H177        5.0614  -11.8047  -41.1851 H         1 UNK         0.0600 
    178 H178        5.2087  -13.2654  -40.2217 H         1 UNK         0.0600 
    179 H179        2.7304  -12.2253  -42.6510 H         1 UNK         0.3000 
    180 H180       -0.4283  -10.5997  -42.5863 H         1 UNK         0.0600 
    181 H181        2.2970   -9.4760  -43.4222 H         1 UNK         0.0600 
    182 H182        1.1657   -8.7003  -42.3205 H         1 UNK         0.0600 
    183 H183        0.7232   -8.9310  -44.0040 H         1 UNK         0.0600 
    184 H184        1.3370  -11.3386  -44.7204 H         1 UNK         0.3000 
    185 H185        0.3154  -12.7235  -46.2539 H         1 UNK         0.0600 
    186 H186        2.2556  -13.9436  -45.2717 H         1 UNK         0.0600 
    187 H187        1.1905  -15.2226  -44.6947 H         1 UNK         0.0600 
    188 H188        1.4170  -14.9653  -46.4255 H         1 UNK         0.0600 
    189 H189       -1.6026  -14.5125  -44.9377 H         1 UNK         0.3000 
    190 H190       -0.5655  -20.9970  -45.4546 H         1 UNK         0.3000 
    191 H191       -3.3391  -20.5561  -46.2891 H         1 UNK         0.0600 
    192 H192       -2.8197  -20.9891  -43.9110 H         1 UNK         0.0600 
    193 H193       -3.7848  -22.3067  -44.5494 H         1 UNK         0.0600 
    194 H194       -2.0523  -22.5226  -44.3204 H         1 UNK         0.0600 
    195 H195       -0.7566  -22.3934  -47.5570 H         1 UNK         0.3000 
    196 H196       -1.7080  -24.8618  -48.1838 H         1 UNK         0.0600 
    197 H197       -0.1506  -24.7099  -50.1927 H         1 UNK         0.0600 
    198 H198        0.5787  -24.1914  -48.6842 H         1 UNK         0.0600 
    199 H199        0.0393  -22.9937  -49.8598 H         1 UNK         0.0600 
    200 H200       -2.9895  -25.8533  -49.5856 H         1 UNK         0.3000 
    201 H201       -4.7083  -26.3053  -50.8771 H         1 UNK         0.0600 
    202 H202       -3.1726  -25.6403  -52.7195 H         1 UNK         0.0600 
    203 H203       -3.7999  -23.9911  -52.6595 H         1 UNK         0.0600 
    204 H204       -4.8459  -25.3174  -53.1319 H         1 UNK         0.0600 
    205 H205       -5.1603  -24.5842  -48.6373 H         1 UNK         0.3000 
    206 H206       -6.7408  -23.4846  -47.5580 H         1 UNK         0.0600 
    207 H207       -8.3463  -25.1291  -48.5365 H         1 UNK         0.0600 
    208 H208       -9.0917  -23.5573  -48.2932 H         1 UNK         0.0600 
    209 H209       -8.6236  -24.0589  -49.9097 H         1 UNK         0.0600 
    210 H210       -4.9474  -21.9579  -48.4049 H         1 UNK         0.3000 
    211 H211       -4.2403  -19.8973  -48.8719 H         1 UNK         0.0600 
    212 H212       -7.1841  -19.0498  -48.6710 H         1 UNK         0.0600 
    213 H213       -5.8106  -17.9700  -48.6371 H         1 UNK         0.0600 
    214 H214       -6.0310  -19.1293  -47.3399 H         1 UNK         0.0600 
    215 H215       -4.0174  -21.3779  -50.8850 H         1 UNK         0.3000 
    216 H216       -3.6466  -21.6196  -52.9875 H         1 UNK         0.0600 
    217 H217       -3.8705  -19.6929  -54.6522 H         1 UNK         0.0600 
    218 H218       -2.7938  -19.4237  -53.3084 H         1 UNK         0.0600 
    219 H219       -4.3952  -18.6814  -53.3163 H         1 UNK         0.0600 
    220 H220       -6.7845  -19.9985  -52.6249 H         1 UNK         0.3000 
    221 H221       -8.8083  -20.2614  -53.5357 H         1 UNK         0.0600 
    222 H222       -8.1022  -23.2388  -53.4749 H         1 UNK         0.0600 
    223 H223       -8.6168  -22.2959  -52.0780 H         1 UNK         0.0600 
    224 H224       -9.7203  -22.5489  -53.4192 H         1 UNK         0.0600 
    225 H225       -6.8244  -19.7283  -55.5121 H         1 UNK         0.3000 
    226 H226       -6.4618  -19.5053  -57.6704 H         1 UNK         0.0600 
    227 H227       -8.9175  -19.0104  -57.8466 H         1 UNK         0.0600 
    228 H228       -8.2589  -19.7059  -59.3169 H         1 UNK         0.0600 
    229 H229       -9.2202  -20.7031  -58.2381 H         1 UNK         0.0600 
    230 H230       -5.9865  -22.2225  -56.2227 H         1 UNK         0.3000 
    231 H231       -5.4546  -23.9480  -58.5883 H         1 UNK         0.0600 
    232 H232       -5.3446  -24.5969  -55.5970 H         1 UNK         0.0600 
    233 H233       -5.2225  -25.7339  -56.9310 H         1 UNK         0.0600 
    234 H234       -6.7382  -24.8990  -56.6327 H         1 UNK         0.0600 
    235 H235       -3.9517  -21.4387  -57.4541 H         1 UNK         0.3000 
    236 H236       -1.8890  -20.6161  -57.3228 H         1 UNK         0.0600 
    237 H237       -1.8822  -21.4690  -59.6745 H         1 UNK         0.0600 
    238 H238       -0.2681  -21.4578  -58.9855 H         1 UNK         0.0600 
    239 H239       -1.1454  -22.9755  -59.1308 H         1 UNK         0.0600 
    240 H240       -2.5531  -22.1969  -55.1196 H         1 UNK         0.3000 
    241 H241       -1.7302  -22.9280  -53.2007 H         1 UNK         0.0600 
    242 H242       -1.1624  -26.2779  -55.1196 H         1 UNK         0.3800 
    243 H243       -1.8059  -24.8240  -55.8357 H         1 UNK         0.3800 
    244 H244        0.6165  -22.7479  -52.5161 H         1 UNK         0.0800 
    245 H245        1.1310  -22.4943  -54.1533 H         1 UNK         0.0800 
    246 H246       -1.1222  -20.8055  -51.2130 H         1 UNK         0.0800 
    247 H247        0.6006  -20.9728  -50.9572 H         1 UNK         0.0800 
@<TRIPOS>BOND
     1    1    2 1    
     2    1  127 1    
     3    1  128 1    
     4    1  129 1    
     5    2    3 2    
     6    2    4 am   BACKBONE|DICT|INTERRES
     7    4    5 1    
     8    4  130 1    
     9    5    6 1    
    10    5   65 1    
    11    5  131 1    
    12    6    7 1    
    13    6  132 1    
    14    6  133 1    
    15    7    8 1    
    16    8    9 1    
    17    8  134 1    
    18    8  135 1    
    19    9   10 ar   
    20    9   14 ar   
    21   10   11 ar   
    22   10  136 1    
    23   11   12 ar   
    24   11  126 1    
    25   12   13 ar   
    26   12  137 1    
    27   13   14 ar   
    28   13   15 1    
    29   14  138 1    
    30   15   16 1    
    31   15  139 1    
    32   15  140 1    
    33   16   17 1    
    34   17   18 1    
    35   17  141 1    
    36   17  142 1    
    37   18   19 1    
    38   18   67 1    
    39   18  143 1    
    40   19   20 am   BACKBONE|DICT|INTERRES
    41   19  144 1    
    42   20   21 2    
    43   20   22 1    
    44   22   23 1    
    45   22   24 1    
    46   22  145 1    
    47   23  146 1    
    48   23  147 1    
    49   23  148 1    
    50   24   25 am   BACKBONE|DICT|INTERRES
    51   24  149 1    
    52   25   26 2    
    53   25   27 1    
    54   27   28 1    
    55   27   29 1    
    56   27  150 1    
    57   28  151 1    
    58   28  152 1    
    59   28  153 1    
    60   29   30 am   BACKBONE|DICT|INTERRES
    61   29  154 1    
    62   30   31 2    
    63   30   32 1    
    64   32   33 1    
    65   32   34 1    
    66   32  155 1    
    67   33  156 1    
    68   33  157 1    
    69   33  158 1    
    70   34   35 am   BACKBONE|DICT|INTERRES
    71   34  159 1    
    72   35   36 2    
    73   35   37 1    
    74   37   38 1    
    75   37   39 1    
    76   37  160 1    
    77   38  161 1    
    78   38  162 1    
    79   38  163 1    
    80   39   40 am   BACKBONE|DICT|INTERRES
    81   39  164 1    
    82   40   41 2    
    83   40   42 1    
    84   42   43 1    
    85   42   44 1    
    86   42  165 1    
    87   43  166 1    
    88   43  167 1    
    89   43  168 1    
    90   44   45 am   BACKBONE|DICT|INTERRES
    91   44  169 1    
    92   45   46 2    
    93   45   47 1    
    94   47   48 1    
    95   47   49 1    
    96   47  170 1    
    97   48  171 1    
    98   48  172 1    
    99   48  173 1    
   100   49   50 am   BACKBONE|DICT|INTERRES
   101   49  174 1    
   102   50   51 2    
   103   50   52 1    
   104   52   53 1    
   105   52   54 1    
   106   52  175 1    
   107   53  176 1    
   108   53  177 1    
   109   53  178 1    
   110   54   55 am   BACKBONE|DICT|INTERRES
   111   54  179 1    
   112   55   56 2    
   113   55   57 1    
   114   57   58 1    
   115   57   59 1    
   116   57  180 1    
   117   58  181 1    
   118   58  182 1    
   119   58  183 1    
   120   59   60 am   BACKBONE|DICT|INTERRES
   121   59  184 1    
   122   60   61 2    
   123   60   62 1    
   124   62   63 1    
   125   62   64 1    
   126   62  185 1    
   127   63  186 1    
   128   63  187 1    
   129   63  188 1    
   130   64   65 am   BACKBONE|DICT|INTERRES
   131   64  189 1    
   132   65   66 2    
   133   67   68 2    
   134   67   69 am   BACKBONE|DICT|INTERRES
   135   69   70 1    
   136   69  190 1    
   137   70   71 1    
   138   70   72 1    
   139   70  191 1    
   140   71  192 1    
   141   71  193 1    
   142   71  194 1    
   143   72   73 2    
   144   72   74 am   BACKBONE|DICT|INTERRES
   145   74   75 1    
   146   74  195 1    
   147   75   76 1    
   148   75   77 1    
   149   75  196 1    
   150   76  197 1    
   151   76  198 1    
   152   76  199 1    
   153   77   78 2    
   154   77   79 am   BACKBONE|DICT|INTERRES
   155   79   80 1    
   156   79  200 1    
   157   80   81 1    
   158   80   82 1    
   159   80  201 1    
   160   81  202 1    
   161   81  203 1    
   162   81  204 1    
   163   82   83 2    
   164   82   84 am   BACKBONE|DICT|INTERRES
   165   84   85 1    
   166   84  205 1    
   167   85   86 1    
   168   85   87 1    
   169   85  206 1    
   170   86  207 1    
   171   86  208 1    
   172   86  209 1    
   173   87   88 2    
   174   87   89 am   BACKBONE|DICT|INTERRES
   175   89   90 1    
   176   89  210 1    
   177   90   91 1    
   178   90   92 1    
   179   90  211 1    
   180   91  212 1    
   181   91  213 1    
   182   91  214 1    
   183   92   93 2    
   184   92   94 am   BACKBONE|DICT|INTERRES
   185   94   95 1    
   186   94  215 1    
   187   95   96 1    
   188   95   97 1    
   189   95  216 1    
   190   96  217 1    
   191   96  218 1    
   192   96  219 1    
   193   97   98 2    
   194   97   99 am   BACKBONE|DICT|INTERRES
   195   99  100 1    
   196   99  220 1    
   197  100  101 1    
   198  100  102 1    
   199  100  221 1    
   200  101  222 1    
   201  101  223 1    
   202  101  224 1    
   203  102  103 2    
   204  102  104 am   BACKBONE|DICT|INTERRES
   205  104  105 1    
   206  104  225 1    
   207  105  106 1    
   208  105  107 1    
   209  105  226 1    
   210  106  227 1    
   211  106  228 1    
   212  106  229 1    
   213  107  108 2    
   214  107  109 am   BACKBONE|DICT|INTERRES
   215  109  110 1    
   216  109  230 1    
   217  110  111 1    
   218  110  112 1    
   219  110  231 1    
   220  111  232 1    
   221  111  233 1    
   222  111  234 1    
   223  112  113 2    
   224  112  114 am   BACKBONE|DICT|INTERRES
   225  114  115 1    
   226  114  235 1    
   227  115  116 1    
   228  115  117 1    
   229  115  236 1    
   230  116  237 1    
   231  116  238 1    
   232  116  239 1    
   233  117  118 2    
   234  117  119 am   BACKBONE|DICT|INTERRES
   235  119  120 1    
   236  119  240 1    
   237  120  121 1    
   238  120  124 1    
   239  120  241 1    
   240  121  122 am   BACKBONE|DICT|INTERRES
   241  121  123 2    
   242  122  242 1    
   243  122  243 1    
   244  124  125 1    
   245  124  244 1    
   246  124  245 1    
   247  125  126 1    
   248  126  246 1    
   249  126  247 1    
@<TRIPOS>SUBSTRUCTURE
     1 UNK         1 GROUP             0       ****    0 ROOT    
