@<TRIPOS>MOLECULE
3R540
247   249    1
SMALL
USER_CHARGES


@<TRIPOS>ATOM
      1 CA          0.4996  -11.2333  -48.7658 C.3       0 UNK        -0.1800 
      2 C           0.2329  -12.1295  -47.5663 C.2       0 UNK         0.5000 
      3 O           0.6880  -11.8270  -46.4642 O.2       0 UNK        -0.5000 
      4 N          -0.5196  -13.2187  -47.7684 N.am      1 UNK        -0.5000 
      5 CA         -0.8437  -14.2552  -46.7742 C.3       1 UNK         0.1400 
      6 C6         -1.6233  -15.4258  -47.4177 C.3       23 UNK        -0.0398 
      7 S7         -0.6361  -16.2927  -48.6835 S.3       23 UNK        -0.2404 
      8 C8         -0.2203  -17.8047  -47.7664 C.3       23 UNK        -0.0205 
      9 C9          0.5738  -18.8003  -48.5958 C.ar      23 UNK        -0.0193 
     10 C10         0.0515  -19.3098  -49.7859 C.ar      23 UNK        -0.1150 
     11 C11         0.7658  -20.2453  -50.5416 C.ar      23 UNK        -0.0193 
     12 C12         2.0157  -20.6796  -50.0813 C.ar      23 UNK        -0.1150 
     13 C13         2.5276  -20.2141  -48.8649 C.ar      23 UNK        -0.0193 
     14 C14         1.8116  -19.2570  -48.1427 C.ar      23 UNK        -0.1150 
     15 C15         3.8358  -20.7565  -48.2998 C.3       23 UNK        -0.0205 
     16 S16         3.8342  -22.5665  -48.0467 S.3       23 UNK        -0.2404 
     17 C17         2.1774  -22.9114  -47.3579 C.3       23 UNK        -0.0398 
     18 CA          2.2087  -23.9799  -46.2368 C.3       11 UNK         0.1400 
     19 N           2.6596  -23.4199  -44.9587 N.am      11 UNK        -0.5000 
     20 C           3.1329  -24.1505  -43.9409 C.2       10 UNK         0.5000 
     21 O           3.2920  -25.3710  -43.9903 O.2       10 UNK        -0.5000 
     22 CA          3.4644  -23.3960  -42.6411 C.3       10 UNK         0.1400 
     23 CB          4.8080  -22.6619  -42.7669 C.3       10 UNK        -0.1800 
     24 N           2.4166  -22.4534  -42.2402 N.am      10 UNK        -0.5000 
     25 C           1.1825  -22.8074  -41.8511 C.2       9 UNK         0.5000 
     26 O           0.7915  -23.9732  -41.7938 O.2       9 UNK        -0.5000 
     27 CA          0.2116  -21.6731  -41.4727 C.3       9 UNK         0.1400 
     28 CB          0.4719  -21.1893  -40.0382 C.3       9 UNK        -0.1800 
     29 N           0.2759  -20.5365  -42.3890 N.am      9 UNK        -0.5000 
     30 C          -0.0950  -20.5729  -43.6764 C.2       8 UNK         0.5000 
     31 O          -0.5744  -21.5640  -44.2256 O.2       8 UNK        -0.5000 
     32 CA          0.1751  -19.3062  -44.5059 C.3       8 UNK         0.1400 
     33 CB         -0.8821  -18.2260  -44.2228 C.3       8 UNK        -0.1800 
     34 N           1.5114  -18.7579  -44.2679 N.am      8 UNK        -0.5000 
     35 C           2.6607  -19.4226  -44.4613 C.2       7 UNK         0.5000 
     36 O           2.7288  -20.5624  -44.9191 O.2       7 UNK        -0.5000 
     37 CA          3.9487  -18.7070  -44.0274 C.3       7 UNK         0.1400 
     38 CB          4.4114  -17.7149  -45.1049 C.3       7 UNK        -0.1800 
     39 N           3.7730  -18.0172  -42.7491 N.am      7 UNK        -0.5000 
     40 C           3.6222  -18.6441  -41.5728 C.2       6 UNK         0.5000 
     41 O           3.6605  -19.8668  -41.4407 O.2       6 UNK        -0.5000 
     42 CA          3.3325  -17.7587  -40.3474 C.3       6 UNK         0.1400 
     43 CB          4.6324  -17.1650  -39.7847 C.3       6 UNK        -0.1800 
     44 N           2.3944  -16.6781  -40.6520 N.am      6 UNK        -0.5000 
     45 C           1.1082  -16.8635  -40.9819 C.2       5 UNK         0.5000 
     46 O           0.5632  -17.9665  -41.0028 O.2       5 UNK        -0.5000 
     47 CA          0.3120  -15.6137  -41.4020 C.3       5 UNK         0.1400 
     48 CB         -0.3772  -14.9739  -40.1885 C.3       5 UNK        -0.1800 
     49 N           1.1307  -14.6053  -42.0765 N.am      5 UNK        -0.5000 
     50 C           1.7590  -14.7748  -43.2464 C.2       4 UNK         0.5000 
     51 O           1.7485  -15.8368  -43.8724 O.2       4 UNK        -0.5000 
     52 CA          2.5283  -13.5526  -43.7886 C.3       4 UNK         0.1400 
     53 CB          3.1667  -13.8138  -45.1643 C.3       4 UNK        -0.1800 
     54 N           1.6708  -12.3720  -43.8863 N.am      4 UNK        -0.5000 
     55 C           1.3274  -11.5601  -42.8774 C.2       3 UNK         0.5000 
     56 O           1.6983  -11.7256  -41.7146 O.2       3 UNK        -0.5000 
     57 CA          0.3778  -10.4025  -43.2204 C.3       3 UNK         0.1400 
     58 CB          1.1203   -9.2901  -43.9778 C.3       3 UNK        -0.1800 
     59 N          -0.7360  -10.8857  -44.0340 N.am      3 UNK        -0.5000 
     60 C          -1.9213  -11.2780  -43.5469 C.2       2 UNK         0.5000 
     61 O          -2.2369  -11.1922  -42.3596 O.2       2 UNK        -0.5000 
     62 CA         -2.9259  -11.8761  -44.5529 C.3       2 UNK         0.1400 
     63 CB         -3.8348  -10.7775  -45.1245 C.3       2 UNK        -0.1800 
     64 N          -2.2746  -12.5808  -45.6584 N.am      2 UNK        -0.5000 
     65 C          -1.5987  -13.7318  -45.5317 C.2       1 UNK         0.5000 
     66 O          -1.5409  -14.3705  -44.4814 O.2       1 UNK        -0.5000 
     67 C           0.8332  -24.6734  -46.1202 C.2       11 UNK         0.5000 
     68 O           0.5324  -25.5282  -46.9540 O.2       11 UNK        -0.5000 
     69 N           0.0257  -24.2857  -45.1189 N.am      12 UNK        -0.5000 
     70 CA         -1.3884  -24.6342  -44.9290 C.3       12 UNK         0.1400 
     71 CB         -1.5590  -26.1357  -44.6184 C.3       12 UNK        -0.1800 
     72 C          -2.2269  -24.1482  -46.1295 C.2       12 UNK         0.5000 
     73 O          -2.9284  -24.9336  -46.7701 O.2       12 UNK        -0.5000 
     74 N          -2.0655  -22.8598  -46.4464 N.am      13 UNK        -0.5000 
     75 CA         -2.4955  -22.2318  -47.6900 C.3       13 UNK         0.1400 
     76 CB         -1.2962  -22.2317  -48.6450 C.3       13 UNK        -0.1800 
     77 C          -2.9792  -20.7978  -47.4369 C.2       13 UNK         0.5000 
     78 O          -2.7504  -20.2543  -46.3547 O.2       13 UNK        -0.5000 
     79 N          -3.6269  -20.2072  -48.4479 N.am      14 UNK        -0.5000 
     80 CA         -4.1771  -18.8508  -48.3942 C.3       14 UNK         0.1400 
     81 CB         -5.6735  -18.9269  -48.0466 C.3       14 UNK        -0.1800 
     82 C          -3.9637  -18.0482  -49.6894 C.2       14 UNK         0.5000 
     83 O          -4.0392  -16.8213  -49.6334 O.2       14 UNK        -0.5000 
     84 N          -3.7347  -18.7271  -50.8276 N.am      15 UNK        -0.5000 
     85 CA         -3.5402  -18.1508  -52.1711 C.3       15 UNK         0.1400 
     86 CB         -2.2106  -17.3705  -52.2588 C.3       15 UNK        -0.1800 
     87 C          -4.7376  -17.3267  -52.7072 C.2       15 UNK         0.5000 
     88 O          -4.5710  -16.5331  -53.6344 O.2       15 UNK        -0.5000 
     89 N          -5.9335  -17.5483  -52.1421 N.am      16 UNK        -0.5000 
     90 CA         -7.1949  -16.9109  -52.5331 C.3       16 UNK         0.1400 
     91 CB         -8.2540  -17.2286  -51.4662 C.3       16 UNK        -0.1800 
     92 C          -7.6954  -17.3314  -53.9311 C.2       16 UNK         0.5000 
     93 O          -8.4561  -16.5898  -54.5541 O.2       16 UNK        -0.5000 
     94 N          -7.2516  -18.5026  -54.3963 N.am      17 UNK        -0.5000 
     95 CA         -7.4693  -19.0467  -55.7273 C.3       17 UNK         0.1400 
     96 CB         -8.6483  -20.0310  -55.6930 C.3       17 UNK        -0.1800 
     97 C          -6.1706  -19.7467  -56.1451 C.2       17 UNK         0.5000 
     98 O          -5.5349  -20.3905  -55.3035 O.2       17 UNK        -0.5000 
     99 N          -5.7979  -19.6038  -57.4232 N.am      18 UNK        -0.5000 
    100 CA        -4.5742  -20.1509  -58.0119 C.3       18 UNK         0.1400 
    101 CB        -4.4713  -19.7019  -59.4779 C.3       18 UNK        -0.1800 
    102 C         -4.5225  -21.6843  -57.9016 C.2       18 UNK         0.5000 
    103 O         -5.4267  -22.3581  -58.4005 O.2       18 UNK        -0.5000 
    104 N         -3.4940  -22.1909  -57.2077 N.am      19 UNK        -0.5000 
    105 CA        -3.2180  -23.5894  -56.8471 C.3       19 UNK         0.1400 
    106 CB        -3.0386  -24.4712  -58.0971 C.3       19 UNK        -0.1800 
    107 C         -4.2330  -24.2145  -55.8675 C.2       19 UNK         0.5000 
    108 O         -3.8210  -24.9124  -54.9417 O.2       19 UNK        -0.5000 
    109 N         -5.5289  -23.9433  -56.0628 N.am      20 UNK        -0.5000 
    110 CA        -6.6480  -24.4529  -55.2695 C.3       20 UNK         0.1400 
    111 CB        -7.9655  -24.0112  -55.9225 C.3       20 UNK        -0.1800 
    112 C         -6.6045  -24.0362  -53.7874 C.2       20 UNK         0.5000 
    113 O         -6.9895  -24.8308  -52.9293 O.2       20 UNK        -0.5000 
    114 N         -6.0991  -22.8268  -53.5078 N.am      21 UNK        -0.5000 
    115 CA        -5.8794  -22.3098  -52.1546 C.3       21 UNK         0.1400 
    116 CB        -6.3739  -20.8594  -52.0864 C.3       21 UNK        -0.1800 
    117 C         -4.4026  -22.4353  -51.7259 C.2       21 UNK         0.5000 
    118 O         -3.9429  -21.6528  -50.8882 O.2       21 UNK        -0.5000 
    119 N         -3.6869  -23.4043  -52.3084 N.am      22 UNK        -0.5000 
    120 CA        -2.3021  -23.7699  -51.9862 C.3       22 UNK         0.1400 
    121 C         -2.0815  -25.3127  -51.9399 C.2       22 UNK         0.5000 
    122 N         -3.1254  -26.1256  -51.8186 N.am      22 UNK        -0.7600 
    123 O         -0.9528  -25.7915  -51.9986 O.2       22 UNK        -0.5000 
    124 C124       -1.2778  -23.0115  -52.8781 C.3       23 UNK        -0.0398 
    125 S125        0.2526  -22.5999  -51.9668 S.3       23 UNK        -0.2404 
    126 C126        0.1636  -20.7811  -51.8380 C.3       23 UNK        -0.0205 
    127 H127        0.0267  -11.6152  -49.6709 H         1 UNK         0.0600 
    128 H128        1.5720  -11.1607  -48.9461 H         1 UNK         0.0600 
    129 H129        0.1158  -10.2308  -48.5768 H         1 UNK         0.0600 
    130 H130       -0.8553  -13.4093  -48.7020 H         1 UNK         0.3000 
    131 H131        0.1050  -14.6484  -46.4030 H         1 UNK         0.0600 
    132 H132       -1.9437  -16.1453  -46.6616 H         1 UNK         0.0800 
    133 H133       -2.5391  -15.0631  -47.8880 H         1 UNK         0.0800 
    134 H134        0.3443  -17.5145  -46.8798 H         1 UNK         0.0800 
    135 H135       -1.1341  -18.2875  -47.4202 H         1 UNK         0.0800 
    136 H136       -0.9238  -18.9806  -50.1097 H         1 UNK         0.1150 
    137 H137        2.5725  -21.4132  -50.6469 H         1 UNK         0.1150 
    138 H138        2.2082  -18.8832  -47.2111 H         1 UNK         0.1150 
    139 H139        4.6509  -20.4943  -48.9751 H         1 UNK         0.0800 
    140 H140        4.0668  -20.2840  -47.3445 H         1 UNK         0.0800 
    141 H141        1.5667  -23.2384  -48.2019 H         1 UNK         0.0800 
    142 H142        1.7151  -21.9952  -46.9883 H         1 UNK         0.0800 
    143 H143        2.9141  -24.7596  -46.5334 H         1 UNK         0.0600 
    144 H144        2.6076  -22.4073  -44.8614 H         1 UNK         0.3000 
    145 H145        3.5629  -24.1378  -41.8458 H         1 UNK         0.0600 
    146 H146        5.0965  -22.2026  -41.8215 H         1 UNK         0.0600 
    147 H147        5.6048  -23.3512  -43.0490 H         1 UNK         0.0600 
    148 H148        4.7698  -21.8782  -43.5233 H         1 UNK         0.0600 
    149 H149        2.6774  -21.4733  -42.2121 H         1 UNK         0.3000 
    150 H150       -0.8021  -22.0773  -41.5143 H         1 UNK         0.0600 
    151 H151        0.4147  -22.0163  -39.3295 H         1 UNK         0.0600 
    152 H152       -0.2666  -20.4476  -39.7334 H         1 UNK         0.0600 
    153 H153        1.4590  -20.7369  -39.9382 H         1 UNK         0.0600 
    154 H154        0.6138  -19.6600  -42.0028 H         1 UNK         0.3000 
    155 H155        0.1152  -19.5865  -45.5585 H         1 UNK         0.0600 
    156 H156       -0.9602  -18.0057  -43.1595 H         1 UNK         0.0600 
    157 H157       -0.6558  -17.2921  -44.7365 H         1 UNK         0.0600 
    158 H158       -1.8683  -18.5503  -44.5537 H         1 UNK         0.0600 
    159 H159        1.5595  -17.8006  -43.9318 H         1 UNK         0.3000 
    160 H160        4.7304  -19.4590  -43.9035 H         1 UNK         0.0600 
    161 H161        5.3036  -17.1736  -44.7900 H         1 UNK         0.0600 
    162 H162        3.6389  -16.9842  -45.3431 H         1 UNK         0.0600 
    163 H163        4.6580  -18.2364  -46.0301 H         1 UNK         0.0600 
    164 H164        3.6665  -17.0144  -42.7850 H         1 UNK         0.3000 
    165 H165        2.8843  -18.3911  -39.5780 H         1 UNK         0.0600 
    166 H166        4.4441  -16.5982  -38.8727 H         1 UNK         0.0600 
    167 H167        5.3442  -17.9530  -39.5351 H         1 UNK         0.0600 
    168 H168        5.1167  -16.4994  -40.5002 H         1 UNK         0.0600 
    169 H169        2.7600  -15.7375  -40.6536 H         1 UNK         0.3000 
    170 H170       -0.4613  -15.9314  -42.1037 H         1 UNK         0.0600 
    171 H171        0.3474  -14.6029  -39.4627 H         1 UNK         0.0600 
    172 H172       -1.0082  -14.1375  -40.4911 H         1 UNK         0.0600 
    173 H173       -1.0167  -15.6949  -39.6775 H         1 UNK         0.0600 
    174 H174        1.1921  -13.6919  -41.6396 H         1 UNK         0.3000 
    175 H175        3.3361  -13.3414  -43.0851 H         1 UNK         0.0600 
    176 H176        3.6901  -12.9303  -45.5301 H         1 UNK         0.0600 
    177 H177        2.4221  -14.0919  -45.9106 H         1 UNK         0.0600 
    178 H178        3.8977  -14.6203  -45.1088 H         1 UNK         0.0600 
    179 H179        1.3047  -12.1698  -44.8148 H         1 UNK         0.3000 
    180 H180        0.0053   -9.9799  -42.2848 H         1 UNK         0.0600 
    181 H181        1.5188   -9.6409  -44.9306 H         1 UNK         0.0600 
    182 H182        1.9580   -8.9114  -43.3907 H         1 UNK         0.0600 
    183 H183        0.4598   -8.4476  -44.1829 H         1 UNK         0.0600 
    184 H184       -0.5341  -11.0482  -45.0137 H         1 UNK         0.3000 
    185 H185       -3.5509  -12.5906  -44.0129 H         1 UNK         0.0600 
    186 H186       -3.2669  -10.0397  -45.6928 H         1 UNK         0.0600 
    187 H187       -4.5953  -11.1973  -45.7832 H         1 UNK         0.0600 
    188 H188       -4.3551  -10.2470  -44.3258 H         1 UNK         0.0600 
    189 H189       -2.2773  -12.1225  -46.5579 H         1 UNK         0.3000 
    190 H190        0.3565  -23.5424  -44.5168 H         1 UNK         0.3000 
    191 H191       -1.7333  -24.0768  -44.0568 H         1 UNK         0.0600 
    192 H192       -0.9498  -26.4303  -43.7639 H         1 UNK         0.0600 
    193 H193       -2.5966  -26.3643  -44.3732 H         1 UNK         0.0600 
    194 H194       -1.2785  -26.7649  -45.4633 H         1 UNK         0.0600 
    195 H195       -1.5521  -22.2573  -45.8072 H         1 UNK         0.3000 
    196 H196       -3.3204  -22.7907  -48.1369 H         1 UNK         0.0600 
    197 H197       -1.5444  -21.7431  -49.5859 H         1 UNK         0.0600 
    198 H198       -0.9683  -23.2457  -48.8744 H         1 UNK         0.0600 
    199 H199       -0.4491  -21.6977  -48.2149 H         1 UNK         0.0600 
    200 H200       -3.7660  -20.7326  -49.3079 H         1 UNK         0.3000 
    201 H201       -3.6752  -18.2809  -47.6093 H         1 UNK         0.0600 
    202 H202       -5.8258  -19.3863  -47.0698 H         1 UNK         0.0600 
    203 H203       -6.2281  -19.5117  -48.7807 H         1 UNK         0.0600 
    204 H204       -6.1211  -17.9328  -48.0096 H         1 UNK         0.0600 
    205 H205       -3.7171  -19.7414  -50.7935 H         1 UNK         0.3000 
    206 H206       -3.4555  -19.0021  -52.8482 H         1 UNK         0.0600 
    207 H207       -1.3581  -18.0120  -52.0482 H         1 UNK         0.0600 
    208 H208       -2.0499  -16.9680  -53.2595 H         1 UNK         0.0600 
    209 H209       -2.1826  -16.5315  -51.5634 H         1 UNK         0.0600 
    210 H210       -5.9768  -18.1914  -51.3670 H         1 UNK         0.3000 
    211 H211       -7.0367  -15.8307  -52.5513 H         1 UNK         0.0600 
    212 H212       -8.4418  -18.3006  -51.3923 H         1 UNK         0.0600 
    213 H213       -9.2029  -16.7445  -51.7009 H         1 UNK         0.0600 
    214 H214       -7.9436  -16.8730  -50.4834 H         1 UNK         0.0600 
    215 H215       -6.5869  -19.0247  -53.8428 H         1 UNK         0.3000 
    216 H216       -7.6832  -18.2416  -56.4336 H         1 UNK         0.0600 
    217 H217       -8.7956  -20.5019  -56.6656 H         1 UNK         0.0600 
    218 H218       -9.5761  -19.5213  -55.4329 H         1 UNK         0.0600 
    219 H219       -8.4875  -20.8222  -54.9598 H         1 UNK         0.0600 
    220 H220       -6.3964  -19.0862  -58.0501 H         1 UNK         0.3000 
    221 H221       -3.7280  -19.7264  -57.4677 H         1 UNK         0.0600 
    222 H222       -5.3156  -20.0591  -60.0692 H         1 UNK         0.0600 
    223 H223       -4.4413  -18.6151  -59.5574 H         1 UNK         0.0600 
    224 H224       -3.5612  -20.0860  -59.9404 H         1 UNK         0.0600 
    225 H225       -2.8418  -21.5282  -56.8120 H         1 UNK         0.3000 
    226 H226       -2.2601  -23.5710  -56.3246 H         1 UNK         0.0600 
    227 H227       -2.2762  -24.0637  -58.7609 H         1 UNK         0.0600 
    228 H228       -2.7229  -25.4775  -57.8189 H         1 UNK         0.0600 
    229 H229       -3.9630  -24.5684  -58.6668 H         1 UNK         0.0600 
    230 H230       -5.7593  -23.3654  -56.8669 H         1 UNK         0.3000 
    231 H231       -6.6019  -25.5433  -55.3010 H         1 UNK         0.0600 
    232 H232       -8.0297  -22.9263  -55.9991 H         1 UNK         0.0600 
    233 H233       -8.8260  -24.3547  -55.3467 H         1 UNK         0.0600 
    234 H234       -8.0624  -24.4216  -56.9277 H         1 UNK         0.0600 
    235 H235       -5.7955  -22.2295  -54.2700 H         1 UNK         0.3000 
    236 H236       -6.4623  -22.8845  -51.4325 H         1 UNK         0.0600 
    237 H237       -7.4018  -20.7732  -52.4392 H         1 UNK         0.0600 
    238 H238       -6.3494  -20.4829  -51.0638 H         1 UNK         0.0600 
    239 H239       -5.7463  -20.2142  -52.6962 H         1 UNK         0.0600 
    240 H240       -4.1161  -23.9717  -53.0300 H         1 UNK         0.3000 
    241 H241       -2.1401  -23.4717  -50.9527 H         1 UNK         0.0600 
    242 H242       -4.0633  -25.7666  -51.7425 H         1 UNK         0.3800 
    243 H243       -2.9699  -27.1209  -51.7901 H         1 UNK         0.3800 
    244 H244       -1.0206  -23.5965  -53.7626 H         1 UNK         0.0800 
    245 H245       -1.7152  -22.0902  -53.2639 H         1 UNK         0.0800 
    246 H246       -0.8792  -20.4694  -51.9099 H         1 UNK         0.0800 
    247 H247        0.6821  -20.3346  -52.6871 H         1 UNK         0.0800 
@<TRIPOS>BOND
     1    1    2 1    
     2    1  127 1    
     3    1  128 1    
     4    1  129 1    
     5    2    3 2    
     6    2    4 am   BACKBONE|DICT|INTERRES
     7    4    5 1    
     8    4  130 1    
     9    5    6 1    
    10    5   65 1    
    11    5  131 1    
    12    6    7 1    
    13    6  132 1    
    14    6  133 1    
    15    7    8 1    
    16    8    9 1    
    17    8  134 1    
    18    8  135 1    
    19    9   10 ar   
    20    9   14 ar   
    21   10   11 ar   
    22   10  136 1    
    23   11   12 ar   
    24   11  126 1    
    25   12   13 ar   
    26   12  137 1    
    27   13   14 ar   
    28   13   15 1    
    29   14  138 1    
    30   15   16 1    
    31   15  139 1    
    32   15  140 1    
    33   16   17 1    
    34   17   18 1    
    35   17  141 1    
    36   17  142 1    
    37   18   19 1    
    38   18   67 1    
    39   18  143 1    
    40   19   20 am   BACKBONE|DICT|INTERRES
    41   19  144 1    
    42   20   21 2    
    43   20   22 1    
    44   22   23 1    
    45   22   24 1    
    46   22  145 1    
    47   23  146 1    
    48   23  147 1    
    49   23  148 1    
    50   24   25 am   BACKBONE|DICT|INTERRES
    51   24  149 1    
    52   25   26 2    
    53   25   27 1    
    54   27   28 1    
    55   27   29 1    
    56   27  150 1    
    57   28  151 1    
    58   28  152 1    
    59   28  153 1    
    60   29   30 am   BACKBONE|DICT|INTERRES
    61   29  154 1    
    62   30   31 2    
    63   30   32 1    
    64   32   33 1    
    65   32   34 1    
    66   32  155 1    
    67   33  156 1    
    68   33  157 1    
    69   33  158 1    
    70   34   35 am   BACKBONE|DICT|INTERRES
    71   34  159 1    
    72   35   36 2    
    73   35   37 1    
    74   37   38 1    
    75   37   39 1    
    76   37  160 1    
    77   38  161 1    
    78   38  162 1    
    79   38  163 1    
    80   39   40 am   BACKBONE|DICT|INTERRES
    81   39  164 1    
    82   40   41 2    
    83   40   42 1    
    84   42   43 1    
    85   42   44 1    
    86   42  165 1    
    87   43  166 1    
    88   43  167 1    
    89   43  168 1    
    90   44   45 am   BACKBONE|DICT|INTERRES
    91   44  169 1    
    92   45   46 2    
    93   45   47 1    
    94   47   48 1    
    95   47   49 1    
    96   47  170 1    
    97   48  171 1    
    98   48  172 1    
    99   48  173 1    
   100   49   50 am   BACKBONE|DICT|INTERRES
   101   49  174 1    
   102   50   51 2    
   103   50   52 1    
   104   52   53 1    
   105   52   54 1    
   106   52  175 1    
   107   53  176 1    
   108   53  177 1    
   109   53  178 1    
   110   54   55 am   BACKBONE|DICT|INTERRES
   111   54  179 1    
   112   55   56 2    
   113   55   57 1    
   114   57   58 1    
   115   57   59 1    
   116   57  180 1    
   117   58  181 1    
   118   58  182 1    
   119   58  183 1    
   120   59   60 am   BACKBONE|DICT|INTERRES
   121   59  184 1    
   122   60   61 2    
   123   60   62 1    
   124   62   63 1    
   125   62   64 1    
   126   62  185 1    
   127   63  186 1    
   128   63  187 1    
   129   63  188 1    
   130   64   65 am   BACKBONE|DICT|INTERRES
   131   64  189 1    
   132   65   66 2    
   133   67   68 2    
   134   67   69 am   BACKBONE|DICT|INTERRES
   135   69   70 1    
   136   69  190 1    
   137   70   71 1    
   138   70   72 1    
   139   70  191 1    
   140   71  192 1    
   141   71  193 1    
   142   71  194 1    
   143   72   73 2    
   144   72   74 am   BACKBONE|DICT|INTERRES
   145   74   75 1    
   146   74  195 1    
   147   75   76 1    
   148   75   77 1    
   149   75  196 1    
   150   76  197 1    
   151   76  198 1    
   152   76  199 1    
   153   77   78 2    
   154   77   79 am   BACKBONE|DICT|INTERRES
   155   79   80 1    
   156   79  200 1    
   157   80   81 1    
   158   80   82 1    
   159   80  201 1    
   160   81  202 1    
   161   81  203 1    
   162   81  204 1    
   163   82   83 2    
   164   82   84 am   BACKBONE|DICT|INTERRES
   165   84   85 1    
   166   84  205 1    
   167   85   86 1    
   168   85   87 1    
   169   85  206 1    
   170   86  207 1    
   171   86  208 1    
   172   86  209 1    
   173   87   88 2    
   174   87   89 am   BACKBONE|DICT|INTERRES
   175   89   90 1    
   176   89  210 1    
   177   90   91 1    
   178   90   92 1    
   179   90  211 1    
   180   91  212 1    
   181   91  213 1    
   182   91  214 1    
   183   92   93 2    
   184   92   94 am   BACKBONE|DICT|INTERRES
   185   94   95 1    
   186   94  215 1    
   187   95   96 1    
   188   95   97 1    
   189   95  216 1    
   190   96  217 1    
   191   96  218 1    
   192   96  219 1    
   193   97   98 2    
   194   97   99 am   BACKBONE|DICT|INTERRES
   195   99  100 1    
   196   99  220 1    
   197  100  101 1    
   198  100  102 1    
   199  100  221 1    
   200  101  222 1    
   201  101  223 1    
   202  101  224 1    
   203  102  103 2    
   204  102  104 am   BACKBONE|DICT|INTERRES
   205  104  105 1    
   206  104  225 1    
   207  105  106 1    
   208  105  107 1    
   209  105  226 1    
   210  106  227 1    
   211  106  228 1    
   212  106  229 1    
   213  107  108 2    
   214  107  109 am   BACKBONE|DICT|INTERRES
   215  109  110 1    
   216  109  230 1    
   217  110  111 1    
   218  110  112 1    
   219  110  231 1    
   220  111  232 1    
   221  111  233 1    
   222  111  234 1    
   223  112  113 2    
   224  112  114 am   BACKBONE|DICT|INTERRES
   225  114  115 1    
   226  114  235 1    
   227  115  116 1    
   228  115  117 1    
   229  115  236 1    
   230  116  237 1    
   231  116  238 1    
   232  116  239 1    
   233  117  118 2    
   234  117  119 am   BACKBONE|DICT|INTERRES
   235  119  120 1    
   236  119  240 1    
   237  120  121 1    
   238  120  124 1    
   239  120  241 1    
   240  121  122 am   BACKBONE|DICT|INTERRES
   241  121  123 2    
   242  122  242 1    
   243  122  243 1    
   244  124  125 1    
   245  124  244 1    
   246  124  245 1    
   247  125  126 1    
   248  126  246 1    
   249  126  247 1    
@<TRIPOS>SUBSTRUCTURE
     1 UNK         1 GROUP             0       ****    0 ROOT    
