@<TRIPOS>MOLECULE
3R540
247   249    1
SMALL
USER_CHARGES


@<TRIPOS>ATOM
      1 CA         -0.6693  -14.3364  -51.3255 C.3       0 UNK        -0.1800 
      2 C          -1.7546  -15.3499  -50.9932 C.2       0 UNK         0.5000 
      3 O          -2.9250  -15.1135  -51.2919 O.2       0 UNK        -0.5000 
      4 N          -1.3671  -16.4773  -50.3818 N.am      1 UNK        -0.5000 
      5 CA         -2.2465  -17.5812  -49.9763 C.3       1 UNK         0.1400 
      6 C6         -2.9586  -18.2556  -51.1837 C.3       23 UNK        -0.0398 
      7 S7         -3.0727  -20.0682  -51.0007 S.3       23 UNK        -0.2404 
      8 C8         -1.7389  -20.6416  -52.1115 C.3       23 UNK        -0.0205 
      9 C9         -0.4099  -19.9595  -51.8232 C.ar      23 UNK        -0.0193 
     10 C10         0.1778  -19.1311  -52.7816 C.ar      23 UNK        -0.1150 
     11 C11         1.3604  -18.4406  -52.5001 C.ar      23 UNK        -0.0193 
     12 C12         1.9617  -18.5923  -51.2467 C.ar      23 UNK        -0.1150 
     13 C13         1.3919  -19.4347  -50.2875 C.ar      23 UNK        -0.0193 
     14 C14         0.2166  -20.1270  -50.5875 C.ar      23 UNK        -0.1150 
     15 C15         2.0148  -19.5816  -48.9120 C.3       23 UNK        -0.0205 
     16 S16         2.8686  -21.1793  -48.7375 S.3       23 UNK        -0.2404 
     17 C17         2.7567  -21.3975  -46.9285 C.3       23 UNK        -0.0398 
     18 CA          1.7084  -22.4246  -46.4205 C.3       11 UNK         0.1400 
     19 N           1.5767  -22.3288  -44.9655 N.am      11 UNK        -0.5000 
     20 C           0.9064  -23.1830  -44.1812 C.2       10 UNK         0.5000 
     21 O           0.3586  -24.2083  -44.5881 O.2       10 UNK        -0.5000 
     22 CA          0.7975  -22.7923  -42.6948 C.3       10 UNK         0.1400 
     23 CB          2.0885  -23.1415  -41.9392 C.3       10 UNK        -0.1800 
     24 N           0.4938  -21.3710  -42.5092 N.am      10 UNK        -0.5000 
     25 C          -0.6416  -20.7838  -42.9146 C.2       9 UNK         0.5000 
     26 O          -1.5682  -21.3853  -43.4537 O.2       9 UNK        -0.5000 
     27 CA         -0.7459  -19.2623  -42.7282 C.3       9 UNK         0.1400 
     28 CB         -1.0570  -18.9205  -41.2626 C.3       9 UNK        -0.1800 
     29 N           0.4646  -18.5617  -43.1541 N.am      9 UNK        -0.5000 
     30 C           0.9599  -18.5566  -44.4001 C.2       8 UNK         0.5000 
     31 O           0.4296  -19.1227  -45.3515 O.2       8 UNK        -0.5000 
     32 CA          2.3134  -17.8584  -44.6087 C.3       8 UNK         0.1400 
     33 CB          2.1329  -16.3448  -44.7891 C.3       8 UNK        -0.1800 
     34 N           3.2403  -18.1289  -43.5101 N.am      8 UNK        -0.5000 
     35 C           3.7593  -19.3357  -43.2384 C.2       7 UNK         0.5000 
     36 O           3.5363  -20.3451  -43.9078 O.2       7 UNK        -0.5000 
     37 CA          4.6390  -19.4348  -41.9797 C.3       7 UNK         0.1400 
     38 CB          6.0716  -18.9700  -42.2800 C.3       7 UNK        -0.1800 
     39 N           4.0973  -18.6569  -40.8640 N.am      7 UNK        -0.5000 
     40 C           2.9648  -18.9615  -40.2146 C.2       6 UNK         0.5000 
     41 O           2.2812  -19.9555  -40.4635 O.2       6 UNK        -0.5000 
     42 CA          2.4946  -17.9553  -39.1446 C.3       6 UNK         0.1400 
     43 CB          3.2050  -18.2144  -37.8078 C.3       6 UNK        -0.1800 
     44 N           2.6850  -16.5523  -39.5369 N.am      6 UNK        -0.5000 
     45 C           2.0961  -15.9859  -40.5975 C.2       5 UNK         0.5000 
     46 O           1.3481  -16.6016  -41.3622 O.2       5 UNK        -0.5000 
     47 CA          2.4091  -14.5086  -40.8833 C.3       5 UNK         0.1400 
     48 CB          3.8615  -14.3322  -41.3637 C.3       5 UNK        -0.1800 
     49 N           1.4848  -14.0822  -41.9250 N.am      5 UNK        -0.5000 
     50 C           1.1591  -12.8432  -42.3007 C.2       4 UNK         0.5000 
     51 O           1.6400  -11.8252  -41.8020 O.2       4 UNK        -0.5000 
     52 CA          0.1132  -12.7276  -43.4323 C.3       4 UNK         0.1400 
     53 CB          0.8043  -12.4281  -44.7714 C.3       4 UNK        -0.1800 
     54 N          -0.7061  -13.9352  -43.5907 N.am      4 UNK        -0.5000 
     55 C          -1.6566  -14.3379  -42.7389 C.2       3 UNK         0.5000 
     56 O          -2.0096  -13.6794  -41.7592 O.2       3 UNK        -0.5000 
     57 CA         -2.3062  -15.7065  -43.0359 C.3       3 UNK         0.1400 
     58 CB         -3.2831  -16.1507  -41.9319 C.3       3 UNK        -0.1800 
     59 N          -3.0118  -15.7423  -44.3173 N.am      3 UNK        -0.5000 
     60 C          -2.4450  -15.8228  -45.5262 C.2       2 UNK         0.5000 
     61 O          -1.2250  -15.8296  -45.7136 O.2       2 UNK        -0.5000 
     62 CA         -3.4112  -15.8867  -46.7179 C.3       2 UNK         0.1400 
     63 CB         -4.0053  -14.5020  -47.0257 C.3       2 UNK        -0.1800 
     64 N          -2.6994  -16.3727  -47.8936 N.am      2 UNK        -0.5000 
     65 C          -3.2058  -17.1820  -48.8309 C.2       1 UNK         0.5000 
     66 O          -4.3613  -17.6118  -48.8067 O.2       1 UNK        -0.5000 
     67 C           0.3287  -22.3317  -47.1183 C.2       11 UNK         0.5000 
     68 O           0.0279  -23.1578  -47.9803 O.2       11 UNK        -0.5000 
     69 N          -0.4983  -21.3597  -46.7068 N.am      12 UNK        -0.5000 
     70 CA         -1.8654  -21.1617  -47.1838 C.3       12 UNK         0.1400 
     71 CB         -2.4360  -19.8575  -46.6079 C.3       12 UNK        -0.1800 
     72 C          -2.7798  -22.3498  -46.8557 C.2       12 UNK         0.5000 
     73 O          -3.4624  -22.8426  -47.7516 O.2       12 UNK        -0.5000 
     74 N          -2.7509  -22.8156  -45.5988 N.am      13 UNK        -0.5000 
     75 CA         -3.5547  -23.9306  -45.0899 C.3       13 UNK         0.1400 
     76 CB         -3.2810  -24.1244  -43.5915 C.3       13 UNK        -0.1800 
     77 C          -3.3450  -25.2524  -45.8499 C.2       13 UNK         0.5000 
     78 O          -4.3077  -25.9965  -46.0365 O.2       13 UNK        -0.5000 
     79 N          -2.1183  -25.4914  -46.3346 N.am      14 UNK        -0.5000 
     80 CA         -1.7671  -26.6307  -47.1875 C.3       14 UNK         0.1400 
     81 CB         -0.2406  -26.6860  -47.3485 C.3       14 UNK        -0.1800 
     82 C          -2.4623  -26.6140  -48.5674 C.2       14 UNK         0.5000 
     83 O          -2.6258  -27.6749  -49.1709 O.2       14 UNK        -0.5000 
     84 N          -2.8773  -25.4265  -49.0276 N.am      15 UNK        -0.5000 
     85 CA         -3.6402  -25.2003  -50.2565 C.3       15 UNK         0.1400 
     86 CB         -2.9758  -24.0448  -51.0234 C.3       15 UNK        -0.1800 
     87 C          -5.1239  -24.8820  -49.9687 C.2       15 UNK         0.5000 
     88 O          -5.8550  -24.5487  -50.9015 O.2       15 UNK        -0.5000 
     89 N          -5.5365  -24.9633  -48.6927 N.am      16 UNK        -0.5000 
     90 CA         -6.8491  -24.6013  -48.1388 C.3       16 UNK         0.1400 
     91 CB         -7.9687  -25.4779  -48.7380 C.3       16 UNK        -0.1800 
     92 C          -7.1736  -23.0891  -48.2030 C.2       16 UNK         0.5000 
     93 O          -8.3351  -22.7147  -48.0318 O.2       16 UNK        -0.5000 
     94 N          -6.1354  -22.2614  -48.3953 N.am      17 UNK        -0.5000 
     95 CA         -6.1023  -20.7999  -48.5049 C.3       17 UNK         0.1400 
     96 CB         -6.5755  -20.1444  -47.1930 C.3       17 UNK        -0.1800 
     97 C          -6.8464  -20.2230  -49.7275 C.2       17 UNK         0.5000 
     98 O          -7.6977  -20.8780  -50.3308 O.2       17 UNK        -0.5000 
     99 N          -6.4888  -18.9776  -50.0709 N.am      18 UNK        -0.5000 
    100 CA        -7.0759  -18.1239  -51.1115 C.3       18 UNK         0.1400 
    101 CB        -8.5318  -17.7628  -50.7510 C.3       18 UNK        -0.1800 
    102 C         -6.9474  -18.6525  -52.5587 C.2       18 UNK         0.5000 
    103 O         -7.6048  -18.1180  -53.4533 O.2       18 UNK        -0.5000 
    104 N         -6.0973  -19.6652  -52.7842 N.am      19 UNK        -0.5000 
    105 CA        -5.8432  -20.2544  -54.1025 C.3       19 UNK         0.1400 
    106 CB        -5.1486  -21.6140  -53.9288 C.3       19 UNK        -0.1800 
    107 C         -5.0280  -19.3247  -55.0238 C.2       19 UNK         0.5000 
    108 O         -5.2263  -19.3534  -56.2390 O.2       19 UNK        -0.5000 
    109 N         -4.1623  -18.4994  -54.4147 N.am      20 UNK        -0.5000 
    110 CA        -3.3335  -17.4574  -55.0286 C.3       20 UNK         0.1400 
    111 CB        -4.2199  -16.2693  -55.4646 C.3       20 UNK        -0.1800 
    112 C         -2.4066  -18.0054  -56.1369 C.2       20 UNK         0.5000 
    113 O         -1.7605  -19.0320  -55.9199 O.2       20 UNK        -0.5000 
    114 N         -2.3396  -17.3029  -57.2791 N.am      21 UNK        -0.5000 
    115 CA        -1.5053  -17.5887  -58.4550 C.3       21 UNK         0.1400 
    116 CB        -1.9252  -18.9167  -59.1206 C.3       21 UNK        -0.1800 
    117 C          0.0097  -17.5092  -58.1622 C.2       21 UNK         0.5000 
    118 O          0.7976  -18.2446  -58.7606 O.2       21 UNK        -0.5000 
    119 N          0.3857  -16.6164  -57.2384 N.am      22 UNK        -0.5000 
    120 CA         1.7697  -16.3634  -56.8151 C.3       22 UNK         0.1400 
    121 C          2.6249  -15.6868  -57.9227 C.2       22 UNK         0.5000 
    122 N          3.9114  -15.9989  -57.9996 N.am      22 UNK        -0.7600 
    123 O          2.1439  -14.8506  -58.6849 O.2       22 UNK        -0.5000 
    124 C124        1.8283  -15.5348  -55.5045 C.3       23 UNK        -0.0398 
    125 S125        0.8512  -16.2583  -54.1426 S.3       23 UNK        -0.2404 
    126 C126        1.9940  -17.5512  -53.5596 C.3       23 UNK        -0.0205 
    127 H127       -0.8088  -13.4300  -50.7367 H         1 UNK         0.0600 
    128 H128       -0.7162  -14.0698  -52.3814 H         1 UNK         0.0600 
    129 H129        0.3274  -14.7287  -51.1211 H         1 UNK         0.0600 
    130 H130       -0.3853  -16.6138  -50.1866 H         1 UNK         0.3000 
    131 H131       -1.5712  -18.3095  -49.5275 H         1 UNK         0.0600 
    132 H132       -2.4077  -18.0474  -52.0998 H         1 UNK         0.0800 
    133 H133       -3.9514  -17.8369  -51.3515 H         1 UNK         0.0800 
    134 H134       -2.0389  -20.4689  -53.1464 H         1 UNK         0.0800 
    135 H135       -1.6161  -21.7190  -52.0032 H         1 UNK         0.0800 
    136 H136       -0.2930  -19.0061  -53.7462 H         1 UNK         0.1150 
    137 H137        2.8740  -18.0592  -51.0182 H         1 UNK         0.1150 
    138 H138       -0.2256  -20.7776  -49.8477 H         1 UNK         0.1150 
    139 H139        2.7198  -18.7730  -48.7131 H         1 UNK         0.0800 
    140 H140        1.2246  -19.4898  -48.1649 H         1 UNK         0.0800 
    141 H141        2.5712  -20.4242  -46.4762 H         1 UNK         0.0800 
    142 H142        3.7445  -21.6914  -46.5709 H         1 UNK         0.0800 
    143 H143        2.0983  -23.4206  -46.6410 H         1 UNK         0.0600 
    144 H144        2.0308  -21.5332  -44.5283 H         1 UNK         0.3000 
    145 H145       -0.0200  -23.3698  -42.2583 H         1 UNK         0.0600 
    146 H146        1.9884  -22.9344  -40.8736 H         1 UNK         0.0600 
    147 H147        2.9406  -22.5710  -42.3102 H         1 UNK         0.0600 
    148 H148        2.3290  -24.2000  -42.0448 H         1 UNK         0.0600 
    149 H149        1.1933  -20.8093  -42.0356 H         1 UNK         0.3000 
    150 H150       -1.5698  -18.9026  -43.3478 H         1 UNK         0.0600 
    151 H151       -2.0252  -19.3261  -40.9670 H         1 UNK         0.0600 
    152 H152       -1.0894  -17.8447  -41.0993 H         1 UNK         0.0600 
    153 H153       -0.3104  -19.3300  -40.5828 H         1 UNK         0.0600 
    154 H154        0.9473  -18.0224  -42.4395 H         1 UNK         0.3000 
    155 H155        2.7584  -18.2509  -45.5248 H         1 UNK         0.0600 
    156 H156        1.5398  -16.1313  -45.6792 H         1 UNK         0.0600 
    157 H157        3.0912  -15.8391  -44.9082 H         1 UNK         0.0600 
    158 H158        1.6169  -15.8970  -43.9431 H         1 UNK         0.0600 
    159 H159        3.4412  -17.3650  -42.8839 H         1 UNK         0.3000 
    160 H160        4.6757  -20.4846  -41.6804 H         1 UNK         0.0600 
    161 H161        6.1053  -17.9171  -42.5626 H         1 UNK         0.0600 
    162 H162        6.5036  -19.5444  -43.1006 H         1 UNK         0.0600 
    163 H163        6.7193  -19.1059  -41.4136 H         1 UNK         0.0600 
    164 H164        4.5998  -17.8238  -40.5960 H         1 UNK         0.3000 
    165 H165        1.4246  -18.1152  -38.9958 H         1 UNK         0.0600 
    166 H166        2.8090  -17.5732  -37.0201 H         1 UNK         0.0600 
    167 H167        3.0649  -19.2471  -37.4851 H         1 UNK         0.0600 
    168 H168        4.2785  -18.0355  -37.8793 H         1 UNK         0.0600 
    169 H169        3.2903  -15.9955  -38.9508 H         1 UNK         0.3000 
    170 H170        2.2324  -13.9260  -39.9774 H         1 UNK         0.0600 
    171 H171        4.0580  -14.9081  -42.2690 H         1 UNK         0.0600 
    172 H172        4.0825  -13.2871  -41.5810 H         1 UNK         0.0600 
    173 H173        4.5725  -14.6579  -40.6038 H         1 UNK         0.0600 
    174 H174        0.9930  -14.8597  -42.3469 H         1 UNK         0.3000 
    175 H175       -0.5457  -11.8913  -43.1898 H         1 UNK         0.0600 
    176 H176        1.4703  -13.2387  -45.0700 H         1 UNK         0.0600 
    177 H177        0.0745  -12.2831  -45.5682 H         1 UNK         0.0600 
    178 H178        1.4018  -11.5177  -44.7087 H         1 UNK         0.0600 
    179 H179       -0.5287  -14.5143  -44.4062 H         1 UNK         0.3000 
    180 H180       -1.4925  -16.4322  -43.0718 H         1 UNK         0.0600 
    181 H181       -4.1509  -15.4926  -41.8733 H         1 UNK         0.0600 
    182 H182       -2.8024  -16.1446  -40.9529 H         1 UNK         0.0600 
    183 H183       -3.6421  -17.1649  -42.1085 H         1 UNK         0.0600 
    184 H184       -4.0190  -15.6968  -44.2606 H         1 UNK         0.3000 
    185 H185       -4.2153  -16.5789  -46.4583 H         1 UNK         0.0600 
    186 H186       -3.2277  -13.7791  -47.2758 H         1 UNK         0.0600 
    187 H187       -4.6981  -14.5505  -47.8662 H         1 UNK         0.0600 
    188 H188       -4.5589  -14.1093  -46.1721 H         1 UNK         0.0600 
    189 H189       -1.7236  -16.1089  -47.9326 H         1 UNK         0.3000 
    190 H190       -0.1601  -20.6783  -46.0297 H         1 UNK         0.3000 
    191 H191       -1.8328  -21.0641  -48.2695 H         1 UNK         0.0600 
    192 H192       -1.8182  -19.0042  -46.8856 H         1 UNK         0.0600 
    193 H193       -2.4913  -19.8834  -45.5200 H         1 UNK         0.0600 
    194 H194       -3.4426  -19.6699  -46.9816 H         1 UNK         0.0600 
    195 H195       -2.1769  -22.3304  -44.9117 H         1 UNK         0.3000 
    196 H196       -4.6036  -23.6520  -45.2100 H         1 UNK         0.0600 
    197 H197       -3.5520  -23.2344  -43.0235 H         1 UNK         0.0600 
    198 H198       -2.2286  -24.3368  -43.4005 H         1 UNK         0.0600 
    199 H199       -3.8636  -24.9542  -43.1893 H         1 UNK         0.0600 
    200 H200       -1.3791  -24.8314  -46.1267 H         1 UNK         0.3000 
    201 H201       -2.0865  -27.5395  -46.6734 H         1 UNK         0.0600 
    202 H202        0.2580  -26.7369  -46.3802 H         1 UNK         0.0600 
    203 H203        0.1403  -25.8114  -47.8757 H         1 UNK         0.0600 
    204 H204        0.0601  -27.5670  -47.9167 H         1 UNK         0.0600 
    205 H205       -2.7221  -24.6010  -48.4582 H         1 UNK         0.3000 
    206 H206       -3.6171  -26.0892  -50.8896 H         1 UNK         0.0600 
    207 H207       -1.9320  -24.2678  -51.2451 H         1 UNK         0.0600 
    208 H208       -3.0043  -23.1183  -50.4492 H         1 UNK         0.0600 
    209 H209       -3.4768  -23.8579  -51.9740 H         1 UNK         0.0600 
    210 H210       -4.8577  -25.2649  -48.0045 H         1 UNK         0.3000 
    211 H211       -6.7889  -24.8399  -47.0761 H         1 UNK         0.0600 
    212 H212       -8.1594  -25.2348  -49.7835 H         1 UNK         0.0600 
    213 H213       -8.9055  -25.3391  -48.1973 H         1 UNK         0.0600 
    214 H214       -7.7160  -26.5365  -48.6785 H         1 UNK         0.0600 
    215 H215       -5.2182  -22.6947  -48.4542 H         1 UNK         0.3000 
    216 H216       -5.0487  -20.5508  -48.6370 H         1 UNK         0.0600 
    217 H217       -6.4162  -19.0656  -47.2140 H         1 UNK         0.0600 
    218 H218       -6.0241  -20.5345  -46.3373 H         1 UNK         0.0600 
    219 H219       -7.6378  -20.3129  -47.0150 H         1 UNK         0.0600 
    220 H220       -5.7501  -18.5278  -49.5299 H         1 UNK         0.3000 
    221 H221       -6.4982  -17.1988  -51.0874 H         1 UNK         0.0600 
    222 H222       -8.5988  -17.3598  -49.7404 H         1 UNK         0.0600 
    223 H223       -8.9292  -17.0043  -51.4263 H         1 UNK         0.0600 
    224 H224       -9.1899  -18.6300  -50.8108 H         1 UNK         0.0600 
    225 H225       -5.6104  -20.0699  -51.9975 H         1 UNK         0.3000 
    226 H226       -6.8067  -20.4317  -54.5854 H         1 UNK         0.0600 
    227 H227       -5.7536  -22.2922  -53.3262 H         1 UNK         0.0600 
    228 H228       -4.9860  -22.0941  -54.8945 H         1 UNK         0.0600 
    229 H229       -4.1779  -21.5168  -53.4456 H         1 UNK         0.0600 
    230 H230       -4.0733  -18.5980  -53.4160 H         1 UNK         0.3000 
    231 H231       -2.6677  -17.0919  -54.2460 H         1 UNK         0.0600 
    232 H232       -3.6184  -15.4179  -55.7851 H         1 UNK         0.0600 
    233 H233       -4.8375  -15.9230  -54.6354 H         1 UNK         0.0600 
    234 H234       -4.8901  -16.5380  -56.2822 H         1 UNK         0.0600 
    235 H235       -2.9182  -16.4778  -57.3524 H         1 UNK         0.3000 
    236 H236       -1.7100  -16.7905  -59.1698 H         1 UNK         0.0600 
    237 H237       -1.6807  -19.7780  -58.4984 H         1 UNK         0.0600 
    238 H238       -2.9974  -18.9381  -59.3157 H         1 UNK         0.0600 
    239 H239       -1.4195  -19.0518  -60.0773 H         1 UNK         0.0600 
    240 H240       -0.3228  -16.0501  -56.7978 H         1 UNK         0.3000 
    241 H241        2.2170  -17.3383  -56.6138 H         1 UNK         0.0600 
    242 H242        4.4808  -15.5558  -58.7044 H         1 UNK         0.3800 
    243 H243        4.3317  -16.6774  -57.3830 H         1 UNK         0.3800 
    244 H244        1.4534  -14.5249  -55.6800 H         1 UNK         0.0800 
    245 H245        2.8603  -15.4183  -55.1688 H         1 UNK         0.0800 
    246 H246        2.2961  -18.1799  -54.3975 H         1 UNK         0.0800 
    247 H247        2.9007  -17.0788  -53.1786 H         1 UNK         0.0800 
@<TRIPOS>BOND
     1    1    2 1    
     2    1  127 1    
     3    1  128 1    
     4    1  129 1    
     5    2    3 2    
     6    2    4 am   BACKBONE|DICT|INTERRES
     7    4    5 1    
     8    4  130 1    
     9    5    6 1    
    10    5   65 1    
    11    5  131 1    
    12    6    7 1    
    13    6  132 1    
    14    6  133 1    
    15    7    8 1    
    16    8    9 1    
    17    8  134 1    
    18    8  135 1    
    19    9   10 ar   
    20    9   14 ar   
    21   10   11 ar   
    22   10  136 1    
    23   11   12 ar   
    24   11  126 1    
    25   12   13 ar   
    26   12  137 1    
    27   13   14 ar   
    28   13   15 1    
    29   14  138 1    
    30   15   16 1    
    31   15  139 1    
    32   15  140 1    
    33   16   17 1    
    34   17   18 1    
    35   17  141 1    
    36   17  142 1    
    37   18   19 1    
    38   18   67 1    
    39   18  143 1    
    40   19   20 am   BACKBONE|DICT|INTERRES
    41   19  144 1    
    42   20   21 2    
    43   20   22 1    
    44   22   23 1    
    45   22   24 1    
    46   22  145 1    
    47   23  146 1    
    48   23  147 1    
    49   23  148 1    
    50   24   25 am   BACKBONE|DICT|INTERRES
    51   24  149 1    
    52   25   26 2    
    53   25   27 1    
    54   27   28 1    
    55   27   29 1    
    56   27  150 1    
    57   28  151 1    
    58   28  152 1    
    59   28  153 1    
    60   29   30 am   BACKBONE|DICT|INTERRES
    61   29  154 1    
    62   30   31 2    
    63   30   32 1    
    64   32   33 1    
    65   32   34 1    
    66   32  155 1    
    67   33  156 1    
    68   33  157 1    
    69   33  158 1    
    70   34   35 am   BACKBONE|DICT|INTERRES
    71   34  159 1    
    72   35   36 2    
    73   35   37 1    
    74   37   38 1    
    75   37   39 1    
    76   37  160 1    
    77   38  161 1    
    78   38  162 1    
    79   38  163 1    
    80   39   40 am   BACKBONE|DICT|INTERRES
    81   39  164 1    
    82   40   41 2    
    83   40   42 1    
    84   42   43 1    
    85   42   44 1    
    86   42  165 1    
    87   43  166 1    
    88   43  167 1    
    89   43  168 1    
    90   44   45 am   BACKBONE|DICT|INTERRES
    91   44  169 1    
    92   45   46 2    
    93   45   47 1    
    94   47   48 1    
    95   47   49 1    
    96   47  170 1    
    97   48  171 1    
    98   48  172 1    
    99   48  173 1    
   100   49   50 am   BACKBONE|DICT|INTERRES
   101   49  174 1    
   102   50   51 2    
   103   50   52 1    
   104   52   53 1    
   105   52   54 1    
   106   52  175 1    
   107   53  176 1    
   108   53  177 1    
   109   53  178 1    
   110   54   55 am   BACKBONE|DICT|INTERRES
   111   54  179 1    
   112   55   56 2    
   113   55   57 1    
   114   57   58 1    
   115   57   59 1    
   116   57  180 1    
   117   58  181 1    
   118   58  182 1    
   119   58  183 1    
   120   59   60 am   BACKBONE|DICT|INTERRES
   121   59  184 1    
   122   60   61 2    
   123   60   62 1    
   124   62   63 1    
   125   62   64 1    
   126   62  185 1    
   127   63  186 1    
   128   63  187 1    
   129   63  188 1    
   130   64   65 am   BACKBONE|DICT|INTERRES
   131   64  189 1    
   132   65   66 2    
   133   67   68 2    
   134   67   69 am   BACKBONE|DICT|INTERRES
   135   69   70 1    
   136   69  190 1    
   137   70   71 1    
   138   70   72 1    
   139   70  191 1    
   140   71  192 1    
   141   71  193 1    
   142   71  194 1    
   143   72   73 2    
   144   72   74 am   BACKBONE|DICT|INTERRES
   145   74   75 1    
   146   74  195 1    
   147   75   76 1    
   148   75   77 1    
   149   75  196 1    
   150   76  197 1    
   151   76  198 1    
   152   76  199 1    
   153   77   78 2    
   154   77   79 am   BACKBONE|DICT|INTERRES
   155   79   80 1    
   156   79  200 1    
   157   80   81 1    
   158   80   82 1    
   159   80  201 1    
   160   81  202 1    
   161   81  203 1    
   162   81  204 1    
   163   82   83 2    
   164   82   84 am   BACKBONE|DICT|INTERRES
   165   84   85 1    
   166   84  205 1    
   167   85   86 1    
   168   85   87 1    
   169   85  206 1    
   170   86  207 1    
   171   86  208 1    
   172   86  209 1    
   173   87   88 2    
   174   87   89 am   BACKBONE|DICT|INTERRES
   175   89   90 1    
   176   89  210 1    
   177   90   91 1    
   178   90   92 1    
   179   90  211 1    
   180   91  212 1    
   181   91  213 1    
   182   91  214 1    
   183   92   93 2    
   184   92   94 am   BACKBONE|DICT|INTERRES
   185   94   95 1    
   186   94  215 1    
   187   95   96 1    
   188   95   97 1    
   189   95  216 1    
   190   96  217 1    
   191   96  218 1    
   192   96  219 1    
   193   97   98 2    
   194   97   99 am   BACKBONE|DICT|INTERRES
   195   99  100 1    
   196   99  220 1    
   197  100  101 1    
   198  100  102 1    
   199  100  221 1    
   200  101  222 1    
   201  101  223 1    
   202  101  224 1    
   203  102  103 2    
   204  102  104 am   BACKBONE|DICT|INTERRES
   205  104  105 1    
   206  104  225 1    
   207  105  106 1    
   208  105  107 1    
   209  105  226 1    
   210  106  227 1    
   211  106  228 1    
   212  106  229 1    
   213  107  108 2    
   214  107  109 am   BACKBONE|DICT|INTERRES
   215  109  110 1    
   216  109  230 1    
   217  110  111 1    
   218  110  112 1    
   219  110  231 1    
   220  111  232 1    
   221  111  233 1    
   222  111  234 1    
   223  112  113 2    
   224  112  114 am   BACKBONE|DICT|INTERRES
   225  114  115 1    
   226  114  235 1    
   227  115  116 1    
   228  115  117 1    
   229  115  236 1    
   230  116  237 1    
   231  116  238 1    
   232  116  239 1    
   233  117  118 2    
   234  117  119 am   BACKBONE|DICT|INTERRES
   235  119  120 1    
   236  119  240 1    
   237  120  121 1    
   238  120  124 1    
   239  120  241 1    
   240  121  122 am   BACKBONE|DICT|INTERRES
   241  121  123 2    
   242  122  242 1    
   243  122  243 1    
   244  124  125 1    
   245  124  244 1    
   246  124  245 1    
   247  125  126 1    
   248  126  246 1    
   249  126  247 1    
@<TRIPOS>SUBSTRUCTURE
     1 UNK         1 GROUP             0       ****    0 ROOT    
