@<TRIPOS>MOLECULE
3R540
247   249    1
SMALL
USER_CHARGES


@<TRIPOS>ATOM
      1 CA          2.3723   -9.1782  -48.6900 C.3       0 UNK        -0.1800 
      2 C           1.7776  -10.3786  -47.9696 C.2       0 UNK         0.5000 
      3 O           2.1320  -10.6403  -46.8211 O.2       0 UNK        -0.5000 
      4 N           0.8574  -11.0985  -48.6249 N.am      1 UNK        -0.5000 
      5 CA          0.1958  -12.3058  -48.1055 C.3       1 UNK         0.1400 
      6 C6         -0.6360  -13.0104  -49.2106 C.3       23 UNK        -0.0398 
      7 S7         -0.5481  -14.8285  -49.1054 S.3       23 UNK        -0.2404 
      8 C8          0.6776  -15.1774  -50.4036 C.3       23 UNK        -0.0205 
      9 C9          0.9164  -16.6688  -50.5868 C.ar      23 UNK        -0.0193 
     10 C10         0.5539  -17.3024  -51.7793 C.ar      23 UNK        -0.1150 
     11 C11         0.8377  -18.6566  -51.9746 C.ar      23 UNK        -0.0193 
     12 C12         1.4748  -19.3806  -50.9640 C.ar      23 UNK        -0.1150 
     13 C13         1.8207  -18.7681  -49.7537 C.ar      23 UNK        -0.0193 
     14 C14         1.5438  -17.4083  -49.5799 C.ar      23 UNK        -0.1150 
     15 C15         2.5293  -19.5193  -48.6275 C.3       23 UNK        -0.0205 
     16 S16         2.2876  -21.3308  -48.5951 S.3       23 UNK        -0.2404 
     17 C17         0.4784  -21.4895  -48.4232 C.3       23 UNK        -0.0398 
     18 CA          0.0970  -22.6765  -47.5073 C.3       11 UNK         0.1400 
     19 N           0.3579  -22.4079  -46.0871 N.am      11 UNK        -0.5000 
     20 C           0.2472  -23.3138  -45.1048 C.2       10 UNK         0.5000 
     21 O          -0.0577  -24.4895  -45.2992 O.2       10 UNK        -0.5000 
     22 CA          0.4315  -22.8169  -43.6611 C.3       10 UNK         0.1400 
     23 CB          1.9158  -22.6273  -43.3143 C.3       10 UNK        -0.1800 
     24 N          -0.3131  -21.5816  -43.4182 N.am      10 UNK        -0.5000 
     25 C          -1.6518  -21.5136  -43.3707 C.2       9 UNK         0.5000 
     26 O          -2.3865  -22.4986  -43.4446 O.2       9 UNK        -0.5000 
     27 CA         -2.2830  -20.1141  -43.2468 C.3       9 UNK         0.1400 
     28 CB         -2.3987  -19.7058  -41.7708 C.3       9 UNK        -0.1800 
     29 N          -1.5524  -19.0819  -43.9828 N.am      9 UNK        -0.5000 
     30 C          -1.3990  -19.0511  -45.3147 C.2       8 UNK         0.5000 
     31 O          -1.8940  -19.8766  -46.0806 O.2       8 UNK        -0.5000 
     32 CA         -0.4787  -17.9531  -45.8793 C.3       8 UNK         0.1400 
     33 CB         -1.2127  -16.6070  -45.9465 C.3       8 UNK        -0.1800 
     34 N           0.7557  -17.8031  -45.1059 N.am      8 UNK        -0.5000 
     35 C           1.6480  -18.7818  -44.8971 C.2       7 UNK         0.5000 
     36 O           1.5365  -19.9165  -45.3569 O.2       7 UNK        -0.5000 
     37 CA          2.8367  -18.4565  -43.9820 C.3       7 UNK         0.1400 
     38 CB          3.9138  -17.6645  -44.7382 C.3       7 UNK        -0.1800 
     39 N           2.4019  -17.7175  -42.7986 N.am      7 UNK        -0.5000 
     40 C           1.7126  -18.2647  -41.7869 C.2       6 UNK         0.5000 
     41 O           1.4319  -19.4616  -41.7189 O.2       6 UNK        -0.5000 
     42 CA          1.2226  -17.3056  -40.6865 C.3       6 UNK         0.1400 
     43 CB          2.3224  -17.0728  -39.6400 C.3       6 UNK        -0.1800 
     44 N           0.7791  -16.0162  -41.2196 N.am      6 UNK        -0.5000 
     45 C          -0.2965  -15.8528  -42.0026 C.2       5 UNK         0.5000 
     46 O          -1.0483  -16.7701  -42.3288 O.2       5 UNK        -0.5000 
     47 CA         -0.5539  -14.4360  -42.5446 C.3       5 UNK         0.1400 
     48 CB         -1.4119  -13.6293  -41.5597 C.3       5 UNK        -0.1800 
     49 N           0.6670  -13.6873  -42.8462 N.am      5 UNK        -0.5000 
     50 C           1.5956  -14.0405  -43.7451 C.2       4 UNK         0.5000 
     51 O           1.5747  -15.1151  -44.3478 O.2       4 UNK        -0.5000 
     52 CA          2.7304  -13.0253  -44.0066 C.3       4 UNK         0.1400 
     53 CB          3.5522  -13.3751  -45.2602 C.3       4 UNK        -0.1800 
     54 N           2.2253  -11.6590  -44.1501 N.am      4 UNK        -0.5000 
     55 C           1.8907  -10.8314  -43.1517 C.2       3 UNK         0.5000 
     56 O           1.9943  -11.1249  -41.9604 O.2       3 UNK        -0.5000 
     57 CA          1.2694   -9.4861  -43.5582 C.3       3 UNK         0.1400 
     58 CB          2.3409   -8.5072  -44.0638 C.3       3 UNK        -0.1800 
     59 N           0.2506   -9.6841  -44.5892 N.am      3 UNK        -0.5000 
     60 C          -1.0135  -10.0547  -44.3376 C.2       2 UNK         0.5000 
     61 O          -1.4738  -10.1797  -43.2027 O.2       2 UNK        -0.5000 
     62 CA         -1.9215  -10.3333  -45.5516 C.3       2 UNK         0.1400 
     63 CB         -2.7061   -9.0699  -45.9365 C.3       2 UNK        -0.1800 
     64 N          -1.1821  -10.8098  -46.7209 N.am      2 UNK        -0.5000 
     65 C          -0.6525  -12.0364  -46.8398 C.2       1 UNK         0.5000 
     66 O          -0.7884  -12.9186  -45.9934 O.2       1 UNK        -0.5000 
     67 C          -1.3570  -23.1270  -47.7586 C.2       11 UNK         0.5000 
     68 O          -1.5752  -24.0479  -48.5460 O.2       11 UNK        -0.5000 
     69 N          -2.3205  -22.5327  -47.0427 N.am      12 UNK        -0.5000 
     70 CA         -3.7364  -22.9065  -47.0738 C.3       12 UNK         0.1400 
     71 CB         -4.5610  -21.8449  -46.3307 C.3       12 UNK        -0.1800 
     72 C          -4.0369  -24.3182  -46.5264 C.2       12 UNK         0.5000 
     73 O          -5.1226  -24.8337  -46.7929 O.2       12 UNK        -0.5000 
     74 N          -3.0876  -24.9249  -45.8027 N.am      13 UNK        -0.5000 
     75 CA         -3.1433  -26.3167  -45.3640 C.3       13 UNK         0.1400 
     76 CB         -2.6759  -26.4076  -43.9022 C.3       13 UNK        -0.1800 
     77 C          -2.2841  -27.2146  -46.2720 C.2       13 UNK         0.5000 
     78 O          -2.7569  -28.2664  -46.7034 O.2       13 UNK        -0.5000 
     79 N          -1.0356  -26.7987  -46.5278 N.am      14 UNK        -0.5000 
     80 CA         -0.0210  -27.5806  -47.2340 C.3       14 UNK         0.1400 
     81 CB          1.3656  -26.9747  -46.9628 C.3       14 UNK        -0.1800 
     82 C          -0.2748  -27.7013  -48.7459 C.2       14 UNK         0.5000 
     83 O          -0.2370  -28.8117  -49.2782 O.2       14 UNK        -0.5000 
     84 N          -0.5129  -26.5638  -49.4102 N.am      15 UNK        -0.5000 
     85 CA         -0.8003  -26.4941  -50.8442 C.3       15 UNK         0.1400 
     86 CB         -0.2146  -25.1945  -51.4234 C.3       15 UNK        -0.1800 
     87 C          -2.3123  -26.5719  -51.1074 C.2       15 UNK         0.5000 
     88 O          -2.7202  -27.1908  -52.0905 O.2       15 UNK        -0.5000 
     89 N          -3.0924  -25.9583  -50.2043 N.am      16 UNK        -0.5000 
     90 CA         -4.5455  -25.7707  -50.2159 C.3       16 UNK         0.1400 
     91 CB         -5.3089  -27.0949  -50.4116 C.3       16 UNK        -0.1800 
     92 C          -4.9938  -24.6950  -51.2205 C.2       16 UNK         0.5000 
     93 O          -4.3644  -24.5055  -52.2627 O.2       16 UNK        -0.5000 
     94 N          -6.0848  -23.9967  -50.8743 N.am      17 UNK        -0.5000 
     95 CA         -6.6933  -22.8982  -51.6363 C.3       17 UNK         0.1400 
     96 CB         -7.3333  -23.4267  -52.9372 C.3       17 UNK        -0.1800 
     97 C          -5.7234  -21.7211  -51.8788 C.2       17 UNK         0.5000 
     98 O          -5.6885  -21.1560  -52.9736 O.2       17 UNK        -0.5000 
     99 N          -4.9314  -21.3809  -50.8554 N.am      18 UNK        -0.5000 
    100 CA        -4.0550  -20.2125  -50.8583 C.3       18 UNK         0.1400 
    101 CB        -2.8415  -20.4868  -49.9565 C.3       18 UNK        -0.1800 
    102 C         -4.8375  -18.9801  -50.3608 C.2       18 UNK         0.5000 
    103 O         -5.7043  -19.1359  -49.5001 O.2       18 UNK        -0.5000 
    104 N         -4.5630  -17.7631  -50.8485 N.am      19 UNK        -0.5000 
    105 CA        -3.6017  -17.3984  -51.8963 C.3       19 UNK         0.1400 
    106 CB        -3.1331  -15.9620  -51.6197 C.3       19 UNK        -0.1800 
    107 C         -4.1929  -17.4951  -53.3211 C.2       19 UNK         0.5000 
    108 O         -3.4873  -17.1989  -54.2850 O.2       19 UNK        -0.5000 
    109 N         -5.4825  -17.8492  -53.4244 N.am      20 UNK        -0.5000 
    110 CA        -6.2915  -17.8148  -54.6442 C.3       20 UNK         0.1400 
    111 CB        -7.7404  -18.1871  -54.2913 C.3       20 UNK        -0.1800 
    112 C         -5.7753  -18.6994  -55.7938 C.2       20 UNK         0.5000 
    113 O         -5.7542  -18.2428  -56.9382 O.2       20 UNK        -0.5000 
    114 N         -5.3895  -19.9393  -55.4748 N.am      21 UNK        -0.5000 
    115 CA        -4.9254  -20.9380  -56.4361 C.3       21 UNK         0.1400 
    116 CB        -5.9766  -22.0526  -56.5601 C.3       21 UNK        -0.1800 
    117 C         -3.5607  -21.5170  -56.0390 C.2       21 UNK         0.5000 
    118 O         -2.6944  -21.6365  -56.9061 O.2       21 UNK        -0.5000 
    119 N         -3.3926  -21.8552  -54.7519 N.am      22 UNK        -0.5000 
    120 CA        -2.2023  -22.5063  -54.1736 C.3       22 UNK         0.1400 
    121 C         -1.9273  -23.9001  -54.8091 C.2       22 UNK         0.5000 
    122 N         -2.7174  -24.9047  -54.4641 N.am      22 UNK        -0.7600 
    123 O         -1.0053  -24.0831  -55.6006 O.2       22 UNK        -0.5000 
    124 C124       -0.9408  -21.6000  -54.1753 C.3       23 UNK        -0.0398 
    125 S125       -1.1693  -20.1079  -53.1610 S.3       23 UNK        -0.2404 
    126 C126        0.4729  -19.3445  -53.2788 C.3       23 UNK        -0.0205 
    127 H127        3.4510   -9.2989  -48.7883 H         1 UNK         0.0600 
    128 H128        2.1807   -8.2681  -48.1217 H         1 UNK         0.0600 
    129 H129        1.9506   -9.0533  -49.6875 H         1 UNK         0.0600 
    130 H130        0.6006  -10.8236  -49.5624 H         1 UNK         0.3000 
    131 H131        1.0035  -12.9747  -47.7997 H         1 UNK         0.0600 
    132 H132       -1.6847  -12.7077  -49.1838 H         1 UNK         0.0800 
    133 H133       -0.2862  -12.7163  -50.2010 H         1 UNK         0.0800 
    134 H134        0.3428  -14.7310  -51.3413 H         1 UNK         0.0800 
    135 H135        1.6208  -14.6924  -50.1477 H         1 UNK         0.0800 
    136 H136        0.0677  -16.7404  -52.5643 H         1 UNK         0.1150 
    137 H137        1.6991  -20.4240  -51.1309 H         1 UNK         0.1150 
    138 H138        1.8248  -16.9159  -48.6590 H         1 UNK         0.1150 
    139 H139        3.5985  -19.3194  -48.7041 H         1 UNK         0.0800 
    140 H140        2.2120  -19.1097  -47.6717 H         1 UNK         0.0800 
    141 H141        0.0778  -21.6257  -49.4296 H         1 UNK         0.0800 
    142 H142        0.0519  -20.5585  -48.0460 H         1 UNK         0.0800 
    143 H143        0.7224  -23.5271  -47.7868 H         1 UNK         0.0600 
    144 H144        0.6558  -21.4640  -45.8479 H         1 UNK         0.3000 
    145 H145        0.0332  -23.5846  -42.9941 H         1 UNK         0.0600 
    146 H146        2.0397  -22.2918  -42.2845 H         1 UNK         0.0600 
    147 H147        2.4594  -23.5670  -43.4183 H         1 UNK         0.0600 
    148 H148        2.4012  -21.8992  -43.9626 H         1 UNK         0.0600 
    149 H149        0.2262  -20.7292  -43.3412 H         1 UNK         0.3000 
    150 H150       -3.2903  -20.1676  -43.6641 H         1 UNK         0.0600 
    151 H151       -2.9459  -20.4556  -41.1982 H         1 UNK         0.0600 
    152 H152       -2.9334  -18.7618  -41.6643 H         1 UNK         0.0600 
    153 H153       -1.4177  -19.5885  -41.3087 H         1 UNK         0.0600 
    154 H154       -1.1542  -18.3288  -43.4279 H         1 UNK         0.3000 
    155 H155       -0.1954  -18.2375  -46.8947 H         1 UNK         0.0600 
    156 H156       -2.0440  -16.6531  -46.6508 H         1 UNK         0.0600 
    157 H157       -0.5476  -15.8090  -46.2767 H         1 UNK         0.0600 
    158 H158       -1.6197  -16.3181  -44.9783 H         1 UNK         0.0600 
    159 H159        0.9466  -16.8807  -44.7227 H         1 UNK         0.3000 
    160 H160        3.2800  -19.4001  -43.6563 H         1 UNK         0.0600 
    161 H161        3.5275  -16.7252  -45.1324 H         1 UNK         0.0600 
    162 H162        4.2927  -18.2395  -45.5841 H         1 UNK         0.0600 
    163 H163        4.7626  -17.4359  -44.0936 H         1 UNK         0.0600 
    164 H164        2.5307  -16.7162  -42.8157 H         1 UNK         0.3000 
    165 H165        0.3723  -17.7776  -40.1895 H         1 UNK         0.0600 
    166 H166        1.9596  -16.4566  -38.8171 H         1 UNK         0.0600 
    167 H167        2.6597  -18.0181  -39.2125 H         1 UNK         0.0600 
    168 H168        3.1934  -16.5784  -40.0719 H         1 UNK         0.0600 
    169 H169        1.3433  -15.2082  -41.0014 H         1 UNK         0.3000 
    170 H170       -1.1117  -14.5350  -43.4775 H         1 UNK         0.0600 
    171 H171       -2.3385  -14.1555  -41.3263 H         1 UNK         0.0600 
    172 H172       -0.8877  -13.4516  -40.6199 H         1 UNK         0.0600 
    173 H173       -1.6868  -12.6615  -41.9789 H         1 UNK         0.0600 
    174 H174        0.7850  -12.7969  -42.3783 H         1 UNK         0.3000 
    175 H175        3.4013  -13.0640  -43.1463 H         1 UNK         0.0600 
    176 H176        2.9260  -13.4094  -46.1525 H         1 UNK         0.0600 
    177 H177        4.3395  -12.6413  -45.4334 H         1 UNK         0.0600 
    178 H178        4.0346  -14.3471  -45.1563 H         1 UNK         0.0600 
    179 H179        2.1048  -11.3312  -45.1060 H         1 UNK         0.3000 
    180 H180        0.8059   -9.0450  -42.6731 H         1 UNK         0.0600 
    181 H181        2.8599   -8.8855  -44.9447 H         1 UNK         0.0600 
    182 H182        3.0930   -8.3251  -43.2952 H         1 UNK         0.0600 
    183 H183        1.9017   -7.5438  -44.3230 H         1 UNK         0.0600 
    184 H184        0.5706   -9.6631  -45.5477 H         1 UNK         0.3000 
    185 H185       -2.6382  -11.1037  -45.2586 H         1 UNK         0.0600 
    186 H186       -3.2906   -8.7013  -45.0925 H         1 UNK         0.0600 
    187 H187       -2.0428   -8.2640  -46.2532 H         1 UNK         0.0600 
    188 H188       -3.4036   -9.2710  -46.7498 H         1 UNK         0.0600 
    189 H189       -1.0238  -10.1438  -47.4630 H         1 UNK         0.3000 
    190 H190       -2.0768  -21.7332  -46.4632 H         1 UNK         0.3000 
    191 H191       -4.0508  -22.9026  -48.1190 H         1 UNK         0.0600 
    192 H192       -4.2851  -21.7889  -45.2782 H         1 UNK         0.0600 
    193 H193       -5.6268  -22.0713  -46.3784 H         1 UNK         0.0600 
    194 H194       -4.4218  -20.8560  -46.7678 H         1 UNK         0.0600 
    195 H195       -2.2256  -24.4280  -45.6184 H         1 UNK         0.3000 
    196 H196       -4.1695  -26.6879  -45.4044 H         1 UNK         0.0600 
    197 H197       -2.7158  -27.4367  -43.5433 H         1 UNK         0.0600 
    198 H198       -3.3132  -25.8099  -43.2502 H         1 UNK         0.0600 
    199 H199       -1.6517  -26.0555  -43.7767 H         1 UNK         0.0600 
    200 H200       -0.7132  -25.9293  -46.1066 H         1 UNK         0.3000 
    201 H201       -0.0279  -28.5903  -46.8177 H         1 UNK         0.0600 
    202 H202        1.5913  -26.9716  -45.8962 H         1 UNK         0.0600 
    203 H203        1.4351  -25.9466  -47.3198 H         1 UNK         0.0600 
    204 H204        2.1483  -27.5494  -47.4594 H         1 UNK         0.0600 
    205 H205       -0.6023  -25.6962  -48.8926 H         1 UNK         0.3000 
    206 H206       -0.3226  -27.3313  -51.3575 H         1 UNK         0.0600 
    207 H207        0.8514  -25.1121  -51.2112 H         1 UNK         0.0600 
    208 H208       -0.3324  -25.1698  -52.5070 H         1 UNK         0.0600 
    209 H209       -0.7061  -24.3073  -51.0237 H         1 UNK         0.0600 
    210 H210       -2.6061  -25.4328  -49.4850 H         1 UNK         0.3000 
    211 H211       -4.7893  -25.4017  -49.2232 H         1 UNK         0.0600 
    212 H212       -5.2086  -27.4808  -51.4262 H         1 UNK         0.0600 
    213 H213       -6.3745  -26.9577  -50.2255 H         1 UNK         0.0600 
    214 H214       -4.9545  -27.8605  -49.7211 H         1 UNK         0.0600 
    215 H215       -6.5436  -24.2244  -50.0029 H         1 UNK         0.3000 
    216 H216       -7.4970  -22.4989  -51.0162 H         1 UNK         0.0600 
    217 H217       -7.8638  -22.6335  -53.4655 H         1 UNK         0.0600 
    218 H218       -8.0564  -24.2145  -52.7270 H         1 UNK         0.0600 
    219 H219       -6.5873  -23.8332  -53.6201 H         1 UNK         0.0600 
    220 H220       -5.0491  -21.8551  -49.9739 H         1 UNK         0.3000 
    221 H221       -3.7051  -20.0552  -51.8768 H         1 UNK         0.0600 
    222 H222       -3.1280  -20.5709  -48.9085 H         1 UNK         0.0600 
    223 H223       -2.3367  -21.4084  -50.2466 H         1 UNK         0.0600 
    224 H224       -2.1105  -19.6804  -50.0283 H         1 UNK         0.0600 
    225 H225       -5.0917  -16.9874  -50.4774 H         1 UNK         0.3000 
    226 H226       -2.7221  -18.0387  -51.8392 H         1 UNK         0.0600 
    227 H227       -2.7572  -15.8666  -50.6027 H         1 UNK         0.0600 
    228 H228       -2.3247  -15.6738  -52.2929 H         1 UNK         0.0600 
    229 H229       -3.9412  -15.2403  -51.7454 H         1 UNK         0.0600 
    230 H230       -5.9758  -18.0756  -52.5738 H         1 UNK         0.3000 
    231 H231       -6.2875  -16.7835  -55.0029 H         1 UNK         0.0600 
    232 H232       -8.3786  -18.1583  -55.1755 H         1 UNK         0.0600 
    233 H233       -8.1620  -17.4916  -53.5654 H         1 UNK         0.0600 
    234 H234       -7.8061  -19.1921  -53.8717 H         1 UNK         0.0600 
    235 H235       -5.4589  -20.2400  -54.5045 H         1 UNK         0.3000 
    236 H236       -4.8003  -20.4880  -57.4231 H         1 UNK         0.0600 
    237 H237       -6.1612  -22.5391  -55.6026 H         1 UNK         0.0600 
    238 H238       -6.9260  -21.6585  -56.9228 H         1 UNK         0.0600 
    239 H239       -5.6519  -22.8208  -57.2630 H         1 UNK         0.0600 
    240 H240       -4.1723  -21.7308  -54.1166 H         1 UNK         0.3000 
    241 H241       -2.4481  -22.6989  -53.1278 H         1 UNK         0.0600 
    242 H242       -2.5582  -25.8216  -54.8482 H         1 UNK         0.3800 
    243 H243       -3.4236  -24.7827  -53.7371 H         1 UNK         0.3800 
    244 H244       -0.0874  -22.1480  -53.7719 H         1 UNK         0.0800 
    245 H245       -0.6672  -21.3055  -55.1893 H         1 UNK         0.0800 
    246 H246        0.4801  -18.6320  -54.1050 H         1 UNK         0.0800 
    247 H247        1.2256  -20.0978  -53.5162 H         1 UNK         0.0800 
@<TRIPOS>BOND
     1    1    2 1    
     2    1  127 1    
     3    1  128 1    
     4    1  129 1    
     5    2    3 2    
     6    2    4 am   BACKBONE|DICT|INTERRES
     7    4    5 1    
     8    4  130 1    
     9    5    6 1    
    10    5   65 1    
    11    5  131 1    
    12    6    7 1    
    13    6  132 1    
    14    6  133 1    
    15    7    8 1    
    16    8    9 1    
    17    8  134 1    
    18    8  135 1    
    19    9   10 ar   
    20    9   14 ar   
    21   10   11 ar   
    22   10  136 1    
    23   11   12 ar   
    24   11  126 1    
    25   12   13 ar   
    26   12  137 1    
    27   13   14 ar   
    28   13   15 1    
    29   14  138 1    
    30   15   16 1    
    31   15  139 1    
    32   15  140 1    
    33   16   17 1    
    34   17   18 1    
    35   17  141 1    
    36   17  142 1    
    37   18   19 1    
    38   18   67 1    
    39   18  143 1    
    40   19   20 am   BACKBONE|DICT|INTERRES
    41   19  144 1    
    42   20   21 2    
    43   20   22 1    
    44   22   23 1    
    45   22   24 1    
    46   22  145 1    
    47   23  146 1    
    48   23  147 1    
    49   23  148 1    
    50   24   25 am   BACKBONE|DICT|INTERRES
    51   24  149 1    
    52   25   26 2    
    53   25   27 1    
    54   27   28 1    
    55   27   29 1    
    56   27  150 1    
    57   28  151 1    
    58   28  152 1    
    59   28  153 1    
    60   29   30 am   BACKBONE|DICT|INTERRES
    61   29  154 1    
    62   30   31 2    
    63   30   32 1    
    64   32   33 1    
    65   32   34 1    
    66   32  155 1    
    67   33  156 1    
    68   33  157 1    
    69   33  158 1    
    70   34   35 am   BACKBONE|DICT|INTERRES
    71   34  159 1    
    72   35   36 2    
    73   35   37 1    
    74   37   38 1    
    75   37   39 1    
    76   37  160 1    
    77   38  161 1    
    78   38  162 1    
    79   38  163 1    
    80   39   40 am   BACKBONE|DICT|INTERRES
    81   39  164 1    
    82   40   41 2    
    83   40   42 1    
    84   42   43 1    
    85   42   44 1    
    86   42  165 1    
    87   43  166 1    
    88   43  167 1    
    89   43  168 1    
    90   44   45 am   BACKBONE|DICT|INTERRES
    91   44  169 1    
    92   45   46 2    
    93   45   47 1    
    94   47   48 1    
    95   47   49 1    
    96   47  170 1    
    97   48  171 1    
    98   48  172 1    
    99   48  173 1    
   100   49   50 am   BACKBONE|DICT|INTERRES
   101   49  174 1    
   102   50   51 2    
   103   50   52 1    
   104   52   53 1    
   105   52   54 1    
   106   52  175 1    
   107   53  176 1    
   108   53  177 1    
   109   53  178 1    
   110   54   55 am   BACKBONE|DICT|INTERRES
   111   54  179 1    
   112   55   56 2    
   113   55   57 1    
   114   57   58 1    
   115   57   59 1    
   116   57  180 1    
   117   58  181 1    
   118   58  182 1    
   119   58  183 1    
   120   59   60 am   BACKBONE|DICT|INTERRES
   121   59  184 1    
   122   60   61 2    
   123   60   62 1    
   124   62   63 1    
   125   62   64 1    
   126   62  185 1    
   127   63  186 1    
   128   63  187 1    
   129   63  188 1    
   130   64   65 am   BACKBONE|DICT|INTERRES
   131   64  189 1    
   132   65   66 2    
   133   67   68 2    
   134   67   69 am   BACKBONE|DICT|INTERRES
   135   69   70 1    
   136   69  190 1    
   137   70   71 1    
   138   70   72 1    
   139   70  191 1    
   140   71  192 1    
   141   71  193 1    
   142   71  194 1    
   143   72   73 2    
   144   72   74 am   BACKBONE|DICT|INTERRES
   145   74   75 1    
   146   74  195 1    
   147   75   76 1    
   148   75   77 1    
   149   75  196 1    
   150   76  197 1    
   151   76  198 1    
   152   76  199 1    
   153   77   78 2    
   154   77   79 am   BACKBONE|DICT|INTERRES
   155   79   80 1    
   156   79  200 1    
   157   80   81 1    
   158   80   82 1    
   159   80  201 1    
   160   81  202 1    
   161   81  203 1    
   162   81  204 1    
   163   82   83 2    
   164   82   84 am   BACKBONE|DICT|INTERRES
   165   84   85 1    
   166   84  205 1    
   167   85   86 1    
   168   85   87 1    
   169   85  206 1    
   170   86  207 1    
   171   86  208 1    
   172   86  209 1    
   173   87   88 2    
   174   87   89 am   BACKBONE|DICT|INTERRES
   175   89   90 1    
   176   89  210 1    
   177   90   91 1    
   178   90   92 1    
   179   90  211 1    
   180   91  212 1    
   181   91  213 1    
   182   91  214 1    
   183   92   93 2    
   184   92   94 am   BACKBONE|DICT|INTERRES
   185   94   95 1    
   186   94  215 1    
   187   95   96 1    
   188   95   97 1    
   189   95  216 1    
   190   96  217 1    
   191   96  218 1    
   192   96  219 1    
   193   97   98 2    
   194   97   99 am   BACKBONE|DICT|INTERRES
   195   99  100 1    
   196   99  220 1    
   197  100  101 1    
   198  100  102 1    
   199  100  221 1    
   200  101  222 1    
   201  101  223 1    
   202  101  224 1    
   203  102  103 2    
   204  102  104 am   BACKBONE|DICT|INTERRES
   205  104  105 1    
   206  104  225 1    
   207  105  106 1    
   208  105  107 1    
   209  105  226 1    
   210  106  227 1    
   211  106  228 1    
   212  106  229 1    
   213  107  108 2    
   214  107  109 am   BACKBONE|DICT|INTERRES
   215  109  110 1    
   216  109  230 1    
   217  110  111 1    
   218  110  112 1    
   219  110  231 1    
   220  111  232 1    
   221  111  233 1    
   222  111  234 1    
   223  112  113 2    
   224  112  114 am   BACKBONE|DICT|INTERRES
   225  114  115 1    
   226  114  235 1    
   227  115  116 1    
   228  115  117 1    
   229  115  236 1    
   230  116  237 1    
   231  116  238 1    
   232  116  239 1    
   233  117  118 2    
   234  117  119 am   BACKBONE|DICT|INTERRES
   235  119  120 1    
   236  119  240 1    
   237  120  121 1    
   238  120  124 1    
   239  120  241 1    
   240  121  122 am   BACKBONE|DICT|INTERRES
   241  121  123 2    
   242  122  242 1    
   243  122  243 1    
   244  124  125 1    
   245  124  244 1    
   246  124  245 1    
   247  125  126 1    
   248  126  246 1    
   249  126  247 1    
@<TRIPOS>SUBSTRUCTURE
     1 UNK         1 GROUP             0       ****    0 ROOT    
