@<TRIPOS>MOLECULE
3R540
247   249    1
SMALL
USER_CHARGES


@<TRIPOS>ATOM
      1 CA          4.6280  -10.1655  -50.9151 C.3       0 UNK        -0.1800 
      2 C           3.9272  -11.1785  -50.0212 C.2       0 UNK         0.5000 
      3 O           2.8280  -11.6261  -50.3500 O.2       0 UNK        -0.5000 
      4 N           4.5569  -11.5369  -48.8931 N.am      1 UNK        -0.5000 
      5 CA          4.0795  -12.4663  -47.8608 C.3       1 UNK         0.1400 
      6 C6          3.7457  -13.8787  -48.4139 C.3       23 UNK        -0.0398 
      7 S7          3.7494  -15.1797  -47.1358 S.3       23 UNK        -0.2404 
      8 C8          1.9969  -15.6721  -47.0778 C.3       23 UNK        -0.0205 
      9 C9          1.5363  -16.3624  -48.3523 C.ar      23 UNK        -0.0193 
     10 C10         0.7221  -15.6862  -49.2661 C.ar      23 UNK        -0.1150 
     11 C11         0.3086  -16.3098  -50.4464 C.ar      23 UNK        -0.0193 
     12 C12         0.7132  -17.6221  -50.7074 C.ar      23 UNK        -0.1150 
     13 C13         1.5150  -18.3141  -49.7947 C.ar      23 UNK        -0.0193 
     14 C14         1.9192  -17.6810  -48.6154 C.ar      23 UNK        -0.1150 
     15 C15         1.9648  -19.7346  -50.1026 C.3       23 UNK        -0.0205 
     16 S16         0.6051  -20.9309  -49.9326 S.3       23 UNK        -0.2404 
     17 C17         0.3558  -20.9533  -48.1251 C.3       23 UNK        -0.0398 
     18 CA         -0.0867  -22.3434  -47.6068 C.3       11 UNK         0.1400 
     19 N           0.0812  -22.4679  -46.1592 N.am      11 UNK        -0.5000 
     20 C          -0.1345  -23.5824  -45.4449 C.2       10 UNK         0.5000 
     21 O          -0.4352  -24.6715  -45.9346 O.2       10 UNK        -0.5000 
     22 CA         -0.0588  -23.4330  -43.9168 C.3       10 UNK         0.1400 
     23 CB          1.3975  -23.4713  -43.4295 C.3       10 UNK        -0.1800 
     24 N          -0.6990  -22.1977  -43.4630 N.am      10 UNK        -0.5000 
     25 C          -2.0185  -21.9668  -43.5162 C.2       9 UNK         0.5000 
     26 O          -2.8429  -22.7882  -43.9190 O.2       9 UNK        -0.5000 
     27 CA         -2.4865  -20.5653  -43.0834 C.3       9 UNK         0.1400 
     28 CB         -2.5627  -20.4644  -41.5526 C.3       9 UNK        -0.1800 
     29 N          -1.6251  -19.4995  -43.6003 N.am      9 UNK        -0.5000 
     30 C          -1.5181  -19.1832  -44.8981 C.2       8 UNK         0.5000 
     31 O          -2.1393  -19.7515  -45.7933 O.2       8 UNK        -0.5000 
     32 CA         -0.5198  -18.0749  -45.2693 C.3       8 UNK         0.1400 
     33 CB         -1.1734  -16.6923  -45.1320 C.3       8 UNK        -0.1800 
     34 N           0.7237  -18.1049  -44.4973 N.am      8 UNK        -0.5000 
     35 C           1.5825  -19.1283  -44.4273 C.2       7 UNK         0.5000 
     36 O           1.3562  -20.2321  -44.9226 O.2       7 UNK        -0.5000 
     37 CA          2.9207  -18.9071  -43.6912 C.3       7 UNK         0.1400 
     38 CB          4.0440  -18.6355  -44.7097 C.3       7 UNK        -0.1800 
     39 N           2.9368  -17.8922  -42.6231 N.am      7 UNK        -0.5000 
     40 C           2.7517  -16.5670  -42.7129 C.2       6 UNK         0.5000 
     41 O           2.3708  -15.9980  -43.7366 O.2       6 UNK        -0.5000 
     42 CA          3.0062  -15.7167  -41.4520 C.3       6 UNK         0.1400 
     43 CB          3.7234  -16.4590  -40.3015 C.3       6 UNK        -0.1800 
     44 N           3.7003  -14.4787  -41.8156 N.am      6 UNK        -0.5000 
     45 C           4.9335  -14.3535  -42.3337 C.2       5 UNK         0.5000 
     46 O           5.7388  -15.2829  -42.4076 O.2       5 UNK        -0.5000 
     47 CA          5.3334  -12.9695  -42.8963 C.3       5 UNK         0.1400 
     48 CB          5.9784  -13.1040  -44.2862 C.3       5 UNK        -0.1800 
     49 N           4.1985  -12.0522  -43.0093 N.am      5 UNK        -0.5000 
     50 C           3.7111  -11.2892  -42.0223 C.2       4 UNK         0.5000 
     51 O           4.2204  -11.2021  -40.9052 O.2       4 UNK        -0.5000 
     52 CA          2.3972  -10.5487  -42.3254 C.3       4 UNK         0.1400 
     53 CB          2.6805   -9.1682  -42.9363 C.3       4 UNK        -0.1800 
     54 N           1.5475  -11.3081  -43.2425 N.am      4 UNK        -0.5000 
     55 C           0.8658  -12.4223  -42.9418 C.2       3 UNK         0.5000 
     56 O           0.8537  -12.9154  -41.8137 O.2       3 UNK        -0.5000 
     57 CA          0.1173  -13.1418  -44.0881 C.3       3 UNK         0.1400 
     58 CB         -1.3868  -13.2929  -43.7868 C.3       3 UNK        -0.1800 
     59 N           0.3539  -12.5580  -45.4168 N.am      3 UNK        -0.5000 
     60 C          -0.0478  -11.3706  -45.8928 C.2       2 UNK         0.5000 
     61 O          -0.8433  -10.6358  -45.3072 O.2       2 UNK        -0.5000 
     62 CA          0.5884  -10.8934  -47.2191 C.3       2 UNK         0.1400 
     63 CB          0.9219   -9.3881  -47.1720 C.3       2 UNK        -0.1800 
     64 N           1.7759  -11.6359  -47.6723 N.am      2 UNK        -0.5000 
     65 C           2.9366  -11.8441  -47.0297 C.2       1 UNK         0.5000 
     66 O           3.1345  -11.5506  -45.8487 O.2       1 UNK        -0.5000 
     67 C          -1.5294  -22.6815  -48.0301 C.2       11 UNK         0.5000 
     68 O          -1.7170  -23.5344  -48.8952 O.2       11 UNK        -0.5000 
     69 N          -2.5191  -22.0562  -47.3751 N.am      12 UNK        -0.5000 
     70 CA         -3.9427  -22.2807  -47.6140 C.3       12 UNK         0.1400 
     71 CB         -4.7834  -21.3162  -46.7659 C.3       12 UNK        -0.1800 
     72 C          -4.3778  -23.7340  -47.3748 C.2       12 UNK         0.5000 
     73 O          -5.1183  -24.2757  -48.1951 O.2       12 UNK        -0.5000 
     74 N          -3.8883  -24.3453  -46.2877 N.am      13 UNK        -0.5000 
     75 CA         -4.1287  -25.7492  -45.9551 C.3       13 UNK         0.1400 
     76 CB         -3.5622  -26.0533  -44.5599 C.3       13 UNK        -0.1800 
     77 C          -3.5541  -26.7164  -47.0068 C.2       13 UNK         0.5000 
     78 O          -4.2535  -27.6388  -47.4278 O.2       13 UNK        -0.5000 
     79 N          -2.3074  -26.4711  -47.4336 N.am      14 UNK        -0.5000 
     80 CA         -1.6132  -27.2553  -48.4566 C.3       14 UNK         0.1400 
     81 CB         -0.1308  -26.8528  -48.4839 C.3       14 UNK        -0.1800 
     82 C          -2.2387  -27.1113  -49.8570 C.2       14 UNK         0.5000 
     83 O          -2.3358  -28.0988  -50.5859 O.2       14 UNK        -0.5000 
     84 N          -2.6618  -25.8892  -50.1999 N.am      15 UNK        -0.5000 
     85 CA         -3.2159  -25.5138  -51.5005 C.3       15 UNK         0.1400 
     86 CB         -2.7705  -24.0799  -51.8198 C.3       15 UNK        -0.1800 
     87 C          -4.7470  -25.6727  -51.6023 C.2       15 UNK         0.5000 
     88 O          -5.3396  -25.1070  -52.5227 O.2       15 UNK        -0.5000 
     89 N          -5.3535  -26.4367  -50.6806 N.am      16 UNK        -0.5000 
     90 CA         -6.7676  -26.8270  -50.6352 C.3       16 UNK         0.1400 
     91 CB         -7.1157  -27.7369  -51.8323 C.3       16 UNK        -0.1800 
     92 C          -7.7125  -25.6156  -50.5121 C.2       16 UNK         0.5000 
     93 O          -8.4533  -25.3008  -51.4443 O.2       16 UNK        -0.5000 
     94 N          -7.6311  -24.9382  -49.3593 N.am      17 UNK        -0.5000 
     95 CA         -8.3188  -23.6879  -49.0124 C.3       17 UNK         0.1400 
     96 CB         -9.8521  -23.8640  -49.0031 C.3       17 UNK        -0.1800 
     97 C          -7.8388  -22.5101  -49.8847 C.2       17 UNK         0.5000 
     98 O          -8.6345  -21.6565  -50.2779 O.2       17 UNK        -0.5000 
     99 N          -6.5296  -22.5148  -50.1764 N.am      18 UNK        -0.5000 
    100 CA        -5.7750  -21.5589  -50.9942 C.3       18 UNK         0.1400 
    101 CB        -5.8399  -20.1395  -50.3946 C.3       18 UNK        -0.1800 
    102 C         -6.1283  -21.5628  -52.4948 C.2       18 UNK         0.5000 
    103 O         -5.6011  -20.7228  -53.2247 O.2       18 UNK        -0.5000 
    104 N         -6.9685  -22.5021  -52.9508 N.am      19 UNK        -0.5000 
    105 CA        -7.4573  -22.6043  -54.3283 C.3       19 UNK         0.1400 
    106 CB        -8.4689  -23.7560  -54.4186 C.3       19 UNK        -0.1800 
    107 C         -6.3443  -22.7840  -55.3773 C.2       19 UNK         0.5000 
    108 O         -6.4591  -22.2492  -56.4808 O.2       19 UNK        -0.5000 
    109 N         -5.2825  -23.5086  -55.0055 N.am      20 UNK        -0.5000 
    110 CA        -4.1042  -23.7458  -55.8392 C.3       20 UNK         0.1400 
    111 CB        -3.6148  -25.1838  -55.5926 C.3       20 UNK        -0.1800 
    112 C         -2.9733  -22.7195  -55.6054 C.2       20 UNK         0.5000 
    113 O         -1.8908  -22.9006  -56.1659 O.2       20 UNK        -0.5000 
    114 N         -3.2053  -21.6838  -54.7847 N.am      21 UNK        -0.5000 
    115 CA        -2.1989  -20.6942  -54.4042 C.3       21 UNK         0.1400 
    116 CB        -1.4385  -21.1739  -53.1487 C.3       21 UNK        -0.1800 
    117 C         -2.8352  -19.3008  -54.2594 C.2       21 UNK         0.5000 
    118 O         -3.1770  -18.6879  -55.2715 O.2       21 UNK        -0.5000 
    119 N         -2.9312  -18.8091  -53.0174 N.am      22 UNK        -0.5000 
    120 CA        -3.3052  -17.4318  -52.6552 C.3       22 UNK         0.1400 
    121 C         -4.7781  -17.0084  -52.9467 C.2       22 UNK         0.5000 
    122 N         -5.6922  -17.9148  -53.2634 N.am      22 UNK        -0.7600 
    123 O         -5.0985  -15.8241  -52.9005 O.2       22 UNK        -0.5000 
    124 C124       -2.8852  -17.1268  -51.1886 C.3       23 UNK        -0.0398 
    125 S125       -2.2883  -15.4194  -50.9433 S.3       23 UNK        -0.2404 
    126 C126       -0.5435  -15.5506  -51.4537 C.3       23 UNK        -0.0205 
    127 H127        5.5904   -9.8587  -50.5048 H         1 UNK         0.0600 
    128 H128        4.0082   -9.2763  -51.0305 H         1 UNK         0.0600 
    129 H129        4.7999  -10.5932  -51.9028 H         1 UNK         0.0600 
    130 H130        5.4467  -11.1042  -48.6859 H         1 UNK         0.3000 
    131 H131        4.9277  -12.5771  -47.1837 H         1 UNK         0.0600 
    132 H132        2.8039  -13.8814  -48.9609 H         1 UNK         0.0800 
    133 H133        4.5021  -14.1668  -49.1450 H         1 UNK         0.0800 
    134 H134        1.8638  -16.3579  -46.2442 H         1 UNK         0.0800 
    135 H135        1.3773  -14.8027  -46.8615 H         1 UNK         0.0800 
    136 H136        0.4147  -14.6692  -49.0667 H         1 UNK         0.1150 
    137 H137        0.4063  -18.1088  -51.6227 H         1 UNK         0.1150 
    138 H138        2.5458  -18.2055  -47.9074 H         1 UNK         0.1150 
    139 H139        2.3400  -19.7750  -51.1261 H         1 UNK         0.0800 
    140 H140        2.7979  -20.0300  -49.4629 H         1 UNK         0.0800 
    141 H141       -0.3608  -20.1764  -47.8558 H         1 UNK         0.0800 
    142 H142        1.2962  -20.6730  -47.6488 H         1 UNK         0.0800 
    143 H143        0.5684  -23.0940  -48.0544 H         1 UNK         0.0600 
    144 H144        0.3733  -21.6288  -45.6640 H         1 UNK         0.3000 
    145 H145       -0.5896  -24.2770  -43.4710 H         1 UNK         0.0600 
    146 H146        1.4503  -23.4206  -42.3419 H         1 UNK         0.0600 
    147 H147        1.8848  -24.3979  -43.7354 H         1 UNK         0.0600 
    148 H148        1.9836  -22.6449  -43.8327 H         1 UNK         0.0600 
    149 H149       -0.0874  -21.4486  -43.1748 H         1 UNK         0.3000 
    150 H150       -3.4911  -20.4133  -43.4841 H         1 UNK         0.0600 
    151 H151       -3.2106  -21.2405  -41.1428 H         1 UNK         0.0600 
    152 H152       -2.9723  -19.5033  -41.2413 H         1 UNK         0.0600 
    153 H153       -1.5816  -20.5773  -41.0897 H         1 UNK         0.0600 
    154 H154       -1.0688  -18.9879  -42.9314 H         1 UNK         0.3000 
    155 H155       -0.2520  -18.2172  -46.3181 H         1 UNK         0.0600 
    156 H156       -1.3971  -16.4542  -44.0915 H         1 UNK         0.0600 
    157 H157       -0.5266  -15.9089  -45.5245 H         1 UNK         0.0600 
    158 H158       -2.1094  -16.6438  -45.6902 H         1 UNK         0.0600 
    159 H159        1.0499  -17.2210  -44.1164 H         1 UNK         0.3000 
    160 H160        3.1499  -19.8531  -43.1984 H         1 UNK         0.0600 
    161 H161        3.8857  -17.7018  -45.2500 H         1 UNK         0.0600 
    162 H162        4.1027  -19.4336  -45.4510 H         1 UNK         0.0600 
    163 H163        5.0154  -18.5760  -44.2188 H         1 UNK         0.0600 
    164 H164        3.2066  -18.2482  -41.7168 H         1 UNK         0.3000 
    165 H165        2.0234  -15.4159  -41.0868 H         1 UNK         0.0600 
    166 H166        3.9212  -15.7847  -39.4681 H         1 UNK         0.0600 
    167 H167        3.1079  -17.2709  -39.9128 H         1 UNK         0.0600 
    168 H168        4.6771  -16.8858  -40.6135 H         1 UNK         0.0600 
    169 H169        3.1124  -13.6569  -41.8230 H         1 UNK         0.3000 
    170 H170        6.0737  -12.5423  -42.2169 H         1 UNK         0.0600 
    171 H171        5.3065  -13.5990  -44.9876 H         1 UNK         0.0600 
    172 H172        6.2383  -12.1293  -44.6997 H         1 UNK         0.0600 
    173 H173        6.8962  -13.6914  -44.2408 H         1 UNK         0.0600 
    174 H174        3.7249  -12.0328  -43.9067 H         1 UNK         0.3000 
    175 H175        1.8596  -10.4102  -41.3850 H         1 UNK         0.0600 
    176 H176        1.7559   -8.6170  -43.1095 H         1 UNK         0.0600 
    177 H177        3.2052   -9.2498  -43.8894 H         1 UNK         0.0600 
    178 H178        3.2990   -8.5655  -42.2700 H         1 UNK         0.0600 
    179 H179        1.5560  -11.0091  -44.2078 H         1 UNK         0.3000 
    180 H180        0.5402  -14.1450  -44.1336 H         1 UNK         0.0600 
    181 H181       -1.8660  -12.3312  -43.6031 H         1 UNK         0.0600 
    182 H182       -1.5432  -13.9053  -42.8981 H         1 UNK         0.0600 
    183 H183       -1.9098  -13.7774  -44.6111 H         1 UNK         0.0600 
    184 H184        1.0445  -13.0401  -45.9723 H         1 UNK         0.3000 
    185 H185       -0.1725  -11.0422  -47.9865 H         1 UNK         0.0600 
    186 H186        0.0305   -8.7890  -46.9821 H         1 UNK         0.0600 
    187 H187        1.6438   -9.1603  -46.3867 H         1 UNK         0.0600 
    188 H188        1.3402   -9.0479  -48.1195 H         1 UNK         0.0600 
    189 H189        1.7773  -11.8653  -48.6619 H         1 UNK         0.3000 
    190 H190       -2.2889  -21.3404  -46.6889 H         1 UNK         0.3000 
    191 H191       -4.1236  -22.0539  -48.6638 H         1 UNK         0.0600 
    192 H192       -4.5558  -20.2781  -47.0082 H         1 UNK         0.0600 
    193 H193       -5.8492  -21.4645  -46.9449 H         1 UNK         0.0600 
    194 H194       -4.6045  -21.4571  -45.6995 H         1 UNK         0.0600 
    195 H195       -3.3155  -23.8133  -45.6406 H         1 UNK         0.3000 
    196 H196       -5.2095  -25.9013  -45.9212 H         1 UNK         0.0600 
    197 H197       -3.7418  -27.0928  -44.2828 H         1 UNK         0.0600 
    198 H198       -4.0318  -25.4281  -43.8003 H         1 UNK         0.0600 
    199 H199       -2.4866  -25.8812  -44.5142 H         1 UNK         0.0600 
    200 H200       -1.7894  -25.6995  -47.0237 H         1 UNK         0.3000 
    201 H201       -1.6737  -28.3079  -48.1726 H         1 UNK         0.0600 
    202 H202        0.3426  -27.0290  -47.5179 H         1 UNK         0.0600 
    203 H203       -0.0054  -25.7971  -48.7285 H         1 UNK         0.0600 
    204 H204        0.4191  -27.4313  -49.2272 H         1 UNK         0.0600 
    205 H205       -2.4959  -25.1219  -49.5521 H         1 UNK         0.3000 
    206 H206       -2.7908  -26.1645  -52.2670 H         1 UNK         0.0600 
    207 H207       -1.6833  -24.0082  -51.8518 H         1 UNK         0.0600 
    208 H208       -3.1452  -23.7419  -52.7840 H         1 UNK         0.0600 
    209 H209       -3.1239  -23.3801  -51.0662 H         1 UNK         0.0600 
    210 H210       -4.7744  -26.8096  -49.9407 H         1 UNK         0.3000 
    211 H211       -6.8960  -27.4195  -49.7280 H         1 UNK         0.0600 
    212 H212       -7.0185  -27.2154  -52.7852 H         1 UNK         0.0600 
    213 H213       -8.1431  -28.0955  -51.7615 H         1 UNK         0.0600 
    214 H214       -6.4670  -28.6123  -51.8627 H         1 UNK         0.0600 
    215 H215       -6.9028  -25.2108  -48.7082 H         1 UNK         0.3000 
    216 H216       -8.0127  -23.4494  -47.9927 H         1 UNK         0.0600 
    217 H217      -10.3416  -22.9798  -48.5933 H         1 UNK         0.0600 
    218 H218      -10.1478  -24.7128  -48.3868 H         1 UNK         0.0600 
    219 H219      -10.2523  -24.0200  -50.0051 H         1 UNK         0.0600 
    220 H220       -5.9897  -23.2813  -49.7887 H         1 UNK         0.3000 
    221 H221       -4.7363  -21.8768  -50.9426 H         1 UNK         0.0600 
    222 H222       -6.8203  -19.6839  -50.5366 H         1 UNK         0.0600 
    223 H223       -5.6257  -20.1444  -49.3270 H         1 UNK         0.0600 
    224 H224       -5.1071  -19.4841  -50.8647 H         1 UNK         0.0600 
    225 H225       -7.3129  -23.1969  -52.3018 H         1 UNK         0.3000 
    226 H226       -7.9779  -21.6728  -54.5589 H         1 UNK         0.0600 
    227 H227       -9.3040  -23.6027  -53.7347 H         1 UNK         0.0600 
    228 H228       -8.8817  -23.8383  -55.4248 H         1 UNK         0.0600 
    229 H229       -8.0067  -24.7131  -54.1720 H         1 UNK         0.0600 
    230 H230       -5.2910  -23.9445  -54.0863 H         1 UNK         0.3000 
    231 H231       -4.3820  -23.6726  -56.8925 H         1 UNK         0.0600 
    232 H232       -3.2569  -25.3210  -54.5733 H         1 UNK         0.0600 
    233 H233       -2.7952  -25.4416  -56.2643 H         1 UNK         0.0600 
    234 H234       -4.4124  -25.9064  -55.7659 H         1 UNK         0.0600 
    235 H235       -4.1347  -21.5417  -54.4029 H         1 UNK         0.3000 
    236 H236       -1.4687  -20.5916  -55.2098 H         1 UNK         0.0600 
    237 H237       -0.9191  -22.1122  -53.3432 H         1 UNK         0.0600 
    238 H238       -0.6792  -20.4512  -52.8465 H         1 UNK         0.0600 
    239 H239       -2.1048  -21.3345  -52.3009 H         1 UNK         0.0600 
    240 H240       -2.6469  -19.4044  -52.2549 H         1 UNK         0.3000 
    241 H241       -2.7019  -16.8006  -53.3102 H         1 UNK         0.0600 
    242 H242       -6.6322  -17.6125  -53.4595 H         1 UNK         0.3800 
    243 H243       -5.4681  -18.9061  -53.3123 H         1 UNK         0.3800 
    244 H244       -3.7112  -17.3096  -50.4991 H         1 UNK         0.0800 
    245 H245       -2.0934  -17.8002  -50.8602 H         1 UNK         0.0800 
    246 H246       -0.4845  -16.0167  -52.4384 H         1 UNK         0.0800 
    247 H247       -0.1394  -14.5442  -51.5733 H         1 UNK         0.0800 
@<TRIPOS>BOND
     1    1    2 1    
     2    1  127 1    
     3    1  128 1    
     4    1  129 1    
     5    2    3 2    
     6    2    4 am   BACKBONE|DICT|INTERRES
     7    4    5 1    
     8    4  130 1    
     9    5    6 1    
    10    5   65 1    
    11    5  131 1    
    12    6    7 1    
    13    6  132 1    
    14    6  133 1    
    15    7    8 1    
    16    8    9 1    
    17    8  134 1    
    18    8  135 1    
    19    9   10 ar   
    20    9   14 ar   
    21   10   11 ar   
    22   10  136 1    
    23   11   12 ar   
    24   11  126 1    
    25   12   13 ar   
    26   12  137 1    
    27   13   14 ar   
    28   13   15 1    
    29   14  138 1    
    30   15   16 1    
    31   15  139 1    
    32   15  140 1    
    33   16   17 1    
    34   17   18 1    
    35   17  141 1    
    36   17  142 1    
    37   18   19 1    
    38   18   67 1    
    39   18  143 1    
    40   19   20 am   BACKBONE|DICT|INTERRES
    41   19  144 1    
    42   20   21 2    
    43   20   22 1    
    44   22   23 1    
    45   22   24 1    
    46   22  145 1    
    47   23  146 1    
    48   23  147 1    
    49   23  148 1    
    50   24   25 am   BACKBONE|DICT|INTERRES
    51   24  149 1    
    52   25   26 2    
    53   25   27 1    
    54   27   28 1    
    55   27   29 1    
    56   27  150 1    
    57   28  151 1    
    58   28  152 1    
    59   28  153 1    
    60   29   30 am   BACKBONE|DICT|INTERRES
    61   29  154 1    
    62   30   31 2    
    63   30   32 1    
    64   32   33 1    
    65   32   34 1    
    66   32  155 1    
    67   33  156 1    
    68   33  157 1    
    69   33  158 1    
    70   34   35 am   BACKBONE|DICT|INTERRES
    71   34  159 1    
    72   35   36 2    
    73   35   37 1    
    74   37   38 1    
    75   37   39 1    
    76   37  160 1    
    77   38  161 1    
    78   38  162 1    
    79   38  163 1    
    80   39   40 am   BACKBONE|DICT|INTERRES
    81   39  164 1    
    82   40   41 2    
    83   40   42 1    
    84   42   43 1    
    85   42   44 1    
    86   42  165 1    
    87   43  166 1    
    88   43  167 1    
    89   43  168 1    
    90   44   45 am   BACKBONE|DICT|INTERRES
    91   44  169 1    
    92   45   46 2    
    93   45   47 1    
    94   47   48 1    
    95   47   49 1    
    96   47  170 1    
    97   48  171 1    
    98   48  172 1    
    99   48  173 1    
   100   49   50 am   BACKBONE|DICT|INTERRES
   101   49  174 1    
   102   50   51 2    
   103   50   52 1    
   104   52   53 1    
   105   52   54 1    
   106   52  175 1    
   107   53  176 1    
   108   53  177 1    
   109   53  178 1    
   110   54   55 am   BACKBONE|DICT|INTERRES
   111   54  179 1    
   112   55   56 2    
   113   55   57 1    
   114   57   58 1    
   115   57   59 1    
   116   57  180 1    
   117   58  181 1    
   118   58  182 1    
   119   58  183 1    
   120   59   60 am   BACKBONE|DICT|INTERRES
   121   59  184 1    
   122   60   61 2    
   123   60   62 1    
   124   62   63 1    
   125   62   64 1    
   126   62  185 1    
   127   63  186 1    
   128   63  187 1    
   129   63  188 1    
   130   64   65 am   BACKBONE|DICT|INTERRES
   131   64  189 1    
   132   65   66 2    
   133   67   68 2    
   134   67   69 am   BACKBONE|DICT|INTERRES
   135   69   70 1    
   136   69  190 1    
   137   70   71 1    
   138   70   72 1    
   139   70  191 1    
   140   71  192 1    
   141   71  193 1    
   142   71  194 1    
   143   72   73 2    
   144   72   74 am   BACKBONE|DICT|INTERRES
   145   74   75 1    
   146   74  195 1    
   147   75   76 1    
   148   75   77 1    
   149   75  196 1    
   150   76  197 1    
   151   76  198 1    
   152   76  199 1    
   153   77   78 2    
   154   77   79 am   BACKBONE|DICT|INTERRES
   155   79   80 1    
   156   79  200 1    
   157   80   81 1    
   158   80   82 1    
   159   80  201 1    
   160   81  202 1    
   161   81  203 1    
   162   81  204 1    
   163   82   83 2    
   164   82   84 am   BACKBONE|DICT|INTERRES
   165   84   85 1    
   166   84  205 1    
   167   85   86 1    
   168   85   87 1    
   169   85  206 1    
   170   86  207 1    
   171   86  208 1    
   172   86  209 1    
   173   87   88 2    
   174   87   89 am   BACKBONE|DICT|INTERRES
   175   89   90 1    
   176   89  210 1    
   177   90   91 1    
   178   90   92 1    
   179   90  211 1    
   180   91  212 1    
   181   91  213 1    
   182   91  214 1    
   183   92   93 2    
   184   92   94 am   BACKBONE|DICT|INTERRES
   185   94   95 1    
   186   94  215 1    
   187   95   96 1    
   188   95   97 1    
   189   95  216 1    
   190   96  217 1    
   191   96  218 1    
   192   96  219 1    
   193   97   98 2    
   194   97   99 am   BACKBONE|DICT|INTERRES
   195   99  100 1    
   196   99  220 1    
   197  100  101 1    
   198  100  102 1    
   199  100  221 1    
   200  101  222 1    
   201  101  223 1    
   202  101  224 1    
   203  102  103 2    
   204  102  104 am   BACKBONE|DICT|INTERRES
   205  104  105 1    
   206  104  225 1    
   207  105  106 1    
   208  105  107 1    
   209  105  226 1    
   210  106  227 1    
   211  106  228 1    
   212  106  229 1    
   213  107  108 2    
   214  107  109 am   BACKBONE|DICT|INTERRES
   215  109  110 1    
   216  109  230 1    
   217  110  111 1    
   218  110  112 1    
   219  110  231 1    
   220  111  232 1    
   221  111  233 1    
   222  111  234 1    
   223  112  113 2    
   224  112  114 am   BACKBONE|DICT|INTERRES
   225  114  115 1    
   226  114  235 1    
   227  115  116 1    
   228  115  117 1    
   229  115  236 1    
   230  116  237 1    
   231  116  238 1    
   232  116  239 1    
   233  117  118 2    
   234  117  119 am   BACKBONE|DICT|INTERRES
   235  119  120 1    
   236  119  240 1    
   237  120  121 1    
   238  120  124 1    
   239  120  241 1    
   240  121  122 am   BACKBONE|DICT|INTERRES
   241  121  123 2    
   242  122  242 1    
   243  122  243 1    
   244  124  125 1    
   245  124  244 1    
   246  124  245 1    
   247  125  126 1    
   248  126  246 1    
   249  126  247 1    
@<TRIPOS>SUBSTRUCTURE
     1 UNK         1 GROUP             0       ****    0 ROOT    
