@<TRIPOS>MOLECULE
3R540
247   249    1
SMALL
USER_CHARGES


@<TRIPOS>ATOM
      1 CA          0.4198  -11.2853  -45.7311 C.3       0 UNK        -0.1800 
      2 C           1.6901  -11.4814  -46.5433 C.2       0 UNK         0.5000 
      3 O           2.7469  -10.9690  -46.1746 O.2       0 UNK        -0.5000 
      4 N           1.5912  -12.2321  -47.6475 N.am      1 UNK        -0.5000 
      5 CA          2.6830  -12.5003  -48.5946 C.3       1 UNK         0.1400 
      6 C6          2.1597  -13.1237  -49.9101 C.3       23 UNK        -0.0398 
      7 S7          1.2525  -14.6973  -49.6892 S.3       23 UNK        -0.2404 
      8 C8          2.3848  -15.8632  -50.5125 C.3       23 UNK        -0.0205 
      9 C9          1.7178  -17.1983  -50.8101 C.ar      23 UNK        -0.0193 
     10 C10         0.5746  -17.2413  -51.6113 C.ar      23 UNK        -0.1150 
     11 C11        -0.0208  -18.4601  -51.9419 C.ar      23 UNK        -0.0193 
     12 C12         0.5277  -19.6475  -51.4507 C.ar      23 UNK        -0.1150 
     13 C13         1.6720  -19.6245  -50.6461 C.ar      23 UNK        -0.0193 
     14 C14         2.2659  -18.3936  -50.3353 C.ar      23 UNK        -0.1150 
     15 C15         2.2691  -20.9458  -50.1666 C.3       23 UNK        -0.0205 
     16 S16         2.9516  -20.9117  -48.4737 S.3       23 UNK        -0.2404 
     17 C17         1.5098  -20.4095  -47.4774 C.3       23 UNK        -0.0398 
     18 CA          0.7296  -21.6129  -46.8920 C.3       11 UNK         0.1400 
     19 N           0.1644  -21.3111  -45.5742 N.am      11 UNK        -0.5000 
     20 C          -0.4117  -22.2050  -44.7593 C.2       10 UNK         0.5000 
     21 O          -0.4726  -23.4079  -45.0047 O.2       10 UNK        -0.5000 
     22 CA         -1.0793  -21.6625  -43.4818 C.3       10 UNK         0.1400 
     23 CB         -0.0594  -21.5311  -42.3415 C.3       10 UNK        -0.1800 
     24 N          -1.7575  -20.3834  -43.7005 N.am      10 UNK        -0.5000 
     25 C          -2.8103  -20.2197  -44.5152 C.2       9 UNK         0.5000 
     26 O          -3.3567  -21.1462  -45.1129 O.2       9 UNK        -0.5000 
     27 CA         -3.3030  -18.7797  -44.7468 C.3       9 UNK         0.1400 
     28 CB         -4.2055  -18.3175  -43.5938 C.3       9 UNK        -0.1800 
     29 N          -2.2040  -17.8304  -44.9288 N.am      9 UNK        -0.5000 
     30 C          -1.3223  -17.8695  -45.9387 C.2       8 UNK         0.5000 
     31 O          -1.3775  -18.6830  -46.8615 O.2       8 UNK        -0.5000 
     32 CA         -0.1427  -16.8804  -45.8668 C.3       8 UNK         0.1400 
     33 CB         -0.5491  -15.4837  -46.3585 C.3       8 UNK        -0.1800 
     34 N           0.4163  -16.7829  -44.5169 N.am      8 UNK        -0.5000 
     35 C           1.0160  -17.7964  -43.8753 C.2       7 UNK         0.5000 
     36 O           1.1997  -18.9040  -44.3754 O.2       7 UNK        -0.5000 
     37 CA          1.4395  -17.5503  -42.4182 C.3       7 UNK         0.1400 
     38 CB          2.7894  -16.8219  -42.3449 C.3       7 UNK        -0.1800 
     39 N           0.4248  -16.8037  -41.6763 N.am      7 UNK        -0.5000 
     40 C          -0.7742  -17.2999  -41.3383 C.2       6 UNK         0.5000 
     41 O          -1.1291  -18.4530  -41.5786 O.2       6 UNK        -0.5000 
     42 CA         -1.7568  -16.3299  -40.6585 C.3       6 UNK         0.1400 
     43 CB         -1.4978  -16.2677  -39.1460 C.3       6 UNK        -0.1800 
     44 N          -1.6850  -14.9805  -41.2197 N.am      6 UNK        -0.5000 
     45 C          -2.0347  -14.6603  -42.4739 C.2       5 UNK         0.5000 
     46 O          -2.5007  -15.4629  -43.2812 O.2       5 UNK        -0.5000 
     47 CA         -1.7574  -13.2124  -42.9138 C.3       5 UNK         0.1400 
     48 CB         -2.9200  -12.2900  -42.5199 C.3       5 UNK        -0.1800 
     49 N          -0.5064  -12.6901  -42.3571 N.am      5 UNK        -0.5000 
     50 C           0.7079  -13.1530  -42.6771 C.2       4 UNK         0.5000 
     51 O           0.9051  -14.0563  -43.4955 O.2       4 UNK        -0.5000 
     52 CA          1.8952  -12.5247  -41.9418 C.3       4 UNK         0.1400 
     53 CB          2.1917  -13.2810  -40.6342 C.3       4 UNK        -0.1800 
     54 N           3.0479  -12.5625  -42.8312 N.am      4 UNK        -0.5000 
     55 C           4.1473  -11.8095  -42.7250 C.2       3 UNK         0.5000 
     56 O           4.3434  -11.0301  -41.7909 O.2       3 UNK        -0.5000 
     57 CA          5.1823  -11.8901  -43.8662 C.3       3 UNK         0.1400 
     58 CB          6.6221  -12.0794  -43.3446 C.3       3 UNK        -0.1800 
     59 N           4.8476  -12.8523  -44.9249 N.am      3 UNK        -0.5000 
     60 C           4.9359  -14.1915  -44.9109 C.2       2 UNK         0.5000 
     61 O           5.3323  -14.8395  -43.9426 O.2       2 UNK        -0.5000 
     62 CA          4.4819  -14.9297  -46.1911 C.3       2 UNK         0.1400 
     63 CB          3.8317  -16.2869  -45.8820 C.3       2 UNK        -0.1800 
     64 N           3.5315  -14.1342  -46.9689 N.am      2 UNK        -0.5000 
     65 C           3.8402  -13.3276  -47.9918 C.2       1 UNK         0.5000 
     66 O           4.9800  -13.1938  -48.4374 O.2       1 UNK        -0.5000 
     67 C          -0.3494  -22.1208  -47.8724 C.2       11 UNK         0.5000 
     68 O          -0.1370  -23.1303  -48.5441 O.2       11 UNK        -0.5000 
     69 N          -1.5080  -21.4462  -47.9019 N.am      12 UNK        -0.5000 
     70 CA         -2.6754  -21.8526  -48.6860 C.3       12 UNK         0.1400 
     71 CB         -3.7348  -20.7421  -48.6562 C.3       12 UNK        -0.1800 
     72 C          -3.2659  -23.1978  -48.2202 C.2       12 UNK         0.5000 
     73 O          -3.6347  -24.0181  -49.0609 O.2       12 UNK        -0.5000 
     74 N          -3.3061  -23.4229  -46.8993 N.am      13 UNK        -0.5000 
     75 CA         -3.7234  -24.6843  -46.2835 C.3       13 UNK         0.1400 
     76 CB         -3.8964  -24.4935  -44.7700 C.3       13 UNK        -0.1800 
     77 C          -2.7561  -25.8449  -46.5848 C.2       13 UNK         0.5000 
     78 O          -3.2137  -26.9562  -46.8499 O.2       13 UNK        -0.5000 
     79 N          -1.4438  -25.5675  -46.5933 N.am      14 UNK        -0.5000 
     80 CA         -0.3923  -26.5049  -47.0032 C.3       14 UNK         0.1400 
     81 CB          0.9865  -25.9237  -46.6564 C.3       14 UNK        -0.1800 
     82 C          -0.4740  -26.8752  -48.4978 C.2       14 UNK         0.5000 
     83 O          -0.1501  -28.0050  -48.8635 O.2       14 UNK        -0.5000 
     84 N          -0.9728  -25.9423  -49.3200 N.am      15 UNK        -0.5000 
     85 CA         -1.3443  -26.1412  -50.7227 C.3       15 UNK         0.1400 
     86 CB         -1.2203  -24.7982  -51.4643 C.3       15 UNK        -0.1800 
     87 C          -2.7526  -26.7608  -50.8926 C.2       15 UNK         0.5000 
     88 O          -3.3151  -26.6926  -51.9867 O.2       15 UNK        -0.5000 
     89 N          -3.3168  -27.3281  -49.8136 N.am      16 UNK        -0.5000 
     90 CA         -4.5973  -28.0411  -49.7227 C.3       16 UNK         0.1400 
     91 CB         -4.5429  -29.3414  -50.5517 C.3       16 UNK        -0.1800 
     92 C          -5.8283  -27.1778  -50.0681 C.2       16 UNK         0.5000 
     93 O          -6.8733  -27.7250  -50.4235 O.2       16 UNK        -0.5000 
     94 N          -5.6750  -25.8466  -49.9912 N.am      17 UNK        -0.5000 
     95 CA         -6.6134  -24.8124  -50.4365 C.3       17 UNK         0.1400 
     96 CB         -7.9063  -24.8333  -49.5960 C.3       17 UNK        -0.1800 
     97 C          -6.8872  -24.8339  -51.9580 C.2       17 UNK         0.5000 
     98 O          -7.8474  -24.2067  -52.4060 O.2       17 UNK        -0.5000 
     99 N          -6.0368  -25.5248  -52.7343 N.am      18 UNK        -0.5000 
    100 CA        -6.1204  -25.5907  -54.1933 C.3       18 UNK         0.1400 
    101 CB        -5.3568  -26.8240  -54.6991 C.3       18 UNK        -0.1800 
    102 C         -5.5791  -24.3059  -54.8403 C.2       18 UNK         0.5000 
    103 O         -6.1413  -23.8390  -55.8315 O.2       18 UNK        -0.5000 
    104 N         -4.5151  -23.7450  -54.2470 N.am      19 UNK        -0.5000 
    105 CA        -3.9678  -22.4379  -54.6075 C.3       19 UNK         0.1400 
    106 CB        -2.5470  -22.3022  -54.0360 C.3       19 UNK        -0.1800 
    107 C         -4.8717  -21.2965  -54.1081 C.2       19 UNK         0.5000 
    108 O         -5.1233  -20.3511  -54.8554 O.2       19 UNK        -0.5000 
    109 N         -5.3511  -21.4289  -52.8601 N.am      20 UNK        -0.5000 
    110 CA        -6.1907  -20.4751  -52.1273 C.3       20 UNK         0.1400 
    111 CB        -7.6118  -20.4361  -52.7326 C.3       20 UNK        -0.1800 
    112 C         -5.5125  -19.0913  -52.0132 C.2       20 UNK         0.5000 
    113 O         -4.3048  -19.0303  -51.7731 O.2       20 UNK        -0.5000 
    114 N         -6.2739  -18.0072  -52.2063 N.am      21 UNK        -0.5000 
    115 CA        -5.7761  -16.6342  -52.3011 C.3       21 UNK         0.1400 
    116 CB        -6.9136  -15.6679  -51.9238 C.3       21 UNK        -0.1800 
    117 C         -5.2086  -16.3694  -53.7118 C.2       21 UNK         0.5000 
    118 O         -5.7951  -15.6119  -54.4877 O.2       21 UNK        -0.5000 
    119 N         -4.1089  -17.0595  -54.0319 N.am      22 UNK        -0.5000 
    120 CA        -3.4218  -17.0366  -55.3297 C.3       22 UNK         0.1400 
    121 C         -2.8380  -15.6490  -55.7327 C.2       22 UNK         0.5000 
    122 N         -2.6203  -15.4168  -57.0206 N.am      22 UNK        -0.7600 
    123 O         -2.5571  -14.7922  -54.8968 O.2       22 UNK        -0.5000 
    124 C124       -2.3874  -18.1922  -55.4342 C.3       23 UNK        -0.0398 
    125 S125       -0.8144  -17.9614  -54.5330 S.3       23 UNK        -0.2404 
    126 C126       -1.2447  -18.4819  -52.8425 C.3       23 UNK        -0.0205 
    127 H127       -0.2028  -10.5151  -46.1858 H         1 UNK         0.0600 
    128 H128        0.6590  -10.9717  -44.7153 H         1 UNK         0.0600 
    129 H129       -0.1549  -12.2098  -45.6773 H         1 UNK         0.0600 
    130 H130        0.6980  -12.6332  -47.8971 H         1 UNK         0.3000 
    131 H131        3.1130  -11.5302  -48.8533 H         1 UNK         0.0600 
    132 H132        1.4788  -12.4208  -50.3919 H         1 UNK         0.0800 
    133 H133        2.9795  -13.2549  -50.6184 H         1 UNK         0.0800 
    134 H134        3.2704  -15.9973  -49.8892 H         1 UNK         0.0800 
    135 H135        2.7267  -15.4390  -51.4575 H         1 UNK         0.0800 
    136 H136        0.1562  -16.3219  -51.9971 H         1 UNK         0.1150 
    137 H137        0.0712  -20.5931  -51.7087 H         1 UNK         0.1150 
    138 H138        3.1627  -18.3660  -49.7329 H         1 UNK         0.1150 
    139 H139        1.5261  -21.7423  -50.2236 H         1 UNK         0.0800 
    140 H140        3.0680  -21.2276  -50.8533 H         1 UNK         0.0800 
    141 H141        0.8631  -19.7311  -48.0362 H         1 UNK         0.0800 
    142 H142        1.9217  -19.8052  -46.6698 H         1 UNK         0.0800 
    143 H143        1.4321  -22.4338  -46.7323 H         1 UNK         0.0600 
    144 H144        0.2373  -20.3488  -45.2579 H         1 UNK         0.3000 
    145 H145       -1.8346  -22.3865  -43.1708 H         1 UNK         0.0600 
    146 H146       -0.5407  -21.2112  -41.4173 H         1 UNK         0.0600 
    147 H147        0.4255  -22.4873  -42.1414 H         1 UNK         0.0600 
    148 H148        0.7231  -20.8111  -42.5781 H         1 UNK         0.0600 
    149 H149       -1.3977  -19.5828  -43.1906 H         1 UNK         0.3000 
    150 H150       -3.8970  -18.7773  -45.6630 H         1 UNK         0.0600 
    151 H151       -5.0455  -18.9997  -43.4579 H         1 UNK         0.0600 
    152 H152       -4.6183  -17.3277  -43.7895 H         1 UNK         0.0600 
    153 H153       -3.6629  -18.2721  -42.6496 H         1 UNK         0.0600 
    154 H154       -2.1224  -17.0915  -44.2359 H         1 UNK         0.3000 
    155 H155        0.6429  -17.2534  -46.5276 H         1 UNK         0.0600 
    156 H156       -1.3311  -15.0473  -45.7373 H         1 UNK         0.0600 
    157 H157       -0.9259  -15.5264  -47.3812 H         1 UNK         0.0600 
    158 H158        0.3015  -14.8026  -46.3530 H         1 UNK         0.0600 
    159 H159        0.3483  -15.8819  -44.0549 H         1 UNK         0.3000 
    160 H160        1.5605  -18.5242  -41.9394 H         1 UNK         0.0600 
    161 H161        2.7445  -15.8286  -42.7906 H         1 UNK         0.0600 
    162 H162        3.5618  -17.3802  -42.8754 H         1 UNK         0.0600 
    163 H163        3.1227  -16.7122  -41.3131 H         1 UNK         0.0600 
    164 H164        0.6231  -15.8355  -41.4787 H         1 UNK         0.3000 
    165 H165       -2.7675  -16.7114  -40.8181 H         1 UNK         0.0600 
    166 H166       -2.2350  -15.6396  -38.6455 H         1 UNK         0.0600 
    167 H167       -1.5614  -17.2606  -38.6988 H         1 UNK         0.0600 
    168 H168       -0.5078  -15.8688  -38.9210 H         1 UNK         0.0600 
    169 H169       -1.3153  -14.2561  -40.6225 H         1 UNK         0.3000 
    170 H170       -1.6746  -13.2084  -44.0024 H         1 UNK         0.0600 
    171 H171       -3.8615  -12.6500  -42.9370 H         1 UNK         0.0600 
    172 H172       -3.0413  -12.2311  -41.4376 H         1 UNK         0.0600 
    173 H173       -2.7649  -11.2788  -42.8966 H         1 UNK         0.0600 
    174 H174       -0.5899  -11.9448  -41.6804 H         1 UNK         0.3000 
    175 H175        1.6541  -11.4836  -41.7172 H         1 UNK         0.0600 
    176 H176        2.4838  -14.3136  -40.8227 H         1 UNK         0.0600 
    177 H177        2.9988  -12.8061  -40.0765 H         1 UNK         0.0600 
    178 H178        1.3179  -13.2984  -39.9819 H         1 UNK         0.0600 
    179 H179        2.9389  -13.1703  -43.6320 H         1 UNK         0.3000 
    180 H180        5.1472  -10.9146  -44.3534 H         1 UNK         0.0600 
    181 H181        6.7242  -12.9852  -42.7468 H         1 UNK         0.0600 
    182 H182        6.9191  -11.2424  -42.7118 H         1 UNK         0.0600 
    183 H183        7.3371  -12.1332  -44.1655 H         1 UNK         0.0600 
    184 H184        4.4501  -12.4270  -45.7532 H         1 UNK         0.3000 
    185 H185        5.3792  -15.1185  -46.7836 H         1 UNK         0.0600 
    186 H186        4.5195  -16.9495  -45.3554 H         1 UNK         0.0600 
    187 H187        2.9511  -16.1580  -45.2575 H         1 UNK         0.0600 
    188 H188        3.5238  -16.7977  -46.7948 H         1 UNK         0.0600 
    189 H189        2.5687  -14.1626  -46.6668 H         1 UNK         0.3000 
    190 H190       -1.5946  -20.5958  -47.3527 H         1 UNK         0.3000 
    191 H191       -2.3513  -21.9767  -49.7213 H         1 UNK         0.0600 
    192 H192       -4.0836  -20.5413  -47.6434 H         1 UNK         0.0600 
    193 H193       -4.6034  -21.0166  -49.2550 H         1 UNK         0.0600 
    194 H194       -3.3397  -19.8115  -49.0648 H         1 UNK         0.0600 
    195 H195       -3.0534  -22.6673  -46.2687 H         1 UNK         0.3000 
    196 H196       -4.6966  -24.9499  -46.7021 H         1 UNK         0.0600 
    197 H197       -4.2675  -25.4063  -44.3026 H         1 UNK         0.0600 
    198 H198       -4.6122  -23.7009  -44.5512 H         1 UNK         0.0600 
    199 H199       -2.9548  -24.2377  -44.2854 H         1 UNK         0.0600 
    200 H200       -1.1366  -24.6499  -46.2815 H         1 UNK         0.3000 
    201 H201       -0.5249  -27.4244  -46.4294 H         1 UNK         0.0600 
    202 H202        1.0712  -25.7205  -45.5887 H         1 UNK         0.0600 
    203 H203        1.1799  -24.9936  -47.1900 H         1 UNK         0.0600 
    204 H204        1.7815  -26.6229  -46.9183 H         1 UNK         0.0600 
    205 H205       -1.1598  -25.0233  -48.9359 H         1 UNK         0.3000 
    206 H206       -0.6366  -26.8375  -51.1765 H         1 UNK         0.0600 
    207 H207       -0.2282  -24.3654  -51.3340 H         1 UNK         0.0600 
    208 H208       -1.3790  -24.9246  -52.5357 H         1 UNK         0.0600 
    209 H209       -1.9492  -24.0711  -51.1081 H         1 UNK         0.0600 
    210 H210       -2.8155  -27.2657  -48.9363 H         1 UNK         0.3000 
    211 H211       -4.7147  -28.3235  -48.6759 H         1 UNK         0.0600 
    212 H212       -4.5005  -29.1368  -51.6221 H         1 UNK         0.0600 
    213 H213       -5.4228  -29.9600  -50.3720 H         1 UNK         0.0600 
    214 H214       -3.6704  -29.9398  -50.2895 H         1 UNK         0.0600 
    215 H215       -4.7775  -25.4869  -49.6768 H         1 UNK         0.3000 
    216 H216       -6.1182  -23.8604  -50.2418 H         1 UNK         0.0600 
    217 H217       -8.5277  -23.9637  -49.8127 H         1 UNK         0.0600 
    218 H218       -7.6825  -24.8119  -48.5294 H         1 UNK         0.0600 
    219 H219       -8.5078  -25.7201  -49.7962 H         1 UNK         0.0600 
    220 H220       -5.2562  -26.0094  -52.3038 H         1 UNK         0.3000 
    221 H221       -7.1684  -25.7008  -54.4806 H         1 UNK         0.0600 
    222 H222       -4.2895  -26.7564  -54.4865 H         1 UNK         0.0600 
    223 H223       -5.7328  -27.7374  -54.2376 H         1 UNK         0.0600 
    224 H224       -5.4684  -26.9337  -55.7784 H         1 UNK         0.0600 
    225 H225       -4.1017  -24.2193  -53.4577 H         1 UNK         0.3000 
    226 H226       -3.9046  -22.3726  -55.6960 H         1 UNK         0.0600 
    227 H227       -1.9034  -23.1104  -54.3838 H         1 UNK         0.0600 
    228 H228       -2.0876  -21.3668  -54.3559 H         1 UNK         0.0600 
    229 H229       -2.5418  -22.3147  -52.9454 H         1 UNK         0.0600 
    230 H230       -5.0565  -22.2373  -52.3356 H         1 UNK         0.3000 
    231 H231       -6.2757  -20.8576  -51.1097 H         1 UNK         0.0600 
    232 H232       -8.0285  -21.4404  -52.8097 H         1 UNK         0.0600 
    233 H233       -7.6190  -20.0011  -53.7328 H         1 UNK         0.0600 
    234 H234       -8.2949  -19.8584  -52.1091 H         1 UNK         0.0600 
    235 H235       -7.2479  -18.1422  -52.4351 H         1 UNK         0.3000 
    236 H236       -4.9654  -16.4899  -51.5835 H         1 UNK         0.0600 
    237 H237       -6.5782  -14.6314  -51.9769 H         1 UNK         0.0600 
    238 H238       -7.7713  -15.7714  -52.5896 H         1 UNK         0.0600 
    239 H239       -7.2578  -15.8450  -50.9047 H         1 UNK         0.0600 
    240 H240       -3.7395  -17.6974  -53.3386 H         1 UNK         0.3000 
    241 H241       -4.2018  -17.2540  -56.0622 H         1 UNK         0.0600 
    242 H242       -2.2331  -14.5279  -57.2974 H         1 UNK         0.3800 
    243 H243       -2.8363  -16.1014  -57.7288 H         1 UNK         0.3800 
    244 H244       -2.8373  -19.1313  -55.1161 H         1 UNK         0.0800 
    245 H245       -2.1304  -18.3447  -56.4833 H         1 UNK         0.0800 
    246 H246       -1.6971  -19.4741  -52.8605 H         1 UNK         0.0800 
    247 H247       -1.9889  -17.8021  -52.4282 H         1 UNK         0.0800 
@<TRIPOS>BOND
     1    1    2 1    
     2    1  127 1    
     3    1  128 1    
     4    1  129 1    
     5    2    3 2    
     6    2    4 am   BACKBONE|DICT|INTERRES
     7    4    5 1    
     8    4  130 1    
     9    5    6 1    
    10    5   65 1    
    11    5  131 1    
    12    6    7 1    
    13    6  132 1    
    14    6  133 1    
    15    7    8 1    
    16    8    9 1    
    17    8  134 1    
    18    8  135 1    
    19    9   10 ar   
    20    9   14 ar   
    21   10   11 ar   
    22   10  136 1    
    23   11   12 ar   
    24   11  126 1    
    25   12   13 ar   
    26   12  137 1    
    27   13   14 ar   
    28   13   15 1    
    29   14  138 1    
    30   15   16 1    
    31   15  139 1    
    32   15  140 1    
    33   16   17 1    
    34   17   18 1    
    35   17  141 1    
    36   17  142 1    
    37   18   19 1    
    38   18   67 1    
    39   18  143 1    
    40   19   20 am   BACKBONE|DICT|INTERRES
    41   19  144 1    
    42   20   21 2    
    43   20   22 1    
    44   22   23 1    
    45   22   24 1    
    46   22  145 1    
    47   23  146 1    
    48   23  147 1    
    49   23  148 1    
    50   24   25 am   BACKBONE|DICT|INTERRES
    51   24  149 1    
    52   25   26 2    
    53   25   27 1    
    54   27   28 1    
    55   27   29 1    
    56   27  150 1    
    57   28  151 1    
    58   28  152 1    
    59   28  153 1    
    60   29   30 am   BACKBONE|DICT|INTERRES
    61   29  154 1    
    62   30   31 2    
    63   30   32 1    
    64   32   33 1    
    65   32   34 1    
    66   32  155 1    
    67   33  156 1    
    68   33  157 1    
    69   33  158 1    
    70   34   35 am   BACKBONE|DICT|INTERRES
    71   34  159 1    
    72   35   36 2    
    73   35   37 1    
    74   37   38 1    
    75   37   39 1    
    76   37  160 1    
    77   38  161 1    
    78   38  162 1    
    79   38  163 1    
    80   39   40 am   BACKBONE|DICT|INTERRES
    81   39  164 1    
    82   40   41 2    
    83   40   42 1    
    84   42   43 1    
    85   42   44 1    
    86   42  165 1    
    87   43  166 1    
    88   43  167 1    
    89   43  168 1    
    90   44   45 am   BACKBONE|DICT|INTERRES
    91   44  169 1    
    92   45   46 2    
    93   45   47 1    
    94   47   48 1    
    95   47   49 1    
    96   47  170 1    
    97   48  171 1    
    98   48  172 1    
    99   48  173 1    
   100   49   50 am   BACKBONE|DICT|INTERRES
   101   49  174 1    
   102   50   51 2    
   103   50   52 1    
   104   52   53 1    
   105   52   54 1    
   106   52  175 1    
   107   53  176 1    
   108   53  177 1    
   109   53  178 1    
   110   54   55 am   BACKBONE|DICT|INTERRES
   111   54  179 1    
   112   55   56 2    
   113   55   57 1    
   114   57   58 1    
   115   57   59 1    
   116   57  180 1    
   117   58  181 1    
   118   58  182 1    
   119   58  183 1    
   120   59   60 am   BACKBONE|DICT|INTERRES
   121   59  184 1    
   122   60   61 2    
   123   60   62 1    
   124   62   63 1    
   125   62   64 1    
   126   62  185 1    
   127   63  186 1    
   128   63  187 1    
   129   63  188 1    
   130   64   65 am   BACKBONE|DICT|INTERRES
   131   64  189 1    
   132   65   66 2    
   133   67   68 2    
   134   67   69 am   BACKBONE|DICT|INTERRES
   135   69   70 1    
   136   69  190 1    
   137   70   71 1    
   138   70   72 1    
   139   70  191 1    
   140   71  192 1    
   141   71  193 1    
   142   71  194 1    
   143   72   73 2    
   144   72   74 am   BACKBONE|DICT|INTERRES
   145   74   75 1    
   146   74  195 1    
   147   75   76 1    
   148   75   77 1    
   149   75  196 1    
   150   76  197 1    
   151   76  198 1    
   152   76  199 1    
   153   77   78 2    
   154   77   79 am   BACKBONE|DICT|INTERRES
   155   79   80 1    
   156   79  200 1    
   157   80   81 1    
   158   80   82 1    
   159   80  201 1    
   160   81  202 1    
   161   81  203 1    
   162   81  204 1    
   163   82   83 2    
   164   82   84 am   BACKBONE|DICT|INTERRES
   165   84   85 1    
   166   84  205 1    
   167   85   86 1    
   168   85   87 1    
   169   85  206 1    
   170   86  207 1    
   171   86  208 1    
   172   86  209 1    
   173   87   88 2    
   174   87   89 am   BACKBONE|DICT|INTERRES
   175   89   90 1    
   176   89  210 1    
   177   90   91 1    
   178   90   92 1    
   179   90  211 1    
   180   91  212 1    
   181   91  213 1    
   182   91  214 1    
   183   92   93 2    
   184   92   94 am   BACKBONE|DICT|INTERRES
   185   94   95 1    
   186   94  215 1    
   187   95   96 1    
   188   95   97 1    
   189   95  216 1    
   190   96  217 1    
   191   96  218 1    
   192   96  219 1    
   193   97   98 2    
   194   97   99 am   BACKBONE|DICT|INTERRES
   195   99  100 1    
   196   99  220 1    
   197  100  101 1    
   198  100  102 1    
   199  100  221 1    
   200  101  222 1    
   201  101  223 1    
   202  101  224 1    
   203  102  103 2    
   204  102  104 am   BACKBONE|DICT|INTERRES
   205  104  105 1    
   206  104  225 1    
   207  105  106 1    
   208  105  107 1    
   209  105  226 1    
   210  106  227 1    
   211  106  228 1    
   212  106  229 1    
   213  107  108 2    
   214  107  109 am   BACKBONE|DICT|INTERRES
   215  109  110 1    
   216  109  230 1    
   217  110  111 1    
   218  110  112 1    
   219  110  231 1    
   220  111  232 1    
   221  111  233 1    
   222  111  234 1    
   223  112  113 2    
   224  112  114 am   BACKBONE|DICT|INTERRES
   225  114  115 1    
   226  114  235 1    
   227  115  116 1    
   228  115  117 1    
   229  115  236 1    
   230  116  237 1    
   231  116  238 1    
   232  116  239 1    
   233  117  118 2    
   234  117  119 am   BACKBONE|DICT|INTERRES
   235  119  120 1    
   236  119  240 1    
   237  120  121 1    
   238  120  124 1    
   239  120  241 1    
   240  121  122 am   BACKBONE|DICT|INTERRES
   241  121  123 2    
   242  122  242 1    
   243  122  243 1    
   244  124  125 1    
   245  124  244 1    
   246  124  245 1    
   247  125  126 1    
   248  126  246 1    
   249  126  247 1    
@<TRIPOS>SUBSTRUCTURE
     1 UNK         1 GROUP             0       ****    0 ROOT    
