@<TRIPOS>MOLECULE
3R540
247   249    1
SMALL
USER_CHARGES


@<TRIPOS>ATOM
      1 CA         -2.7774  -19.6351  -44.3446 C.3       0 UNK        -0.1800 
      2 C          -2.7187  -18.1205  -44.2107 C.2       0 UNK         0.5000 
      3 O          -3.3800  -17.5490  -43.3448 O.2       0 UNK        -0.5000 
      4 N          -1.9203  -17.4647  -45.0569 N.am      1 UNK        -0.5000 
      5 CA         -1.7854  -16.0124  -45.1944 C.3       1 UNK         0.1400 
      6 C6         -1.4190  -15.6559  -46.6567 C.3       23 UNK        -0.0398 
      7 S7         -1.9435  -13.9881  -47.1605 S.3       23 UNK        -0.2404 
      8 C8         -0.5814  -13.5215  -48.2760 C.3       23 UNK        -0.0205 
      9 C9         -0.6071  -14.2711  -49.6039 C.ar      23 UNK        -0.0193 
     10 C10         0.4815  -15.0571  -50.0007 C.ar      23 UNK        -0.1150 
     11 C11         0.5039  -15.6445  -51.2706 C.ar      23 UNK        -0.0193 
     12 C12        -0.5810  -15.4615  -52.1299 C.ar      23 UNK        -0.1150 
     13 C13        -1.6885  -14.6994  -51.7422 C.ar      23 UNK        -0.0193 
     14 C14        -1.6885  -14.1065  -50.4762 C.ar      23 UNK        -0.1150 
     15 C15        -2.8453  -14.4153  -52.7001 C.3       23 UNK        -0.0205 
     16 S16        -3.1507  -15.7154  -53.9482 S.3       23 UNK        -0.2404 
     17 C17        -4.4794  -16.7112  -53.1989 C.3       23 UNK        -0.0398 
     18 CA         -3.9770  -18.0531  -52.6112 C.3       11 UNK         0.1400 
     19 N          -3.2461  -17.8633  -51.3564 N.am      11 UNK        -0.5000 
     20 C          -2.3187  -18.7014  -50.8780 C.2       10 UNK         0.5000 
     21 O          -1.8739  -19.6747  -51.4918 O.2       10 UNK        -0.5000 
     22 CA         -1.8735  -18.4271  -49.4366 C.3       10 UNK         0.1400 
     23 CB         -2.8947  -19.0668  -48.4748 C.3       10 UNK        -0.1800 
     24 N          -0.5172  -18.9292  -49.2201 N.am      10 UNK        -0.5000 
     25 C           0.1655  -18.9357  -48.0699 C.2       9 UNK         0.5000 
     26 O          -0.3156  -18.6156  -46.9841 O.2       9 UNK        -0.5000 
     27 CA          1.6475  -19.3294  -48.1362 C.3       9 UNK         0.1400 
     28 CB          2.5301  -18.0707  -48.1837 C.3       9 UNK        -0.1800 
     29 N           1.9937  -20.0721  -46.9296 N.am      9 UNK        -0.5000 
     30 C           2.4836  -21.3171  -46.8941 C.2       8 UNK         0.5000 
     31 O           2.7435  -21.9704  -47.9049 O.2       8 UNK        -0.5000 
     32 CA          2.7488  -21.9514  -45.5103 C.3       8 UNK         0.1400 
     33 CB          4.2444  -22.2638  -45.3359 C.3       8 UNK        -0.1800 
     34 N           2.3240  -21.1115  -44.3900 N.am      8 UNK        -0.5000 
     35 C           1.0746  -21.0097  -43.9175 C.2       7 UNK         0.5000 
     36 O           0.1328  -21.6872  -44.3254 O.2       7 UNK        -0.5000 
     37 CA          0.8334  -19.9665  -42.8036 C.3       7 UNK         0.1400 
     38 CB          0.6667  -20.6597  -41.4430 C.3       7 UNK        -0.1800 
     39 N           1.8825  -18.9441  -42.6933 N.am      7 UNK        -0.5000 
     40 C           2.1582  -18.0416  -43.6424 C.2       6 UNK         0.5000 
     41 O           1.5702  -17.9931  -44.7238 O.2       6 UNK        -0.5000 
     42 CA          3.3018  -17.0603  -43.3594 C.3       6 UNK         0.1400 
     43 CB          4.6692  -17.7452  -43.5247 C.3       6 UNK        -0.1800 
     44 N           3.1882  -15.9682  -44.3157 N.am      6 UNK        -0.5000 
     45 C           3.5445  -14.6967  -44.1224 C.2       5 UNK         0.5000 
     46 O           4.0494  -14.2804  -43.0789 O.2       5 UNK        -0.5000 
     47 CA          3.2945  -13.7196  -45.2831 C.3       5 UNK         0.1400 
     48 CB          3.0136  -14.4066  -46.6371 C.3       5 UNK        -0.1800 
     49 N           2.1554  -12.8792  -44.9354 N.am      5 UNK        -0.5000 
     50 C           2.1516  -11.5421  -44.9265 C.2       4 UNK         0.5000 
     51 O           3.1334  -10.8559  -45.2144 O.2       4 UNK        -0.5000 
     52 CA          0.8416  -10.8363  -44.5380 C.3       4 UNK         0.1400 
     53 CB         -0.0290  -10.5875  -45.7792 C.3       4 UNK        -0.1800 
     54 N           0.0579  -11.5813  -43.5481 N.am      4 UNK        -0.5000 
     55 C          -0.4298  -11.0485  -42.4175 C.2       3 UNK         0.5000 
     56 O          -0.2201   -9.8869  -42.0645 O.2       3 UNK        -0.5000 
     57 CA         -1.3242  -11.9376  -41.5283 C.3       3 UNK         0.1400 
     58 CB         -2.8059  -11.5998  -41.7565 C.3       3 UNK        -0.1800 
     59 N          -1.1340  -13.3699  -41.7470 N.am      3 UNK        -0.5000 
     60 C          -0.0572  -14.0682  -41.3661 C.2       2 UNK         0.5000 
     61 O           0.8736  -13.5873  -40.7199 O.2       2 UNK        -0.5000 
     62 CA          0.0025  -15.5483  -41.7925 C.3       2 UNK         0.1400 
     63 CB         -0.3025  -16.4742  -40.6062 C.3       2 UNK        -0.1800 
     64 N          -0.8812  -15.9044  -42.9073 N.am      2 UNK        -0.5000 
     65 C          -0.8047  -15.4220  -44.1548 C.2       1 UNK         0.5000 
     66 O          -0.0089  -14.5382  -44.4768 O.2       1 UNK        -0.5000 
     67 C          -5.1747  -19.0088  -52.4222 C.2       11 UNK         0.5000 
     68 O          -5.5052  -19.7386  -53.3569 O.2       11 UNK        -0.5000 
     69 N          -5.8195  -18.9727  -51.2448 N.am      12 UNK        -0.5000 
     70 CA         -7.0581  -19.7088  -50.9692 C.3       12 UNK         0.1400 
     71 CB         -8.2725  -18.8973  -51.4523 C.3       12 UNK        -0.1800 
     72 C          -7.2171  -20.0985  -49.4911 C.2       12 UNK         0.5000 
     73 O          -7.7549  -21.1736  -49.2205 O.2       12 UNK        -0.5000 
     74 N          -6.7357  -19.2582  -48.5612 N.am      13 UNK        -0.5000 
     75 CA         -6.7759  -19.5015  -47.1129 C.3       13 UNK         0.1400 
     76 CB         -6.1350  -18.3115  -46.3810 C.3       13 UNK        -0.1800 
     77 C          -6.0774  -20.8151  -46.7103 C.2       13 UNK         0.5000 
     78 O          -5.0129  -21.1197  -47.2483 O.2       13 UNK        -0.5000 
     79 N          -6.6969  -21.5742  -45.7950 N.am      14 UNK        -0.5000 
     80 CA         -6.2529  -22.8901  -45.3105 C.3       14 UNK         0.1400 
     81 CB         -4.9890  -22.7452  -44.4367 C.3       14 UNK        -0.1800 
     82 C          -6.0815  -23.9234  -46.4479 C.2       14 UNK         0.5000 
     83 O          -5.0909  -24.6564  -46.4762 O.2       14 UNK        -0.5000 
     84 N          -7.0380  -23.9243  -47.3906 N.am      15 UNK        -0.5000 
     85 CA         -7.0525  -24.7100  -48.6317 C.3       15 UNK         0.1400 
     86 CB         -7.1978  -26.2166  -48.3298 C.3       15 UNK        -0.1800 
     87 C          -5.8369  -24.3867  -49.5243 C.2       15 UNK         0.5000 
     88 O          -5.1289  -25.2916  -49.9677 O.2       15 UNK        -0.5000 
     89 N          -5.5969  -23.0822  -49.7175 N.am      16 UNK        -0.5000 
     90 CA         -4.4435  -22.4788  -50.3946 C.3       16 UNK         0.1400 
     91 CB         -4.4958  -22.7715  -51.9062 C.3       16 UNK        -0.1800 
     92 C          -3.1090  -22.8890  -49.7403 C.2       16 UNK         0.5000 
     93 O          -2.1642  -23.2564  -50.4403 O.2       16 UNK        -0.5000 
     94 N          -3.0946  -22.8524  -48.3997 N.am      17 UNK        -0.5000 
     95 CA         -2.0433  -23.3123  -47.4914 C.3       17 UNK         0.1400 
     96 CB         -0.8508  -22.3441  -47.5093 C.3       17 UNK        -0.1800 
     97 C          -1.6536  -24.7816  -47.7419 C.2       17 UNK         0.5000 
     98 O          -0.4846  -25.0869  -47.9808 O.2       17 UNK        -0.5000 
     99 N          -2.6696  -25.6560  -47.7068 N.am      18 UNK        -0.5000 
    100 CA        -2.6154  -27.0900  -48.0054 C.3       18 UNK         0.1400 
    101 CB        -1.8261  -27.8448  -46.9156 C.3       18 UNK        -0.1800 
    102 C         -2.1064  -27.3713  -49.4358 C.2       18 UNK         0.5000 
    103 O         -1.1941  -28.1776  -49.6284 O.2       18 UNK        -0.5000 
    104 N         -2.7201  -26.6834  -50.4085 N.am      19 UNK        -0.5000 
    105 CA        -2.4564  -26.7380  -51.8478 C.3       19 UNK         0.1400 
    106 CB        -2.8402  -28.1185  -52.4209 C.3       19 UNK        -0.1800 
    107 C         -1.0323  -26.2898  -52.2421 C.2       19 UNK         0.5000 
    108 O         -0.4510  -26.8437  -53.1776 O.2       19 UNK        -0.5000 
    109 N         -0.5028  -25.2738  -51.5470 N.am      20 UNK        -0.5000 
    110 CA         0.7203  -24.5678  -51.9293 C.3       20 UNK         0.1400 
    111 CB         1.2712  -23.7780  -50.7324 C.3       20 UNK        -0.1800 
    112 C          0.4507  -23.6369  -53.1241 C.2       20 UNK         0.5000 
    113 O          1.2071  -23.6702  -54.0952 O.2       20 UNK        -0.5000 
    114 N         -0.6522  -22.8729  -53.0360 N.am      21 UNK        -0.5000 
    115 CA        -1.2455  -22.0326  -54.0835 C.3       21 UNK         0.1400 
    116 CB        -1.9818  -22.9243  -55.1034 C.3       21 UNK        -0.1800 
    117 C         -0.2480  -21.0579  -54.7438 C.2       21 UNK         0.5000 
    118 O         -0.0682  -21.0764  -55.9633 O.2       21 UNK        -0.5000 
    119 N          0.3950  -20.2310  -53.9126 N.am      22 UNK        -0.5000 
    120 CA         1.3912  -19.2258  -54.3256 C.3       22 UNK         0.1400 
    121 C          0.8179  -17.9774  -55.0627 C.2       22 UNK         0.5000 
    122 N         -0.4938  -17.7971  -55.1478 N.am      22 UNK        -0.7600 
    123 O          1.5803  -17.1639  -55.5773 O.2       22 UNK        -0.5000 
    124 C124        2.3243  -18.8312  -53.1510 C.3       23 UNK        -0.0398 
    125 S125        1.4178  -18.2195  -51.6910 S.3       23 UNK        -0.2404 
    126 C126        1.7143  -16.4266  -51.7606 C.3       23 UNK        -0.0205 
    127 H127       -2.0755  -20.0016  -45.0948 H         1 UNK         0.0600 
    128 H128       -3.7796  -19.9409  -44.6430 H         1 UNK         0.0600 
    129 H129       -2.5407  -20.1127  -43.3941 H         1 UNK         0.0600 
    130 H130       -1.3351  -17.9971  -45.7043 H         1 UNK         0.3000 
    131 H131       -2.7618  -15.5728  -44.9803 H         1 UNK         0.0600 
    132 H132       -0.3542  -15.8060  -46.8447 H         1 UNK         0.0800 
    133 H133       -1.9364  -16.3343  -47.3311 H         1 UNK         0.0800 
    134 H134       -0.6575  -12.4539  -48.4855 H         1 UNK         0.0800 
    135 H135        0.3697  -13.6590  -47.7612 H         1 UNK         0.0800 
    136 H136        1.3290  -15.1746  -49.3405 H         1 UNK         0.1150 
    137 H137       -0.5404  -15.8983  -53.1165 H         1 UNK         0.1150 
    138 H138       -2.5185  -13.4814  -50.1773 H         1 UNK         0.1150 
    139 H139       -3.7615  -14.2139  -52.1437 H         1 UNK         0.0800 
    140 H140       -2.6095  -13.4931  -53.2323 H         1 UNK         0.0800 
    141 H141       -5.1990  -16.8910  -54.0006 H         1 UNK         0.0800 
    142 H142       -5.0167  -16.1294  -52.4487 H         1 UNK         0.0800 
    143 H143       -3.3108  -18.5187  -53.3412 H         1 UNK         0.0600 
    144 H144       -3.5036  -17.0555  -50.8093 H         1 UNK         0.3000 
    145 H145       -1.8532  -17.3459  -49.2999 H         1 UNK         0.0600 
    146 H146       -2.7848  -18.7074  -47.4544 H         1 UNK         0.0600 
    147 H147       -3.9194  -18.8447  -48.7687 H         1 UNK         0.0600 
    148 H148       -2.7910  -20.1492  -48.4575 H         1 UNK         0.0600 
    149 H149       -0.0491  -19.2041  -50.0752 H         1 UNK         0.3000 
    150 H150        1.8171  -19.9262  -49.0346 H         1 UNK         0.0600 
    151 H151        2.2748  -17.4372  -49.0306 H         1 UNK         0.0600 
    152 H152        3.5838  -18.3328  -48.2775 H         1 UNK         0.0600 
    153 H153        2.4145  -17.4662  -47.2838 H         1 UNK         0.0600 
    154 H154        1.7390  -19.6051  -46.0653 H         1 UNK         0.3000 
    155 H155        2.1974  -22.8933  -45.4749 H         1 UNK         0.0600 
    156 H156        4.6007  -22.9315  -46.1214 H         1 UNK         0.0600 
    157 H157        4.4361  -22.7572  -44.3828 H         1 UNK         0.0600 
    158 H158        4.8512  -21.3583  -45.3745 H         1 UNK         0.0600 
    159 H159        3.0299  -20.5151  -43.9860 H         1 UNK         0.3000 
    160 H160       -0.1003  -19.4540  -43.0414 H         1 UNK         0.0600 
    161 H161        1.5786  -21.1764  -41.1414 H         1 UNK         0.0600 
    162 H162       -0.1340  -21.3998  -41.4771 H         1 UNK         0.0600 
    163 H163        0.4109  -19.9445  -40.6613 H         1 UNK         0.0600 
    164 H164        2.4178  -18.9413  -41.8367 H         1 UNK         0.3000 
    165 H165        3.1971  -16.6819  -42.3408 H         1 UNK         0.0600 
    166 H166        5.4845  -17.0435  -43.3478 H         1 UNK         0.0600 
    167 H167        4.7895  -18.5646  -42.8152 H         1 UNK         0.0600 
    168 H168        4.7943  -18.1554  -44.5280 H         1 UNK         0.0600 
    169 H169        2.6917  -16.2236  -45.1603 H         1 UNK         0.3000 
    170 H170        4.2034  -13.1238  -45.3878 H         1 UNK         0.0600 
    171 H171        3.8251  -15.0807  -46.9146 H         1 UNK         0.0600 
    172 H172        2.0879  -14.9831  -46.6201 H         1 UNK         0.0600 
    173 H173        2.9253  -13.6681  -47.4340 H         1 UNK         0.0600 
    174 H174        1.3107  -13.3922  -44.6895 H         1 UNK         0.3000 
    175 H175        1.1327   -9.8631  -44.1375 H         1 UNK         0.0600 
    176 H176       -0.8920   -9.9678  -45.5355 H         1 UNK         0.0600 
    177 H177        0.5323  -10.0727  -46.5601 H         1 UNK         0.0600 
    178 H178       -0.3983  -11.5227  -46.1977 H         1 UNK         0.0600 
    179 H179       -0.1410  -12.5520  -43.7577 H         1 UNK         0.3000 
    180 H180       -1.0793  -11.7136  -40.4879 H         1 UNK         0.0600 
    181 H181       -3.1142  -11.8140  -42.7807 H         1 UNK         0.0600 
    182 H182       -2.9994  -10.5425  -41.5703 H         1 UNK         0.0600 
    183 H183       -3.4490  -12.1688  -41.0850 H         1 UNK         0.0600 
    184 H184       -1.8542  -13.8509  -42.2649 H         1 UNK         0.3000 
    185 H185        1.0265  -15.7325  -42.1153 H         1 UNK         0.0600 
    186 H186        0.3651  -16.2715  -39.7677 H         1 UNK         0.0600 
    187 H187       -1.3258  -16.3465  -40.2513 H         1 UNK         0.0600 
    188 H188       -0.1703  -17.5208  -40.8796 H         1 UNK         0.0600 
    189 H189       -1.6001  -16.5941  -42.7217 H         1 UNK         0.3000 
    190 H190       -5.4705  -18.3695  -50.5181 H         1 UNK         0.3000 
    191 H191       -7.0392  -20.6495  -51.5241 H         1 UNK         0.0600 
    192 H192       -8.2331  -18.7297  -52.5287 H         1 UNK         0.0600 
    193 H193       -9.2048  -19.4231  -51.2417 H         1 UNK         0.0600 
    194 H194       -8.3251  -17.9239  -50.9635 H         1 UNK         0.0600 
    195 H195       -6.3470  -18.3742  -48.8448 H         1 UNK         0.3000 
    196 H196       -7.8262  -19.5613  -46.8209 H         1 UNK         0.0600 
    197 H197       -6.1767  -18.4492  -45.2996 H         1 UNK         0.0600 
    198 H198       -6.6539  -17.3802  -46.6080 H         1 UNK         0.0600 
    199 H199       -5.0862  -18.1862  -46.6504 H         1 UNK         0.0600 
    200 H200       -7.5736  -21.2469  -45.4134 H         1 UNK         0.3000 
    201 H201       -7.0508  -23.2729  -44.6727 H         1 UNK         0.0600 
    202 H202       -5.1523  -22.0397  -43.6221 H         1 UNK         0.0600 
    203 H203       -4.1339  -22.3950  -45.0144 H         1 UNK         0.0600 
    204 H204       -4.7109  -23.6992  -43.9874 H         1 UNK         0.0600 
    205 H205       -7.7871  -23.2522  -47.2970 H         1 UNK         0.3000 
    206 H206       -7.9362  -24.3967  -49.1896 H         1 UNK         0.0600 
    207 H207       -8.0731  -26.4115  -47.7105 H         1 UNK         0.0600 
    208 H208       -7.3184  -26.7874  -49.2512 H         1 UNK         0.0600 
    209 H209       -6.3252  -26.6164  -47.8124 H         1 UNK         0.0600 
    210 H210       -6.2496  -22.4284  -49.2972 H         1 UNK         0.3000 
    211 H211       -4.5271  -21.4004  -50.2591 H         1 UNK         0.0600 
    212 H212       -4.3112  -23.8228  -52.1266 H         1 UNK         0.0600 
    213 H213       -3.7464  -22.1860  -52.4344 H         1 UNK         0.0600 
    214 H214       -5.4648  -22.5054  -52.3278 H         1 UNK         0.0600 
    215 H215       -3.9148  -22.4629  -47.9403 H         1 UNK         0.3000 
    216 H216       -2.4653  -23.2827  -46.4865 H         1 UNK         0.0600 
    217 H217       -0.0472  -22.7126  -46.8732 H         1 UNK         0.0600 
    218 H218       -1.1421  -21.3692  -47.1212 H         1 UNK         0.0600 
    219 H219       -0.4455  -22.2038  -48.5100 H         1 UNK         0.0600 
    220 H220       -3.5907  -25.2946  -47.4681 H         1 UNK         0.3000 
    221 H221       -3.6460  -27.4464  -47.9714 H         1 UNK         0.0600 
    222 H222       -0.7723  -27.5648  -46.9086 H         1 UNK         0.0600 
    223 H223       -2.2332  -27.6435  -45.9247 H         1 UNK         0.0600 
    224 H224       -1.8767  -28.9226  -47.0743 H         1 UNK         0.0600 
    225 H225       -3.4858  -26.0660  -50.1413 H         1 UNK         0.3000 
    226 H226       -3.1283  -26.0053  -52.2963 H         1 UNK         0.0600 
    227 H227       -3.8596  -28.3894  -52.1457 H         1 UNK         0.0600 
    228 H228       -2.7900  -28.1181  -53.5103 H         1 UNK         0.0600 
    229 H229       -2.1751  -28.9051  -52.0635 H         1 UNK         0.0600 
    230 H230       -1.0685  -24.8290  -50.8301 H         1 UNK         0.3000 
    231 H231        1.4728  -25.3017  -52.2253 H         1 UNK         0.0600 
    232 H232        0.5791  -23.0024  -50.4066 H         1 UNK         0.0600 
    233 H233        2.2116  -23.2882  -50.9873 H         1 UNK         0.0600 
    234 H234        1.4648  -24.4313  -49.8815 H         1 UNK         0.0600 
    235 H235       -1.1769  -22.9199  -52.1670 H         1 UNK         0.3000 
    236 H236       -1.9905  -21.4035  -53.5973 H         1 UNK         0.0600 
    237 H237       -2.7307  -23.5462  -54.6128 H         1 UNK         0.0600 
    238 H238       -2.5002  -22.3212  -55.8498 H         1 UNK         0.0600 
    239 H239       -1.2933  -23.5844  -55.6322 H         1 UNK         0.0600 
    240 H240        0.1592  -20.2454  -52.9294 H         1 UNK         0.3000 
    241 H241        2.0283  -19.7112  -55.0674 H         1 UNK         0.0600 
    242 H242       -0.8557  -16.9891  -55.6283 H         1 UNK         0.3800 
    243 H243       -1.1243  -18.4558  -54.7241 H         1 UNK         0.3800 
    244 H244        2.8914  -19.7083  -52.8368 H         1 UNK         0.0800 
    245 H245        3.0731  -18.1026  -53.4661 H         1 UNK         0.0800 
    246 H246        2.5997  -16.1831  -51.1718 H         1 UNK         0.0800 
    247 H247        1.9358  -16.1229  -52.7848 H         1 UNK         0.0800 
@<TRIPOS>BOND
     1    1    2 1    
     2    1  127 1    
     3    1  128 1    
     4    1  129 1    
     5    2    3 2    
     6    2    4 am   BACKBONE|DICT|INTERRES
     7    4    5 1    
     8    4  130 1    
     9    5    6 1    
    10    5   65 1    
    11    5  131 1    
    12    6    7 1    
    13    6  132 1    
    14    6  133 1    
    15    7    8 1    
    16    8    9 1    
    17    8  134 1    
    18    8  135 1    
    19    9   10 ar   
    20    9   14 ar   
    21   10   11 ar   
    22   10  136 1    
    23   11   12 ar   
    24   11  126 1    
    25   12   13 ar   
    26   12  137 1    
    27   13   14 ar   
    28   13   15 1    
    29   14  138 1    
    30   15   16 1    
    31   15  139 1    
    32   15  140 1    
    33   16   17 1    
    34   17   18 1    
    35   17  141 1    
    36   17  142 1    
    37   18   19 1    
    38   18   67 1    
    39   18  143 1    
    40   19   20 am   BACKBONE|DICT|INTERRES
    41   19  144 1    
    42   20   21 2    
    43   20   22 1    
    44   22   23 1    
    45   22   24 1    
    46   22  145 1    
    47   23  146 1    
    48   23  147 1    
    49   23  148 1    
    50   24   25 am   BACKBONE|DICT|INTERRES
    51   24  149 1    
    52   25   26 2    
    53   25   27 1    
    54   27   28 1    
    55   27   29 1    
    56   27  150 1    
    57   28  151 1    
    58   28  152 1    
    59   28  153 1    
    60   29   30 am   BACKBONE|DICT|INTERRES
    61   29  154 1    
    62   30   31 2    
    63   30   32 1    
    64   32   33 1    
    65   32   34 1    
    66   32  155 1    
    67   33  156 1    
    68   33  157 1    
    69   33  158 1    
    70   34   35 am   BACKBONE|DICT|INTERRES
    71   34  159 1    
    72   35   36 2    
    73   35   37 1    
    74   37   38 1    
    75   37   39 1    
    76   37  160 1    
    77   38  161 1    
    78   38  162 1    
    79   38  163 1    
    80   39   40 am   BACKBONE|DICT|INTERRES
    81   39  164 1    
    82   40   41 2    
    83   40   42 1    
    84   42   43 1    
    85   42   44 1    
    86   42  165 1    
    87   43  166 1    
    88   43  167 1    
    89   43  168 1    
    90   44   45 am   BACKBONE|DICT|INTERRES
    91   44  169 1    
    92   45   46 2    
    93   45   47 1    
    94   47   48 1    
    95   47   49 1    
    96   47  170 1    
    97   48  171 1    
    98   48  172 1    
    99   48  173 1    
   100   49   50 am   BACKBONE|DICT|INTERRES
   101   49  174 1    
   102   50   51 2    
   103   50   52 1    
   104   52   53 1    
   105   52   54 1    
   106   52  175 1    
   107   53  176 1    
   108   53  177 1    
   109   53  178 1    
   110   54   55 am   BACKBONE|DICT|INTERRES
   111   54  179 1    
   112   55   56 2    
   113   55   57 1    
   114   57   58 1    
   115   57   59 1    
   116   57  180 1    
   117   58  181 1    
   118   58  182 1    
   119   58  183 1    
   120   59   60 am   BACKBONE|DICT|INTERRES
   121   59  184 1    
   122   60   61 2    
   123   60   62 1    
   124   62   63 1    
   125   62   64 1    
   126   62  185 1    
   127   63  186 1    
   128   63  187 1    
   129   63  188 1    
   130   64   65 am   BACKBONE|DICT|INTERRES
   131   64  189 1    
   132   65   66 2    
   133   67   68 2    
   134   67   69 am   BACKBONE|DICT|INTERRES
   135   69   70 1    
   136   69  190 1    
   137   70   71 1    
   138   70   72 1    
   139   70  191 1    
   140   71  192 1    
   141   71  193 1    
   142   71  194 1    
   143   72   73 2    
   144   72   74 am   BACKBONE|DICT|INTERRES
   145   74   75 1    
   146   74  195 1    
   147   75   76 1    
   148   75   77 1    
   149   75  196 1    
   150   76  197 1    
   151   76  198 1    
   152   76  199 1    
   153   77   78 2    
   154   77   79 am   BACKBONE|DICT|INTERRES
   155   79   80 1    
   156   79  200 1    
   157   80   81 1    
   158   80   82 1    
   159   80  201 1    
   160   81  202 1    
   161   81  203 1    
   162   81  204 1    
   163   82   83 2    
   164   82   84 am   BACKBONE|DICT|INTERRES
   165   84   85 1    
   166   84  205 1    
   167   85   86 1    
   168   85   87 1    
   169   85  206 1    
   170   86  207 1    
   171   86  208 1    
   172   86  209 1    
   173   87   88 2    
   174   87   89 am   BACKBONE|DICT|INTERRES
   175   89   90 1    
   176   89  210 1    
   177   90   91 1    
   178   90   92 1    
   179   90  211 1    
   180   91  212 1    
   181   91  213 1    
   182   91  214 1    
   183   92   93 2    
   184   92   94 am   BACKBONE|DICT|INTERRES
   185   94   95 1    
   186   94  215 1    
   187   95   96 1    
   188   95   97 1    
   189   95  216 1    
   190   96  217 1    
   191   96  218 1    
   192   96  219 1    
   193   97   98 2    
   194   97   99 am   BACKBONE|DICT|INTERRES
   195   99  100 1    
   196   99  220 1    
   197  100  101 1    
   198  100  102 1    
   199  100  221 1    
   200  101  222 1    
   201  101  223 1    
   202  101  224 1    
   203  102  103 2    
   204  102  104 am   BACKBONE|DICT|INTERRES
   205  104  105 1    
   206  104  225 1    
   207  105  106 1    
   208  105  107 1    
   209  105  226 1    
   210  106  227 1    
   211  106  228 1    
   212  106  229 1    
   213  107  108 2    
   214  107  109 am   BACKBONE|DICT|INTERRES
   215  109  110 1    
   216  109  230 1    
   217  110  111 1    
   218  110  112 1    
   219  110  231 1    
   220  111  232 1    
   221  111  233 1    
   222  111  234 1    
   223  112  113 2    
   224  112  114 am   BACKBONE|DICT|INTERRES
   225  114  115 1    
   226  114  235 1    
   227  115  116 1    
   228  115  117 1    
   229  115  236 1    
   230  116  237 1    
   231  116  238 1    
   232  116  239 1    
   233  117  118 2    
   234  117  119 am   BACKBONE|DICT|INTERRES
   235  119  120 1    
   236  119  240 1    
   237  120  121 1    
   238  120  124 1    
   239  120  241 1    
   240  121  122 am   BACKBONE|DICT|INTERRES
   241  121  123 2    
   242  122  242 1    
   243  122  243 1    
   244  124  125 1    
   245  124  244 1    
   246  124  245 1    
   247  125  126 1    
   248  126  246 1    
   249  126  247 1    
@<TRIPOS>SUBSTRUCTURE
     1 UNK         1 GROUP             0       ****    0 ROOT    
