@<TRIPOS>MOLECULE
3R540
247   249    1
SMALL
USER_CHARGES


@<TRIPOS>ATOM
      1 CA         -1.1384  -15.6459  -49.9357 C.3       0 UNK        -0.1800 
      2 C          -0.4978  -14.6076  -49.0283 C.2       0 UNK         0.5000 
      3 O          -1.1856  -14.0170  -48.1965 O.2       0 UNK        -0.5000 
      4 N           0.8075  -14.3730  -49.1985 N.am      1 UNK        -0.5000 
      5 CA          1.5800  -13.3761  -48.4539 C.3       1 UNK         0.1400 
      6 C6          2.9328  -13.0524  -49.1331 C.3       23 UNK        -0.0398 
      7 S7          2.7485  -12.5473  -50.8782 S.3       23 UNK        -0.2404 
      8 C8          3.6841  -13.8475  -51.7441 C.3       23 UNK        -0.0205 
      9 C9          2.9315  -15.1699  -51.8200 C.ar      23 UNK        -0.0193 
     10 C10         2.0586  -15.4189  -52.8818 C.ar      23 UNK        -0.1150 
     11 C11         1.4321  -16.6609  -53.0228 C.ar      23 UNK        -0.0193 
     12 C12         1.6808  -17.6559  -52.0666 C.ar      23 UNK        -0.1150 
     13 C13         2.5294  -17.4149  -50.9778 C.ar      23 UNK        -0.0193 
     14 C14         3.1543  -16.1694  -50.8697 C.ar      23 UNK        -0.1150 
     15 C15         2.8539  -18.4929  -49.9419 C.3       23 UNK        -0.0205 
     16 S16         1.5220  -19.6986  -49.6272 S.3       23 UNK        -0.2404 
     17 C17         0.2665  -18.6588  -48.8054 C.3       23 UNK        -0.0398 
     18 CA         -0.2389  -19.1821  -47.4348 C.3       11 UNK         0.1400 
     19 N          -1.1584  -18.1965  -46.8573 N.am      11 UNK        -0.5000 
     20 C          -1.7009  -18.2304  -45.6359 C.2       10 UNK         0.5000 
     21 O          -1.3533  -19.0069  -44.7413 O.2       10 UNK        -0.5000 
     22 CA         -2.8674  -17.2528  -45.4024 C.3       10 UNK         0.1400 
     23 CB         -4.2138  -17.9791  -45.5498 C.3       10 UNK        -0.1800 
     24 N          -2.8027  -16.6057  -44.0924 N.am      10 UNK        -0.5000 
     25 C          -1.8681  -15.7027  -43.7604 C.2       9 UNK         0.5000 
     26 O          -0.9832  -15.3347  -44.5296 O.2       9 UNK        -0.5000 
     27 CA         -1.9210  -15.1088  -42.3451 C.3       9 UNK         0.1400 
     28 CB         -2.8035  -13.8477  -42.3150 C.3       9 UNK        -0.1800 
     29 N          -2.3897  -16.0931  -41.3705 N.am      9 UNK        -0.5000 
     30 C          -2.1658  -16.0418  -40.0512 C.2       8 UNK         0.5000 
     31 O          -1.5727  -15.1181  -39.4927 O.2       8 UNK        -0.5000 
     32 CA         -2.6883  -17.2241  -39.2070 C.3       8 UNK         0.1400 
     33 CB         -4.0142  -16.8504  -38.5261 C.3       8 UNK        -0.1800 
     34 N          -2.8822  -18.4580  -39.9767 N.am      8 UNK        -0.5000 
     35 C          -1.8917  -19.1896  -40.5052 C.2       7 UNK         0.5000 
     36 O          -0.6999  -18.9107  -40.3549 O.2       7 UNK        -0.5000 
     37 CA         -2.3028  -20.4144  -41.3515 C.3       7 UNK         0.1400 
     38 CB         -3.6403  -20.2122  -42.0896 C.3       7 UNK        -0.1800 
     39 N          -1.2720  -20.6930  -42.3461 N.am      7 UNK        -0.5000 
     40 C          -0.2390  -21.5298  -42.1780 C.2       6 UNK         0.5000 
     41 O          -0.1059  -22.2750  -41.2062 O.2       6 UNK        -0.5000 
     42 CA          0.8403  -21.5119  -43.2719 C.3       6 UNK         0.1400 
     43 CB          0.4494  -22.4485  -44.4220 C.3       6 UNK        -0.1800 
     44 N           1.0109  -20.1554  -43.7914 N.am      6 UNK        -0.5000 
     45 C           2.0440  -19.3549  -43.5180 C.2       5 UNK         0.5000 
     46 O           3.0532  -19.7086  -42.9027 O.2       5 UNK        -0.5000 
     47 CA          1.8992  -17.8901  -43.9710 C.3       5 UNK         0.1400 
     48 CB          1.4281  -17.0267  -42.7913 C.3       5 UNK        -0.1800 
     49 N           3.1500  -17.3460  -44.4953 N.am      5 UNK        -0.5000 
     50 C           3.7656  -17.7773  -45.6056 C.2       4 UNK         0.5000 
     51 O           3.3103  -18.6580  -46.3371 O.2       4 UNK        -0.5000 
     52 CA          5.1022  -17.0941  -45.9499 C.3       4 UNK         0.1400 
     53 CB          5.5533  -17.3132  -47.4053 C.3       4 UNK        -0.1800 
     54 N           5.0103  -15.6606  -45.6886 N.am      4 UNK        -0.5000 
     55 C           5.9341  -14.9218  -45.0605 C.2       3 UNK         0.5000 
     56 O           7.0028  -15.3739  -44.6479 O.2       3 UNK        -0.5000 
     57 CA          5.6225  -13.4236  -44.8501 C.3       3 UNK         0.1400 
     58 CB          6.4313  -12.5659  -45.8359 C.3       3 UNK        -0.1800 
     59 N           4.2045  -13.0868  -44.9936 N.am      3 UNK        -0.5000 
     60 C           3.2233  -13.4973  -44.1783 C.2       2 UNK         0.5000 
     61 O           3.4180  -14.1530  -43.1549 O.2       2 UNK        -0.5000 
     62 CA          1.7805  -13.1602  -44.6029 C.3       2 UNK         0.1400 
     63 CB          1.2531  -11.9461  -43.8243 C.3       2 UNK        -0.1800 
     64 N           1.6121  -12.9229  -46.0420 N.am      2 UNK        -0.5000 
     65 C           1.8180  -13.8356  -47.0027 C.2       1 UNK         0.5000 
     66 O           2.2427  -14.9735  -46.7888 O.2       1 UNK        -0.5000 
     67 C          -0.9634  -20.5375  -47.5948 C.2       11 UNK         0.5000 
     68 O          -2.1841  -20.5517  -47.7592 O.2       11 UNK        -0.5000 
     69 N          -0.2178  -21.6502  -47.6436 N.am      12 UNK        -0.5000 
     70 CA         -0.7547  -22.9852  -47.9474 C.3       12 UNK         0.1400 
     71 CB          0.3696  -24.0284  -47.8643 C.3       12 UNK        -0.1800 
     72 C          -1.4465  -23.0694  -49.3237 C.2       12 UNK         0.5000 
     73 O          -2.3875  -23.8478  -49.4870 O.2       12 UNK        -0.5000 
     74 N          -0.9803  -22.2382  -50.2653 N.am      13 UNK        -0.5000 
     75 CA         -1.5426  -22.0522  -51.6002 C.3       13 UNK         0.1400 
     76 CB         -0.4151  -21.6215  -52.5495 C.3       13 UNK        -0.1800 
     77 C          -2.7189  -21.0529  -51.6453 C.2       13 UNK         0.5000 
     78 O          -3.2392  -20.8070  -52.7330 O.2       13 UNK        -0.5000 
     79 N          -3.1273  -20.4994  -50.4953 N.am      14 UNK        -0.5000 
     80 CA         -4.3356  -19.6866  -50.3327 C.3       14 UNK         0.1400 
     81 CB         -3.9520  -18.3120  -49.7618 C.3       14 UNK        -0.1800 
     82 C          -5.3467  -20.3722  -49.3956 C.2       14 UNK         0.5000 
     83 O          -6.5517  -20.2699  -49.6215 O.2       14 UNK        -0.5000 
     84 N          -4.8403  -21.0473  -48.3553 N.am      15 UNK        -0.5000 
     85 CA         -5.5980  -21.6521  -47.2592 C.3       15 UNK         0.1400 
     86 CB         -4.6214  -21.9191  -46.0989 C.3       15 UNK        -0.1800 
     87 C          -6.3664  -22.9416  -47.6163 C.2       15 UNK         0.5000 
     88 O          -7.0385  -23.4822  -46.7373 O.2       15 UNK        -0.5000 
     89 N          -6.2376  -23.4346  -48.8581 N.am      16 UNK        -0.5000 
     90 CA         -6.7816  -24.7024  -49.3668 C.3       16 UNK         0.1400 
     91 CB         -8.3155  -24.7848  -49.2123 C.3       16 UNK        -0.1800 
     92 C          -6.0439  -25.9395  -48.8132 C.2       16 UNK         0.5000 
     93 O          -6.5761  -27.0483  -48.8850 O.2       16 UNK        -0.5000 
     94 N          -4.8261  -25.7379  -48.2890 N.am      17 UNK        -0.5000 
     95 CA         -3.9534  -26.7990  -47.7906 C.3       17 UNK         0.1400 
     96 CB         -2.9818  -26.2216  -46.7491 C.3       17 UNK        -0.1800 
     97 C          -3.2000  -27.4696  -48.9501 C.2       17 UNK         0.5000 
     98 O          -3.2337  -28.6947  -49.0722 O.2       17 UNK        -0.5000 
     99 N          -2.5640  -26.6459  -49.7921 N.am      18 UNK        -0.5000 
    100 CA        -1.8992  -27.0574  -51.0271 C.3       18 UNK         0.1400 
    101 CB        -0.5037  -26.4153  -51.0906 C.3       18 UNK        -0.1800 
    102 C         -2.7316  -26.6506  -52.2539 C.2       18 UNK         0.5000 
    103 O         -2.7861  -27.4063  -53.2245 O.2       18 UNK        -0.5000 
    104 N         -3.3737  -25.4780  -52.1860 N.am      19 UNK        -0.5000 
    105 CA        -4.2182  -24.8890  -53.2213 C.3       19 UNK         0.1400 
    106 CB        -3.3605  -24.4180  -54.4162 C.3       19 UNK        -0.1800 
    107 C         -4.9852  -23.7116  -52.6017 C.2       19 UNK         0.5000 
    108 O         -4.7391  -23.3661  -51.4435 O.2       19 UNK        -0.5000 
    109 N         -5.8828  -23.1035  -53.3826 N.am      20 UNK        -0.5000 
    110 CA        -6.5844  -21.8633  -53.0321 C.3       20 UNK         0.1400 
    111 CB        -8.0922  -22.1537  -52.9476 C.3       20 UNK        -0.1800 
    112 C         -6.2788  -20.7280  -54.0332 C.2       20 UNK         0.5000 
    113 O         -6.8912  -19.6624  -53.9497 O.2       20 UNK        -0.5000 
    114 N         -5.3432  -20.9693  -54.9642 N.am      21 UNK        -0.5000 
    115 CA        -4.9674  -20.0875  -56.0718 C.3       21 UNK         0.1400 
    116 CB        -3.9252  -20.8071  -56.9419 C.3       21 UNK        -0.1800 
    117 C         -4.4438  -18.7024  -55.6469 C.2       21 UNK         0.5000 
    118 O         -4.6870  -17.7257  -56.3573 O.2       21 UNK        -0.5000 
    119 N         -3.7540  -18.6373  -54.5027 N.am      22 UNK        -0.5000 
    120 CA        -3.2541  -17.3907  -53.9003 C.3       22 UNK         0.1400 
    121 C         -4.3137  -16.6484  -53.0318 C.2       22 UNK         0.5000 
    122 N         -5.5381  -17.1439  -52.8851 N.am      22 UNK        -0.7600 
    123 O         -4.0230  -15.5883  -52.4859 O.2       22 UNK        -0.5000 
    124 C124       -1.9290  -17.6099  -53.1227 C.3       23 UNK        -0.0398 
    125 S125       -0.6033  -18.2988  -54.1686 S.3       23 UNK        -0.2404 
    126 C126        0.5644  -16.8977  -54.2624 C.3       23 UNK        -0.0205 
    127 H127       -0.3956  -16.1816  -50.5266 H         1 UNK         0.0600 
    128 H128       -1.8352  -15.1629  -50.6207 H         1 UNK         0.0600 
    129 H129       -1.6946  -16.3670  -49.3403 H         1 UNK         0.0600 
    130 H130        1.3239  -14.8873  -49.8983 H         1 UNK         0.3000 
    131 H131        0.9915  -12.4559  -48.4332 H         1 UNK         0.0600 
    132 H132        3.4275  -12.2328  -48.6091 H         1 UNK         0.0800 
    133 H133        3.6152  -13.9003  -49.0640 H         1 UNK         0.0800 
    134 H134        4.6543  -13.9861  -51.2643 H         1 UNK         0.0800 
    135 H135        3.9022  -13.4987  -52.7547 H         1 UNK         0.0800 
    136 H136        1.8961  -14.6508  -53.6254 H         1 UNK         0.1150 
    137 H137        1.2351  -18.6316  -52.1801 H         1 UNK         0.1150 
    138 H138        3.8442  -15.9890  -50.0585 H         1 UNK         0.1150 
    139 H139        3.7393  -19.0346  -50.2762 H         1 UNK         0.0800 
    140 H140        3.1150  -18.0309  -48.9901 H         1 UNK         0.0800 
    141 H141       -0.5654  -18.5427  -49.5025 H         1 UNK         0.0800 
    142 H142        0.6868  -17.6613  -48.6677 H         1 UNK         0.0800 
    143 H143        0.6074  -19.3102  -46.7576 H         1 UNK         0.0600 
    144 H144       -1.5252  -17.5185  -47.5059 H         1 UNK         0.3000 
    145 H145       -2.8248  -16.4695  -46.1631 H         1 UNK         0.0600 
    146 H146       -5.0493  -17.2848  -45.4597 H         1 UNK         0.0600 
    147 H147       -4.2966  -18.4587  -46.5258 H         1 UNK         0.0600 
    148 H148       -4.3417  -18.7570  -44.7982 H         1 UNK         0.0600 
    149 H149       -3.5425  -16.8267  -43.4458 H         1 UNK         0.3000 
    150 H150       -0.8993  -14.8238  -42.0839 H         1 UNK         0.0600 
    151 H151       -2.4734  -13.1227  -43.0604 H         1 UNK         0.0600 
    152 H152       -2.7595  -13.3535  -41.3445 H         1 UNK         0.0600 
    153 H153       -3.8475  -14.0837  -42.5237 H         1 UNK         0.0600 
    154 H154       -2.8335  -16.9194  -41.7389 H         1 UNK         0.3000 
    155 H155       -1.9486  -17.4214  -38.4282 H         1 UNK         0.0600 
    156 H156       -4.8010  -16.6559  -39.2559 H         1 UNK         0.0600 
    157 H157       -3.9016  -15.9518  -37.9179 H         1 UNK         0.0600 
    158 H158       -4.3570  -17.6466  -37.8650 H         1 UNK         0.0600 
    159 H159       -3.8373  -18.7515  -40.1232 H         1 UNK         0.3000 
    160 H160       -2.4093  -21.2647  -40.6752 H         1 UNK         0.0600 
    161 H161       -3.6384  -19.2917  -42.6721 H         1 UNK         0.0600 
    162 H162       -4.4794  -20.1685  -41.3947 H         1 UNK         0.0600 
    163 H163       -3.8401  -21.0367  -42.7748 H         1 UNK         0.0600 
    164 H164       -1.2929  -20.1038  -43.1721 H         1 UNK         0.3000 
    165 H165        1.7714  -21.8779  -42.8343 H         1 UNK         0.0600 
    166 H166        1.2109  -22.4396  -45.2010 H         1 UNK         0.0600 
    167 H167        0.3504  -23.4770  -44.0729 H         1 UNK         0.0600 
    168 H168       -0.5022  -22.1608  -44.8704 H         1 UNK         0.0600 
    169 H169        0.2001  -19.7521  -44.2554 H         1 UNK         0.3000 
    170 H170        1.1548  -17.8267  -44.7662 H         1 UNK         0.0600 
    171 H171        0.4732  -17.3844  -42.4041 H         1 UNK         0.0600 
    172 H172        2.1433  -17.0431  -41.9679 H         1 UNK         0.0600 
    173 H173        1.2882  -15.9896  -43.0897 H         1 UNK         0.0600 
    174 H174        3.5908  -16.6206  -43.9476 H         1 UNK         0.3000 
    175 H175        5.8446  -17.5512  -45.2927 H         1 UNK         0.0600 
    176 H176        4.8817  -16.8183  -48.1050 H         1 UNK         0.0600 
    177 H177        6.5537  -16.9121  -47.5678 H         1 UNK         0.0600 
    178 H178        5.5846  -18.3732  -47.6602 H         1 UNK         0.0600 
    179 H179        4.1377  -15.2281  -45.9754 H         1 UNK         0.3000 
    180 H180        5.9306  -13.1655  -43.8349 H         1 UNK         0.0600 
    181 H181        6.1533  -12.7723  -46.8703 H         1 UNK         0.0600 
    182 H182        7.5002  -12.7603  -45.7386 H         1 UNK         0.0600 
    183 H183        6.2789  -11.5022  -45.6518 H         1 UNK         0.0600 
    184 H184        3.9504  -12.5418  -45.8034 H         1 UNK         0.3000 
    185 H185        1.1687  -14.0213  -44.3399 H         1 UNK         0.0600 
    186 H186        1.3411  -12.1034  -42.7484 H         1 UNK         0.0600 
    187 H187        1.8057  -11.0386  -44.0706 H         1 UNK         0.0600 
    188 H188        0.1989  -11.7691  -44.0383 H         1 UNK         0.0600 
    189 H189        1.2703  -12.0088  -46.3018 H         1 UNK         0.3000 
    190 H190        0.7849  -21.5769  -47.5431 H         1 UNK         0.3000 
    191 H191       -1.5035  -23.2202  -47.1891 H         1 UNK         0.0600 
    192 H192       -0.0007  -25.0248  -48.1098 H         1 UNK         0.0600 
    193 H193        0.7902  -24.0838  -46.8613 H         1 UNK         0.0600 
    194 H194        1.1807  -23.8019  -48.5575 H         1 UNK         0.0600 
    195 H195       -0.1953  -21.6473  -50.0293 H         1 UNK         0.3000 
    196 H196       -1.9261  -23.0108  -51.9500 H         1 UNK         0.0600 
    197 H197        0.0135  -20.6651  -52.2514 H         1 UNK         0.0600 
    198 H198        0.3881  -22.3581  -52.5680 H         1 UNK         0.0600 
    199 H199       -0.7785  -21.5141  -53.5725 H         1 UNK         0.0600 
    200 H200       -2.6469  -20.7519  -49.6405 H         1 UNK         0.3000 
    201 H201       -4.8306  -19.5322  -51.2932 H         1 UNK         0.0600 
    202 H202       -3.4493  -18.3979  -48.7994 H         1 UNK         0.0600 
    203 H203       -4.8356  -17.6889  -49.6175 H         1 UNK         0.0600 
    204 H204       -3.2892  -17.7740  -50.4349 H         1 UNK         0.0600 
    205 H205       -3.8352  -21.0090  -48.2063 H         1 UNK         0.3000 
    206 H206       -6.3373  -20.9235  -46.9208 H         1 UNK         0.0600 
    207 H207       -4.1052  -21.0091  -45.7941 H         1 UNK         0.0600 
    208 H208       -5.1429  -22.3003  -45.2201 H         1 UNK         0.0600 
    209 H209       -3.8638  -22.6531  -46.3756 H         1 UNK         0.0600 
    210 H210       -5.6435  -22.9382  -49.5132 H         1 UNK         0.3000 
    211 H211       -6.5933  -24.7123  -50.4376 H         1 UNK         0.0600 
    212 H212       -8.7180  -25.6201  -49.7862 H         1 UNK         0.0600 
    213 H213       -8.7982  -23.8790  -49.5795 H         1 UNK         0.0600 
    214 H214       -8.6177  -24.9335  -48.1758 H         1 UNK         0.0600 
    215 H215       -4.4454  -24.8025  -48.3125 H         1 UNK         0.3000 
    216 H216       -4.5611  -27.5590  -47.2945 H         1 UNK         0.0600 
    217 H217       -2.3394  -25.4530  -47.1752 H         1 UNK         0.0600 
    218 H218       -2.3353  -27.0019  -46.3457 H         1 UNK         0.0600 
    219 H219       -3.5208  -25.7794  -45.9110 H         1 UNK         0.0600 
    220 H220       -2.5875  -25.6458  -49.6080 H         1 UNK         0.3000 
    221 H221       -1.7733  -28.1418  -51.0514 H         1 UNK         0.0600 
    222 H222        0.0982  -26.6952  -50.2260 H         1 UNK         0.0600 
    223 H223       -0.5569  -25.3269  -51.1240 H         1 UNK         0.0600 
    224 H224        0.0339  -26.7427  -51.9813 H         1 UNK         0.0600 
    225 H225       -3.3207  -24.9160  -51.3428 H         1 UNK         0.3000 
    226 H226       -4.9426  -25.6350  -53.5533 H         1 UNK         0.0600 
    227 H227       -2.6618  -23.6320  -54.1286 H         1 UNK         0.0600 
    228 H228       -2.7807  -25.2355  -54.8436 H         1 UNK         0.0600 
    229 H229       -3.9822  -24.0237  -55.2202 H         1 UNK         0.0600 
    230 H230       -6.0657  -23.4708  -54.3061 H         1 UNK         0.3000 
    231 H231       -6.2576  -21.5007  -52.0573 H         1 UNK         0.0600 
    232 H232       -8.4925  -22.4857  -53.9061 H         1 UNK         0.0600 
    233 H233       -8.6479  -21.2648  -52.6464 H         1 UNK         0.0600 
    234 H234       -8.3000  -22.9283  -52.2090 H         1 UNK         0.0600 
    235 H235       -4.8228  -21.8288  -54.8893 H         1 UNK         0.3000 
    236 H236       -5.8628  -19.9247  -56.6751 H         1 UNK         0.0600 
    237 H237       -4.3177  -21.7444  -57.3368 H         1 UNK         0.0600 
    238 H238       -3.6358  -20.1922  -57.7952 H         1 UNK         0.0600 
    239 H239       -3.0193  -21.0323  -56.3771 H         1 UNK         0.0600 
    240 H240       -3.6010  -19.4879  -53.9642 H         1 UNK         0.3000 
    241 H241       -3.0224  -16.6965  -54.7102 H         1 UNK         0.0600 
    242 H242       -6.2075  -16.6349  -52.3309 H         1 UNK         0.3800 
    243 H243       -5.8244  -17.9961  -53.3525 H         1 UNK         0.3800 
    244 H244       -2.0808  -18.2917  -52.2884 H         1 UNK         0.0800 
    245 H245       -1.5805  -16.6726  -52.6876 H         1 UNK         0.0800 
    246 H246        0.0040  -15.9928  -54.5032 H         1 UNK         0.0800 
    247 H247        1.2321  -17.0757  -55.1061 H         1 UNK         0.0800 
@<TRIPOS>BOND
     1    1    2 1    
     2    1  127 1    
     3    1  128 1    
     4    1  129 1    
     5    2    3 2    
     6    2    4 am   BACKBONE|DICT|INTERRES
     7    4    5 1    
     8    4  130 1    
     9    5    6 1    
    10    5   65 1    
    11    5  131 1    
    12    6    7 1    
    13    6  132 1    
    14    6  133 1    
    15    7    8 1    
    16    8    9 1    
    17    8  134 1    
    18    8  135 1    
    19    9   10 ar   
    20    9   14 ar   
    21   10   11 ar   
    22   10  136 1    
    23   11   12 ar   
    24   11  126 1    
    25   12   13 ar   
    26   12  137 1    
    27   13   14 ar   
    28   13   15 1    
    29   14  138 1    
    30   15   16 1    
    31   15  139 1    
    32   15  140 1    
    33   16   17 1    
    34   17   18 1    
    35   17  141 1    
    36   17  142 1    
    37   18   19 1    
    38   18   67 1    
    39   18  143 1    
    40   19   20 am   BACKBONE|DICT|INTERRES
    41   19  144 1    
    42   20   21 2    
    43   20   22 1    
    44   22   23 1    
    45   22   24 1    
    46   22  145 1    
    47   23  146 1    
    48   23  147 1    
    49   23  148 1    
    50   24   25 am   BACKBONE|DICT|INTERRES
    51   24  149 1    
    52   25   26 2    
    53   25   27 1    
    54   27   28 1    
    55   27   29 1    
    56   27  150 1    
    57   28  151 1    
    58   28  152 1    
    59   28  153 1    
    60   29   30 am   BACKBONE|DICT|INTERRES
    61   29  154 1    
    62   30   31 2    
    63   30   32 1    
    64   32   33 1    
    65   32   34 1    
    66   32  155 1    
    67   33  156 1    
    68   33  157 1    
    69   33  158 1    
    70   34   35 am   BACKBONE|DICT|INTERRES
    71   34  159 1    
    72   35   36 2    
    73   35   37 1    
    74   37   38 1    
    75   37   39 1    
    76   37  160 1    
    77   38  161 1    
    78   38  162 1    
    79   38  163 1    
    80   39   40 am   BACKBONE|DICT|INTERRES
    81   39  164 1    
    82   40   41 2    
    83   40   42 1    
    84   42   43 1    
    85   42   44 1    
    86   42  165 1    
    87   43  166 1    
    88   43  167 1    
    89   43  168 1    
    90   44   45 am   BACKBONE|DICT|INTERRES
    91   44  169 1    
    92   45   46 2    
    93   45   47 1    
    94   47   48 1    
    95   47   49 1    
    96   47  170 1    
    97   48  171 1    
    98   48  172 1    
    99   48  173 1    
   100   49   50 am   BACKBONE|DICT|INTERRES
   101   49  174 1    
   102   50   51 2    
   103   50   52 1    
   104   52   53 1    
   105   52   54 1    
   106   52  175 1    
   107   53  176 1    
   108   53  177 1    
   109   53  178 1    
   110   54   55 am   BACKBONE|DICT|INTERRES
   111   54  179 1    
   112   55   56 2    
   113   55   57 1    
   114   57   58 1    
   115   57   59 1    
   116   57  180 1    
   117   58  181 1    
   118   58  182 1    
   119   58  183 1    
   120   59   60 am   BACKBONE|DICT|INTERRES
   121   59  184 1    
   122   60   61 2    
   123   60   62 1    
   124   62   63 1    
   125   62   64 1    
   126   62  185 1    
   127   63  186 1    
   128   63  187 1    
   129   63  188 1    
   130   64   65 am   BACKBONE|DICT|INTERRES
   131   64  189 1    
   132   65   66 2    
   133   67   68 2    
   134   67   69 am   BACKBONE|DICT|INTERRES
   135   69   70 1    
   136   69  190 1    
   137   70   71 1    
   138   70   72 1    
   139   70  191 1    
   140   71  192 1    
   141   71  193 1    
   142   71  194 1    
   143   72   73 2    
   144   72   74 am   BACKBONE|DICT|INTERRES
   145   74   75 1    
   146   74  195 1    
   147   75   76 1    
   148   75   77 1    
   149   75  196 1    
   150   76  197 1    
   151   76  198 1    
   152   76  199 1    
   153   77   78 2    
   154   77   79 am   BACKBONE|DICT|INTERRES
   155   79   80 1    
   156   79  200 1    
   157   80   81 1    
   158   80   82 1    
   159   80  201 1    
   160   81  202 1    
   161   81  203 1    
   162   81  204 1    
   163   82   83 2    
   164   82   84 am   BACKBONE|DICT|INTERRES
   165   84   85 1    
   166   84  205 1    
   167   85   86 1    
   168   85   87 1    
   169   85  206 1    
   170   86  207 1    
   171   86  208 1    
   172   86  209 1    
   173   87   88 2    
   174   87   89 am   BACKBONE|DICT|INTERRES
   175   89   90 1    
   176   89  210 1    
   177   90   91 1    
   178   90   92 1    
   179   90  211 1    
   180   91  212 1    
   181   91  213 1    
   182   91  214 1    
   183   92   93 2    
   184   92   94 am   BACKBONE|DICT|INTERRES
   185   94   95 1    
   186   94  215 1    
   187   95   96 1    
   188   95   97 1    
   189   95  216 1    
   190   96  217 1    
   191   96  218 1    
   192   96  219 1    
   193   97   98 2    
   194   97   99 am   BACKBONE|DICT|INTERRES
   195   99  100 1    
   196   99  220 1    
   197  100  101 1    
   198  100  102 1    
   199  100  221 1    
   200  101  222 1    
   201  101  223 1    
   202  101  224 1    
   203  102  103 2    
   204  102  104 am   BACKBONE|DICT|INTERRES
   205  104  105 1    
   206  104  225 1    
   207  105  106 1    
   208  105  107 1    
   209  105  226 1    
   210  106  227 1    
   211  106  228 1    
   212  106  229 1    
   213  107  108 2    
   214  107  109 am   BACKBONE|DICT|INTERRES
   215  109  110 1    
   216  109  230 1    
   217  110  111 1    
   218  110  112 1    
   219  110  231 1    
   220  111  232 1    
   221  111  233 1    
   222  111  234 1    
   223  112  113 2    
   224  112  114 am   BACKBONE|DICT|INTERRES
   225  114  115 1    
   226  114  235 1    
   227  115  116 1    
   228  115  117 1    
   229  115  236 1    
   230  116  237 1    
   231  116  238 1    
   232  116  239 1    
   233  117  118 2    
   234  117  119 am   BACKBONE|DICT|INTERRES
   235  119  120 1    
   236  119  240 1    
   237  120  121 1    
   238  120  124 1    
   239  120  241 1    
   240  121  122 am   BACKBONE|DICT|INTERRES
   241  121  123 2    
   242  122  242 1    
   243  122  243 1    
   244  124  125 1    
   245  124  244 1    
   246  124  245 1    
   247  125  126 1    
   248  126  246 1    
   249  126  247 1    
@<TRIPOS>SUBSTRUCTURE
     1 UNK         1 GROUP             0       ****    0 ROOT    
