@<TRIPOS>MOLECULE
3R540
247   249    1
SMALL
USER_CHARGES


@<TRIPOS>ATOM
      1 CA         -4.1397  -16.8667  -48.4742 C.3       0 UNK        -0.1800 
      2 C          -3.2529  -15.9850  -47.6088 C.2       0 UNK         0.5000 
      3 O          -3.7554  -15.1209  -46.8904 O.2       0 UNK        -0.5000 
      4 N          -1.9356  -16.2193  -47.6427 N.am      1 UNK        -0.5000 
      5 CA         -0.9030  -15.4579  -46.9229 C.3       1 UNK         0.1400 
      6 C6          0.4638  -15.5212  -47.6502 C.3       23 UNK        -0.0398 
      7 S7          0.3589  -14.8508  -49.3455 S.3       23 UNK        -0.2404 
      8 C8          1.1997  -16.1349  -50.3262 C.3       23 UNK        -0.0205 
      9 C9          0.4957  -17.4861  -50.2952 C.ar      23 UNK        -0.0193 
     10 C10        -0.8323  -17.6112  -50.7179 C.ar      23 UNK        -0.1150 
     11 C11        -1.4570  -18.8621  -50.7377 C.ar      23 UNK        -0.0193 
     12 C12        -0.7460  -19.9905  -50.3196 C.ar      23 UNK        -0.1150 
     13 C13         0.5867  -19.8818  -49.9128 C.ar      23 UNK        -0.0193 
     14 C14         1.1983  -18.6263  -49.8942 C.ar      23 UNK        -0.1150 
     15 C15         1.3867  -21.1297  -49.5722 C.3       23 UNK        -0.0205 
     16 S16         1.7454  -21.2568  -47.7926 S.3       23 UNK        -0.2404 
     17 C17         1.4462  -23.0365  -47.5011 C.3       23 UNK        -0.0398 
     18 CA          0.1042  -23.4018  -46.8107 C.3       11 UNK         0.1400 
     19 N           0.1738  -23.3014  -45.3510 N.am      11 UNK        -0.5000 
     20 C          -0.5384  -24.0803  -44.5235 C.2       10 UNK         0.5000 
     21 O          -1.3108  -24.9593  -44.9078 O.2       10 UNK        -0.5000 
     22 CA         -0.3786  -23.8239  -43.0140 C.3       10 UNK         0.1400 
     23 CB          0.9040  -24.4822  -42.4835 C.3       10 UNK        -0.1800 
     24 N          -0.3730  -22.4027  -42.6686 N.am      10 UNK        -0.5000 
     25 C          -1.4113  -21.5752  -42.8471 C.2       9 UNK         0.5000 
     26 O          -2.4846  -21.9174  -43.3419 O.2       9 UNK        -0.5000 
     27 CA         -1.2062  -20.1071  -42.4357 C.3       9 UNK         0.1400 
     28 CB         -1.5643  -19.8965  -40.9579 C.3       9 UNK        -0.1800 
     29 N           0.1402  -19.5874  -42.6837 N.am      9 UNK        -0.5000 
     30 C           0.7619  -19.5489  -43.8706 C.2       8 UNK         0.5000 
     31 O           0.3050  -20.0688  -44.8894 O.2       8 UNK        -0.5000 
     32 CA          2.1049  -18.7920  -43.9126 C.3       8 UNK         0.1400 
     33 CB          2.5785  -18.4962  -45.3457 C.3       8 UNK        -0.1800 
     34 N           2.0238  -17.5257  -43.1840 N.am      8 UNK        -0.5000 
     35 C           2.3016  -17.3557  -41.8856 C.2       7 UNK         0.5000 
     36 O           2.5808  -18.2914  -41.1341 O.2       7 UNK        -0.5000 
     37 CA          2.2284  -15.9152  -41.3338 C.3       7 UNK         0.1400 
     38 CB          3.0631  -15.7224  -40.0513 C.3       7 UNK        -0.1800 
     39 N           2.5632  -14.8830  -42.3198 N.am      7 UNK        -0.5000 
     40 C           3.7109  -14.7269  -42.9975 C.2       6 UNK         0.5000 
     41 O           4.6854  -15.4717  -42.8882 O.2       6 UNK        -0.5000 
     42 CA          3.7904  -13.5191  -43.9456 C.3       6 UNK         0.1400 
     43 CB          3.0444  -13.8072  -45.2563 C.3       6 UNK        -0.1800 
     44 N           3.2192  -12.3242  -43.3245 N.am      6 UNK        -0.5000 
     45 C           3.8772  -11.1798  -43.0965 C.2       5 UNK         0.5000 
     46 O           5.0446  -10.9799  -43.4352 O.2       5 UNK        -0.5000 
     47 CA          3.1076  -10.0608  -42.3612 C.3       5 UNK         0.1400 
     48 CB          2.5130   -9.0670  -43.3710 C.3       5 UNK        -0.1800 
     49 N           2.0327  -10.5592  -41.5008 N.am      5 UNK        -0.5000 
     50 C           2.2126  -11.3055  -40.4028 C.2       4 UNK         0.5000 
     51 O           3.3203  -11.5621  -39.9301 O.2       4 UNK        -0.5000 
     52 CA          0.9543  -11.8858  -39.7236 C.3       4 UNK         0.1400 
     53 CB          0.6337  -11.1028  -38.4409 C.3       4 UNK        -0.1800 
     54 N          -0.2619  -11.9564  -40.5463 N.am      4 UNK        -0.5000 
     55 C          -0.3956  -12.5818  -41.7234 C.2       3 UNK         0.5000 
     56 O           0.5475  -13.0224  -42.3837 O.2       3 UNK        -0.5000 
     57 CA         -1.8269  -12.7173  -42.2704 C.3       3 UNK         0.1400 
     58 CB         -2.1370  -11.5645  -43.2367 C.3       3 UNK        -0.1800 
     59 N          -2.0272  -13.9876  -42.9696 N.am      3 UNK        -0.5000 
     60 C          -1.8942  -15.2092  -42.4305 C.2       2 UNK         0.5000 
     61 O          -1.6417  -15.4117  -41.2423 O.2       2 UNK        -0.5000 
     62 CA         -2.0877  -16.4145  -43.3695 C.3       2 UNK         0.1400 
     63 CB         -3.4686  -17.0495  -43.1419 C.3       2 UNK        -0.1800 
     64 N          -1.9565  -16.0700  -44.7850 N.am      2 UNK        -0.5000 
     65 C          -0.8025  -15.8522  -45.4279 C.2       1 UNK         0.5000 
     66 O           0.2966  -15.9453  -44.8796 O.2       1 UNK        -0.5000 
     67 C          -1.1216  -22.6416  -47.3585 C.2       11 UNK         0.5000 
     68 O          -1.7318  -23.1015  -48.3227 O.2       11 UNK        -0.5000 
     69 N          -1.4836  -21.5192  -46.7188 N.am      12 UNK        -0.5000 
     70 CA         -2.6418  -20.6935  -47.0593 C.3       12 UNK         0.1400 
     71 CB         -2.6079  -19.4110  -46.2204 C.3       12 UNK        -0.1800 
     72 C          -3.9825  -21.4237  -46.8711 C.2       12 UNK         0.5000 
     73 O          -4.8978  -21.2144  -47.6664 O.2       12 UNK        -0.5000 
     74 N          -4.0649  -22.2827  -45.8443 N.am      13 UNK        -0.5000 
     75 CA         -5.2126  -23.1506  -45.5771 C.3       13 UNK         0.1400 
     76 CB         -5.0475  -23.8032  -44.1963 C.3       13 UNK        -0.1800 
     77 C          -5.4176  -24.2263  -46.6606 C.2       13 UNK         0.5000 
     78 O          -6.5615  -24.5669  -46.9644 O.2       13 UNK        -0.5000 
     79 N          -4.3136  -24.7325  -47.2280 N.am      14 UNK        -0.5000 
     80 CA         -4.3251  -25.6657  -48.3535 C.3       14 UNK         0.1400 
     81 CB         -2.9858  -26.4187  -48.4127 C.3       14 UNK        -0.1800 
     82 C          -4.6032  -24.9411  -49.6816 C.2       14 UNK         0.5000 
     83 O          -5.3937  -25.4300  -50.4891 O.2       14 UNK        -0.5000 
     84 N          -3.9281  -23.7997  -49.8834 N.am      15 UNK        -0.5000 
     85 CA         -3.9452  -22.8783  -51.0261 C.3       15 UNK         0.1400 
     86 CB         -5.3412  -22.2721  -51.2490 C.3       15 UNK        -0.1800 
     87 C          -3.3685  -23.4708  -52.3239 C.2       15 UNK         0.5000 
     88 O          -2.5719  -22.8130  -52.9975 O.2       15 UNK        -0.5000 
     89 N          -3.7335  -24.7191  -52.6398 N.am      16 UNK        -0.5000 
     90 CA         -3.2150  -25.5273  -53.7486 C.3       16 UNK         0.1400 
     91 CB         -4.0324  -26.8239  -53.8382 C.3       16 UNK        -0.1800 
     92 C          -1.7082  -25.8362  -53.6357 C.2       16 UNK         0.5000 
     93 O          -1.0856  -26.2011  -54.6327 O.2       16 UNK        -0.5000 
     94 N          -1.1460  -25.6395  -52.4344 N.am      17 UNK        -0.5000 
     95 CA          0.2865  -25.6320  -52.1452 C.3       17 UNK         0.1400 
     96 CB          0.4747  -25.4866  -50.6261 C.3       17 UNK        -0.1800 
     97 C           1.0541  -24.5187  -52.8899 C.2       17 UNK         0.5000 
     98 O           2.2474  -24.6871  -53.1437 O.2       17 UNK        -0.5000 
     99 N           0.3645  -23.4200  -53.2309 N.am      18 UNK        -0.5000 
    100 CA         0.8937  -22.3243  -54.0363 C.3       18 UNK         0.1400 
    101 CB         0.6825  -20.9883  -53.3100 C.3       18 UNK        -0.1800 
    102 C          0.2357  -22.3063  -55.4217 C.2       18 UNK         0.5000 
    103 O          0.9414  -22.4636  -56.4193 O.2       18 UNK        -0.5000 
    104 N         -1.0877  -22.0922  -55.4703 N.am      19 UNK        -0.5000 
    105 CA        -1.8031  -21.8305  -56.7243 C.3       19 UNK         0.1400 
    106 CB        -1.5645  -20.3669  -57.1504 C.3       19 UNK        -0.1800 
    107 C         -3.3134  -22.1153  -56.6836 C.2       19 UNK         0.5000 
    108 O         -3.9322  -22.1139  -57.7485 O.2       19 UNK        -0.5000 
    109 N         -3.9057  -22.2925  -55.4921 N.am      20 UNK        -0.5000 
    110 CA        -5.3465  -22.4142  -55.2002 C.3       20 UNK         0.1400 
    111 CB        -5.9989  -23.6009  -55.9354 C.3       20 UNK        -0.1800 
    112 C         -6.1318  -21.1061  -55.4228 C.2       20 UNK         0.5000 
    113 O         -6.8633  -20.6728  -54.5316 O.2       20 UNK        -0.5000 
    114 N         -5.9132  -20.4638  -56.5769 N.am      21 UNK        -0.5000 
    115 CA        -6.4504  -19.1587  -56.9717 C.3       21 UNK         0.1400 
    116 CB        -6.0754  -18.9014  -58.4393 C.3       21 UNK        -0.1800 
    117 C         -5.9809  -17.9888  -56.0807 C.2       21 UNK         0.5000 
    118 O         -6.5874  -16.9176  -56.1216 O.2       21 UNK        -0.5000 
    119 N         -4.9277  -18.2159  -55.2851 N.am      22 UNK        -0.5000 
    120 CA        -4.4513  -17.3200  -54.2230 C.3       22 UNK         0.1400 
    121 C         -5.4391  -17.1376  -53.0292 C.2       22 UNK         0.5000 
    122 N         -6.4303  -18.0039  -52.8439 N.am      22 UNK        -0.7600 
    123 O         -5.3018  -16.1895  -52.2616 O.2       22 UNK        -0.5000 
    124 C124       -3.0356  -17.7313  -53.7382 C.3       23 UNK        -0.0398 
    125 S125       -2.9698  -19.4059  -53.0009 S.3       23 UNK        -0.2404 
    126 C126       -2.8911  -19.0061  -51.2246 C.3       23 UNK        -0.0205 
    127 H127       -5.0772  -17.0823  -47.9616 H         1 UNK         0.0600 
    128 H128       -4.3702  -16.3638  -49.4135 H         1 UNK         0.0600 
    129 H129       -3.6555  -17.8170  -48.6954 H         1 UNK         0.0600 
    130 H130       -1.5813  -16.9469  -48.2471 H         1 UNK         0.3000 
    131 H131       -1.2071  -14.4090  -46.9210 H         1 UNK         0.0600 
    132 H132        1.2125  -14.9324  -47.1212 H         1 UNK         0.0800 
    133 H133        0.8386  -16.5453  -47.6699 H         1 UNK         0.0800 
    134 H134        2.2290  -16.2236  -49.9750 H         1 UNK         0.0800 
    135 H135        1.2592  -15.7991  -51.3622 H         1 UNK         0.0800 
    136 H136       -1.3720  -16.7333  -51.0437 H         1 UNK         0.1150 
    137 H137       -1.2180  -20.9620  -50.3493 H         1 UNK         0.1150 
    138 H138        2.2324  -18.5457  -49.5895 H         1 UNK         0.1150 
    139 H139        2.3295  -21.1195  -50.1207 H         1 UNK         0.0800 
    140 H140        0.8460  -22.0109  -49.9200 H         1 UNK         0.0800 
    141 H141        2.2785  -23.4214  -46.9103 H         1 UNK         0.0800 
    142 H142        1.5194  -23.5680  -48.4500 H         1 UNK         0.0800 
    143 H143       -0.0678  -24.4530  -47.0544 H         1 UNK         0.0600 
    144 H144        0.7388  -22.5548  -44.9707 H         1 UNK         0.3000 
    145 H145       -1.2304  -24.2856  -42.5099 H         1 UNK         0.0600 
    146 H146        0.9196  -25.5483  -42.7142 H         1 UNK         0.0600 
    147 H147        0.9781  -24.3848  -41.4002 H         1 UNK         0.0600 
    148 H148        1.7981  -24.0381  -42.9228 H         1 UNK         0.0600 
    149 H149        0.4748  -22.0304  -42.2670 H         1 UNK         0.3000 
    150 H150       -1.8966  -19.5106  -43.0299 H         1 UNK         0.0600 
    151 H151       -0.8794  -20.4301  -40.2977 H         1 UNK         0.0600 
    152 H152       -2.5728  -20.2542  -40.7452 H         1 UNK         0.0600 
    153 H153       -1.5337  -18.8395  -40.6918 H         1 UNK         0.0600 
    154 H154        0.6189  -19.1714  -41.8958 H         1 UNK         0.3000 
    155 H155        2.8538  -19.4334  -43.4438 H         1 UNK         0.0600 
    156 H156        1.8115  -17.9870  -45.9293 H         1 UNK         0.0600 
    157 H157        2.8315  -19.4189  -45.8654 H         1 UNK         0.0600 
    158 H158        3.4722  -17.8719  -45.3480 H         1 UNK         0.0600 
    159 H159        1.6849  -16.7332  -43.7223 H         1 UNK         0.3000 
    160 H160        1.1827  -15.7483  -41.0721 H         1 UNK         0.0600 
    161 H161        4.1176  -15.9426  -40.2199 H         1 UNK         0.0600 
    162 H162        2.7146  -16.3791  -39.2534 H         1 UNK         0.0600 
    163 H163        2.9904  -14.6992  -39.6828 H         1 UNK         0.0600 
    164 H164        1.8109  -14.2184  -42.4943 H         1 UNK         0.3000 
    165 H165        4.8451  -13.3654  -44.1828 H         1 UNK         0.0600 
    166 H166        3.3740  -14.7472  -45.7012 H         1 UNK         0.0600 
    167 H167        1.9689  -13.8749  -45.0923 H         1 UNK         0.0600 
    168 H168        3.2195  -13.0187  -45.9882 H         1 UNK         0.0600 
    169 H169        2.2648  -12.4066  -42.9873 H         1 UNK         0.3000 
    170 H170        3.8234   -9.5260  -41.7334 H         1 UNK         0.0600 
    171 H171        2.0310   -8.2304  -42.8649 H         1 UNK         0.0600 
    172 H172        1.7726   -9.5433  -44.0151 H         1 UNK         0.0600 
    173 H173        3.2899   -8.6520  -44.0146 H         1 UNK         0.0600 
    174 H174        1.0875  -10.4017  -41.8169 H         1 UNK         0.3000 
    175 H175        1.2009  -12.9107  -39.4398 H         1 UNK         0.0600 
    176 H176        1.5011  -11.0559  -37.7809 H         1 UNK         0.0600 
    177 H177        0.3339  -10.0776  -38.6620 H         1 UNK         0.0600 
    178 H178       -0.1719  -11.5758  -37.8791 H         1 UNK         0.0600 
    179 H179       -1.0964  -11.5936  -40.1081 H         1 UNK         0.3000 
    180 H180       -2.5302  -12.6803  -41.4362 H         1 UNK         0.0600 
    181 H181       -1.4678  -11.5713  -44.0984 H         1 UNK         0.0600 
    182 H182       -2.0264  -10.5981  -42.7430 H         1 UNK         0.0600 
    183 H183       -3.1609  -11.6232  -43.6063 H         1 UNK         0.0600 
    184 H184       -2.2206  -13.9296  -43.9576 H         1 UNK         0.3000 
    185 H185       -1.3200  -17.1483  -43.1198 H         1 UNK         0.0600 
    186 H186       -3.5793  -17.3843  -42.1097 H         1 UNK         0.0600 
    187 H187       -4.2734  -16.3424  -43.3466 H         1 UNK         0.0600 
    188 H188       -3.6200  -17.9178  -43.7819 H         1 UNK         0.0600 
    189 H189       -2.8142  -15.9260  -45.3073 H         1 UNK         0.3000 
    190 H190       -0.8841  -21.1664  -45.9778 H         1 UNK         0.3000 
    191 H191       -2.5611  -20.4173  -48.1119 H         1 UNK         0.0600 
    192 H192       -1.7109  -18.8273  -46.4268 H         1 UNK         0.0600 
    193 H193       -3.4729  -18.7808  -46.4239 H         1 UNK         0.0600 
    194 H194       -2.6206  -19.6398  -45.1572 H         1 UNK         0.0600 
    195 H195       -3.2956  -22.3326  -45.1845 H         1 UNK         0.3000 
    196 H196       -6.1091  -22.5276  -45.5551 H         1 UNK         0.0600 
    197 H197       -5.8820  -24.4695  -43.9743 H         1 UNK         0.0600 
    198 H198       -5.0150  -23.0514  -43.4076 H         1 UNK         0.0600 
    199 H199       -4.1303  -24.3908  -44.1365 H         1 UNK         0.0600 
    200 H200       -3.4132  -24.3898  -46.9247 H         1 UNK         0.3000 
    201 H201       -5.1178  -26.4005  -48.1969 H         1 UNK         0.0600 
    202 H202       -2.9778  -27.1358  -49.2346 H         1 UNK         0.0600 
    203 H203       -2.8086  -26.9766  -47.4930 H         1 UNK         0.0600 
    204 H204       -2.1422  -25.7440  -48.5591 H         1 UNK         0.0600 
    205 H205       -3.2448  -23.5440  -49.1720 H         1 UNK         0.3000 
    206 H206       -3.2772  -22.0673  -50.7401 H         1 UNK         0.0600 
    207 H207       -5.3064  -21.4800  -51.9981 H         1 UNK         0.0600 
    208 H208       -6.0617  -23.0167  -51.5885 H         1 UNK         0.0600 
    209 H209       -5.7259  -21.8282  -50.3308 H         1 UNK         0.0600 
    210 H210       -4.4040  -25.1698  -52.0206 H         1 UNK         0.3000 
    211 H211       -3.3557  -24.9648  -54.6724 H         1 UNK         0.0600 
    212 H212       -3.6964  -27.4432  -54.6709 H         1 UNK         0.0600 
    213 H213       -5.0898  -26.6120  -53.9980 H         1 UNK         0.0600 
    214 H214       -3.9431  -27.4178  -52.9278 H         1 UNK         0.0600 
    215 H215       -1.7540  -25.3601  -51.6800 H         1 UNK         0.3000 
    216 H216        0.7015  -26.5916  -52.4599 H         1 UNK         0.0600 
    217 H217        0.0153  -26.3172  -50.0900 H         1 UNK         0.0600 
    218 H218        0.0321  -24.5617  -50.2535 H         1 UNK         0.0600 
    219 H219        1.5328  -25.4763  -50.3615 H         1 UNK         0.0600 
    220 H220       -0.6241  -23.3738  -53.0124 H         1 UNK         0.3000 
    221 H221        1.9682  -22.4416  -54.1920 H         1 UNK         0.0600 
    222 H222       -0.3514  -20.8576  -52.9929 H         1 UNK         0.0600 
    223 H223        1.3173  -20.9274  -52.4286 H         1 UNK         0.0600 
    224 H224        0.9405  -20.1430  -53.9491 H         1 UNK         0.0600 
    225 H225       -1.6037  -22.0080  -54.6025 H         1 UNK         0.3000 
    226 H226       -1.4031  -22.4873  -57.4998 H         1 UNK         0.0600 
    227 H227       -0.5078  -20.1695  -57.3306 H         1 UNK         0.0600 
    228 H228       -2.0935  -20.1293  -58.0744 H         1 UNK         0.0600 
    229 H229       -1.9087  -19.6690  -56.3861 H         1 UNK         0.0600 
    230 H230       -3.3222  -22.2874  -54.6625 H         1 UNK         0.3000 
    231 H231       -5.4174  -22.6321  -54.1362 H         1 UNK         0.0600 
    232 H232       -6.0350  -23.4511  -57.0144 H         1 UNK         0.0600 
    233 H233       -7.0258  -23.7443  -55.5972 H         1 UNK         0.0600 
    234 H234       -5.4638  -24.5300  -55.7439 H         1 UNK         0.0600 
    235 H235       -5.2823  -20.9143  -57.2351 H         1 UNK         0.3000 
    236 H236       -7.5383  -19.2086  -56.8951 H         1 UNK         0.0600 
    237 H237       -4.9936  -18.8673  -58.5760 H         1 UNK         0.0600 
    238 H238       -6.4711  -19.6813  -59.0902 H         1 UNK         0.0600 
    239 H239       -6.4819  -17.9512  -58.7883 H         1 UNK         0.0600 
    240 H240       -4.5020  -19.1296  -55.3099 H         1 UNK         0.3000 
    241 H241       -4.3552  -16.3308  -54.6745 H         1 UNK         0.0600 
    242 H242       -6.5456  -18.8029  -53.4546 H         1 UNK         0.3800 
    243 H243       -7.0641  -17.8705  -52.0726 H         1 UNK         0.3800 
    244 H244       -2.3444  -17.7146  -54.5817 H         1 UNK         0.0800 
    245 H245       -2.6456  -16.9949  -53.0351 H         1 UNK         0.0800 
    246 H246       -3.4521  -18.0925  -51.0307 H         1 UNK         0.0800 
    247 H247       -3.3973  -19.7868  -50.6576 H         1 UNK         0.0800 
@<TRIPOS>BOND
     1    1    2 1    
     2    1  127 1    
     3    1  128 1    
     4    1  129 1    
     5    2    3 2    
     6    2    4 am   BACKBONE|DICT|INTERRES
     7    4    5 1    
     8    4  130 1    
     9    5    6 1    
    10    5   65 1    
    11    5  131 1    
    12    6    7 1    
    13    6  132 1    
    14    6  133 1    
    15    7    8 1    
    16    8    9 1    
    17    8  134 1    
    18    8  135 1    
    19    9   10 ar   
    20    9   14 ar   
    21   10   11 ar   
    22   10  136 1    
    23   11   12 ar   
    24   11  126 1    
    25   12   13 ar   
    26   12  137 1    
    27   13   14 ar   
    28   13   15 1    
    29   14  138 1    
    30   15   16 1    
    31   15  139 1    
    32   15  140 1    
    33   16   17 1    
    34   17   18 1    
    35   17  141 1    
    36   17  142 1    
    37   18   19 1    
    38   18   67 1    
    39   18  143 1    
    40   19   20 am   BACKBONE|DICT|INTERRES
    41   19  144 1    
    42   20   21 2    
    43   20   22 1    
    44   22   23 1    
    45   22   24 1    
    46   22  145 1    
    47   23  146 1    
    48   23  147 1    
    49   23  148 1    
    50   24   25 am   BACKBONE|DICT|INTERRES
    51   24  149 1    
    52   25   26 2    
    53   25   27 1    
    54   27   28 1    
    55   27   29 1    
    56   27  150 1    
    57   28  151 1    
    58   28  152 1    
    59   28  153 1    
    60   29   30 am   BACKBONE|DICT|INTERRES
    61   29  154 1    
    62   30   31 2    
    63   30   32 1    
    64   32   33 1    
    65   32   34 1    
    66   32  155 1    
    67   33  156 1    
    68   33  157 1    
    69   33  158 1    
    70   34   35 am   BACKBONE|DICT|INTERRES
    71   34  159 1    
    72   35   36 2    
    73   35   37 1    
    74   37   38 1    
    75   37   39 1    
    76   37  160 1    
    77   38  161 1    
    78   38  162 1    
    79   38  163 1    
    80   39   40 am   BACKBONE|DICT|INTERRES
    81   39  164 1    
    82   40   41 2    
    83   40   42 1    
    84   42   43 1    
    85   42   44 1    
    86   42  165 1    
    87   43  166 1    
    88   43  167 1    
    89   43  168 1    
    90   44   45 am   BACKBONE|DICT|INTERRES
    91   44  169 1    
    92   45   46 2    
    93   45   47 1    
    94   47   48 1    
    95   47   49 1    
    96   47  170 1    
    97   48  171 1    
    98   48  172 1    
    99   48  173 1    
   100   49   50 am   BACKBONE|DICT|INTERRES
   101   49  174 1    
   102   50   51 2    
   103   50   52 1    
   104   52   53 1    
   105   52   54 1    
   106   52  175 1    
   107   53  176 1    
   108   53  177 1    
   109   53  178 1    
   110   54   55 am   BACKBONE|DICT|INTERRES
   111   54  179 1    
   112   55   56 2    
   113   55   57 1    
   114   57   58 1    
   115   57   59 1    
   116   57  180 1    
   117   58  181 1    
   118   58  182 1    
   119   58  183 1    
   120   59   60 am   BACKBONE|DICT|INTERRES
   121   59  184 1    
   122   60   61 2    
   123   60   62 1    
   124   62   63 1    
   125   62   64 1    
   126   62  185 1    
   127   63  186 1    
   128   63  187 1    
   129   63  188 1    
   130   64   65 am   BACKBONE|DICT|INTERRES
   131   64  189 1    
   132   65   66 2    
   133   67   68 2    
   134   67   69 am   BACKBONE|DICT|INTERRES
   135   69   70 1    
   136   69  190 1    
   137   70   71 1    
   138   70   72 1    
   139   70  191 1    
   140   71  192 1    
   141   71  193 1    
   142   71  194 1    
   143   72   73 2    
   144   72   74 am   BACKBONE|DICT|INTERRES
   145   74   75 1    
   146   74  195 1    
   147   75   76 1    
   148   75   77 1    
   149   75  196 1    
   150   76  197 1    
   151   76  198 1    
   152   76  199 1    
   153   77   78 2    
   154   77   79 am   BACKBONE|DICT|INTERRES
   155   79   80 1    
   156   79  200 1    
   157   80   81 1    
   158   80   82 1    
   159   80  201 1    
   160   81  202 1    
   161   81  203 1    
   162   81  204 1    
   163   82   83 2    
   164   82   84 am   BACKBONE|DICT|INTERRES
   165   84   85 1    
   166   84  205 1    
   167   85   86 1    
   168   85   87 1    
   169   85  206 1    
   170   86  207 1    
   171   86  208 1    
   172   86  209 1    
   173   87   88 2    
   174   87   89 am   BACKBONE|DICT|INTERRES
   175   89   90 1    
   176   89  210 1    
   177   90   91 1    
   178   90   92 1    
   179   90  211 1    
   180   91  212 1    
   181   91  213 1    
   182   91  214 1    
   183   92   93 2    
   184   92   94 am   BACKBONE|DICT|INTERRES
   185   94   95 1    
   186   94  215 1    
   187   95   96 1    
   188   95   97 1    
   189   95  216 1    
   190   96  217 1    
   191   96  218 1    
   192   96  219 1    
   193   97   98 2    
   194   97   99 am   BACKBONE|DICT|INTERRES
   195   99  100 1    
   196   99  220 1    
   197  100  101 1    
   198  100  102 1    
   199  100  221 1    
   200  101  222 1    
   201  101  223 1    
   202  101  224 1    
   203  102  103 2    
   204  102  104 am   BACKBONE|DICT|INTERRES
   205  104  105 1    
   206  104  225 1    
   207  105  106 1    
   208  105  107 1    
   209  105  226 1    
   210  106  227 1    
   211  106  228 1    
   212  106  229 1    
   213  107  108 2    
   214  107  109 am   BACKBONE|DICT|INTERRES
   215  109  110 1    
   216  109  230 1    
   217  110  111 1    
   218  110  112 1    
   219  110  231 1    
   220  111  232 1    
   221  111  233 1    
   222  111  234 1    
   223  112  113 2    
   224  112  114 am   BACKBONE|DICT|INTERRES
   225  114  115 1    
   226  114  235 1    
   227  115  116 1    
   228  115  117 1    
   229  115  236 1    
   230  116  237 1    
   231  116  238 1    
   232  116  239 1    
   233  117  118 2    
   234  117  119 am   BACKBONE|DICT|INTERRES
   235  119  120 1    
   236  119  240 1    
   237  120  121 1    
   238  120  124 1    
   239  120  241 1    
   240  121  122 am   BACKBONE|DICT|INTERRES
   241  121  123 2    
   242  122  242 1    
   243  122  243 1    
   244  124  125 1    
   245  124  244 1    
   246  124  245 1    
   247  125  126 1    
   248  126  246 1    
   249  126  247 1    
@<TRIPOS>SUBSTRUCTURE
     1 UNK         1 GROUP             0       ****    0 ROOT    
