@<TRIPOS>MOLECULE
3R540
247   249    1
SMALL
USER_CHARGES


@<TRIPOS>ATOM
      1 CA         -3.4492  -13.5407  -44.0134 C.3       0 UNK        -0.1800 
      2 C          -2.8124  -13.5225  -45.3954 C.2       0 UNK         0.5000 
      3 O          -2.9712  -12.5485  -46.1326 O.2       0 UNK        -0.5000 
      4 N          -2.0924  -14.5918  -45.7538 N.am      1 UNK        -0.5000 
      5 CA         -1.4115  -14.7667  -47.0396 C.3       1 UNK         0.1400 
      6 C6         -1.1746  -16.2611  -47.3642 C.3       23 UNK        -0.0398 
      7 S7         -2.7191  -17.1596  -47.7399 S.3       23 UNK        -0.2404 
      8 C8         -2.7052  -17.1796  -49.5722 C.3       23 UNK        -0.0205 
      9 C9         -1.4268  -17.7473  -50.1901 C.ar      23 UNK        -0.0193 
     10 C10        -0.9010  -17.1626  -51.3447 C.ar      23 UNK        -0.1150 
     11 C11         0.2939  -17.6306  -51.8973 C.ar      23 UNK        -0.0193 
     12 C12         0.9717  -18.6860  -51.2837 C.ar      23 UNK        -0.1150 
     13 C13         0.4702  -19.2781  -50.1212 C.ar      23 UNK        -0.0193 
     14 C14        -0.7477  -18.8208  -49.6032 C.ar      23 UNK        -0.1150 
     15 C15         1.2729  -20.3939  -49.4505 C.3       23 UNK        -0.0205 
     16 S16         1.2887  -20.3219  -47.6244 S.3       23 UNK        -0.2404 
     17 C17        -0.2419  -21.2264  -47.2150 C.3       23 UNK        -0.0398 
     18 CA          0.0296  -22.5633  -46.4902 C.3       11 UNK         0.1400 
     19 N           0.5823  -22.3609  -45.1521 N.am      11 UNK        -0.5000 
     20 C           1.3182  -23.2600  -44.4878 C.2       10 UNK         0.5000 
     21 O           1.6752  -24.3386  -44.9614 O.2       10 UNK        -0.5000 
     22 CA          1.6979  -22.9016  -43.0381 C.3       10 UNK         0.1400 
     23 CB          3.0290  -22.1365  -43.0037 C.3       10 UNK        -0.1800 
     24 N           0.6706  -22.1113  -42.3545 N.am      10 UNK        -0.5000 
     25 C          -0.5468  -22.5699  -42.0321 C.2       9 UNK         0.5000 
     26 O          -0.9316  -23.7150  -42.2712 O.2       9 UNK        -0.5000 
     27 CA         -1.5104  -21.5663  -41.3700 C.3       9 UNK         0.1400 
     28 CB         -1.2527  -21.4932  -39.8577 C.3       9 UNK        -0.1800 
     29 N          -1.4637  -20.2110  -41.9277 N.am      9 UNK        -0.5000 
     30 C          -1.6165  -19.8690  -43.2134 C.2       8 UNK         0.5000 
     31 O          -1.7218  -20.6910  -44.1218 O.2       8 UNK        -0.5000 
     32 CA         -1.6354  -18.3702  -43.5712 C.3       8 UNK         0.1400 
     33 CB         -3.0806  -17.8617  -43.7198 C.3       8 UNK        -0.1800 
     34 N          -0.8423  -17.4982  -42.6922 N.am      8 UNK        -0.5000 
     35 C          -1.0216  -17.1934  -41.3967 C.2       7 UNK         0.5000 
     36 O          -1.9370  -17.6499  -40.7121 O.2       7 UNK        -0.5000 
     37 CA          0.0192  -16.2703  -40.7268 C.3       7 UNK         0.1400 
     38 CB          0.9169  -17.0851  -39.7818 C.3       7 UNK        -0.1800 
     39 N           0.8728  -15.5587  -41.6793 N.am      7 UNK        -0.5000 
     40 C           0.4829  -14.5252  -42.4371 C.2       6 UNK         0.5000 
     41 O          -0.6225  -13.9930  -42.3461 O.2       6 UNK        -0.5000 
     42 CA          1.4806  -14.0191  -43.4990 C.3       6 UNK         0.1400 
     43 CB          2.2030  -12.7569  -43.0062 C.3       6 UNK        -0.1800 
     44 N           2.4799  -15.0033  -43.9357 N.am      6 UNK        -0.5000 
     45 C           2.2089  -16.1901  -44.4955 C.2       5 UNK         0.5000 
     46 O           1.0699  -16.6404  -44.6246 O.2       5 UNK        -0.5000 
     47 CA          3.4074  -17.0162  -44.9902 C.3       5 UNK         0.1400 
     48 CB          3.2721  -18.4937  -44.5838 C.3       5 UNK        -0.1800 
     49 N           3.5066  -16.9279  -46.4438 N.am      5 UNK        -0.5000 
     50 C           3.9549  -15.8590  -47.1155 C.2       4 UNK         0.5000 
     51 O           4.4302  -14.8630  -46.5657 O.2       4 UNK        -0.5000 
     52 CA          3.8712  -15.8966  -48.6514 C.3       4 UNK         0.1400 
     53 CB          3.3008  -17.2064  -49.2302 C.3       4 UNK        -0.1800 
     54 N           3.0524  -14.7754  -49.0971 N.am      4 UNK        -0.5000 
     55 C           3.2563  -14.0531  -50.2058 C.2       3 UNK         0.5000 
     56 O           4.1839  -14.2609  -50.9893 O.2       3 UNK        -0.5000 
     57 CA          2.2588  -12.9141  -50.5166 C.3       3 UNK         0.1400 
     58 CB          1.3080  -13.3366  -51.6486 C.3       3 UNK        -0.1800 
     59 N           1.4522  -12.5021  -49.3670 N.am      3 UNK        -0.5000 
     60 C           1.9038  -11.8395  -48.2932 C.2       2 UNK         0.5000 
     61 O           3.0436  -11.3820  -48.2058 O.2       2 UNK        -0.5000 
     62 CA          0.9279  -11.6822  -47.1043 C.3       2 UNK         0.1400 
     63 CB          0.3696  -10.2524  -47.0484 C.3       2 UNK        -0.1800 
     64 N          -0.1968  -12.6285  -47.0931 N.am      2 UNK        -0.5000 
     65 C          -0.0948  -13.9638  -47.0711 C.2       1 UNK         0.5000 
     66 O           0.9858  -14.5499  -47.0866 O.2       1 UNK        -0.5000 
     67 C          -1.2547  -23.4100  -46.4151 C.2       11 UNK         0.5000 
     68 O          -1.4458  -24.2967  -47.2470 O.2       11 UNK        -0.5000 
     69 N          -2.1118  -23.1375  -45.4206 N.am      12 UNK        -0.5000 
     70 CA         -3.3774  -23.8332  -45.1724 C.3       12 UNK         0.1400 
     71 CB         -4.1286  -23.1451  -44.0246 C.3       12 UNK        -0.1800 
     72 C          -3.2022  -25.3334  -44.8844 C.2       12 UNK         0.5000 
     73 O          -4.0355  -26.1290  -45.3162 O.2       12 UNK        -0.5000 
     74 N          -2.0875  -25.7005  -44.2375 N.am      13 UNK        -0.5000 
     75 CA         -1.6570  -27.0829  -44.0089 C.3       13 UNK         0.1400 
     76 CB         -0.3876  -27.0689  -43.1439 C.3       13 UNK        -0.1800 
     77 C          -1.4169  -27.8902  -45.3044 C.2       13 UNK         0.5000 
     78 O          -1.5388  -29.1153  -45.2812 O.2       13 UNK        -0.5000 
     79 N          -1.1041  -27.1947  -46.4060 N.am      14 UNK        -0.5000 
     80 CA         -0.9316  -27.7537  -47.7479 C.3       14 UNK         0.1400 
     81 CB          0.3586  -27.1657  -48.3458 C.3       14 UNK        -0.1800 
     82 C          -2.1394  -27.4554  -48.6628 C.2       14 UNK         0.5000 
     83 O          -2.0863  -27.7857  -49.8477 O.2       14 UNK        -0.5000 
     84 N          -3.1827  -26.8058  -48.1189 N.am      15 UNK        -0.5000 
     85 CA         -4.3772  -26.2738  -48.7918 C.3       15 UNK         0.1400 
     86 CB         -5.2103  -27.4027  -49.4309 C.3       15 UNK        -0.1800 
     87 C          -4.0878  -25.1264  -49.7866 C.2       15 UNK         0.5000 
     88 O          -4.9793  -24.7249  -50.5364 O.2       15 UNK        -0.5000 
     89 N          -2.8670  -24.5772  -49.7583 N.am      16 UNK        -0.5000 
     90 CA         -2.4102  -23.5131  -50.6496 C.3       16 UNK         0.1400 
     91 CB         -0.8778  -23.4502  -50.6176 C.3       16 UNK        -0.1800 
     92 C          -3.0358  -22.1481  -50.3157 C.2       16 UNK         0.5000 
     93 O          -3.2045  -21.3283  -51.2169 O.2       16 UNK        -0.5000 
     94 N          -3.4200  -21.9467  -49.0456 N.am      17 UNK        -0.5000 
     95 CA         -4.1454  -20.7578  -48.5890 C.3       17 UNK         0.1400 
     96 CB         -4.1660  -20.7118  -47.0542 C.3       17 UNK        -0.1800 
     97 C          -5.5816  -20.6891  -49.1408 C.2       17 UNK         0.5000 
     98 O          -6.0943  -19.5922  -49.3598 O.2       17 UNK        -0.5000 
     99 N          -6.1977  -21.8598  -49.3621 N.am      18 UNK        -0.5000 
    100 CA        -7.5177  -21.9900  -49.9771 C.3       18 UNK         0.1400 
    101 CB        -8.1221  -23.3547  -49.6111 C.3       18 UNK        -0.1800 
    102 C         -7.4555  -21.8070  -51.5038 C.2       18 UNK         0.5000 
    103 O         -8.3887  -21.2494  -52.0823 O.2       18 UNK        -0.5000 
    104 N         -6.3588  -22.2681  -52.1239 N.am      19 UNK        -0.5000 
    105 CA        -6.0784  -22.0957  -53.5488 C.3       19 UNK         0.1400 
    106 CB        -4.9230  -23.0202  -53.9650 C.3       19 UNK        -0.1800 
    107 C         -5.7769  -20.6272  -53.9012 C.2       19 UNK         0.5000 
    108 O         -6.4296  -20.0753  -54.7881 O.2       19 UNK        -0.5000 
    109 N         -4.8207  -20.0268  -53.1744 N.am      20 UNK        -0.5000 
    110 CA        -4.3604  -18.6392  -53.2721 C.3       20 UNK         0.1400 
    111 CB        -5.3949  -17.6960  -52.6195 C.3       20 UNK        -0.1800 
    112 C         -3.9586  -18.2463  -54.7124 C.2       20 UNK         0.5000 
    113 O         -3.0485  -18.8625  -55.2676 O.2       20 UNK        -0.5000 
    114 N         -4.6291  -17.2340  -55.2825 N.am      21 UNK        -0.5000 
    115 CA        -4.4683  -16.6434  -56.6197 C.3       21 UNK         0.1400 
    116 CB        -4.6091  -17.6939  -57.7386 C.3       21 UNK        -0.1800 
    117 C         -3.1887  -15.8014  -56.7882 C.2       21 UNK         0.5000 
    118 O         -3.2627  -14.7016  -57.3386 O.2       21 UNK        -0.5000 
    119 N         -2.0522  -16.3050  -56.2977 N.am      22 UNK        -0.5000 
    120 CA        -0.7912  -15.5643  -56.1493 C.3       22 UNK         0.1400 
    121 C         -0.8691  -14.4364  -55.0786 C.2       22 UNK         0.5000 
    122 N         -0.0228  -13.4206  -55.1830 N.am      22 UNK        -0.7600 
    123 O         -1.6610  -14.4839  -54.1394 O.2       22 UNK        -0.5000 
    124 C124        0.4163  -16.5133  -55.9093 C.3       23 UNK        -0.0398 
    125 S125        0.1416  -17.7852  -54.6272 S.3       23 UNK        -0.2404 
    126 C126        0.8501  -16.9913  -53.1562 C.3       23 UNK        -0.0205 
    127 H127       -4.5341  -13.4801  -44.0982 H         1 UNK         0.0600 
    128 H128       -3.1019  -12.6875  -43.4307 H         1 UNK         0.0600 
    129 H129       -3.1998  -14.4478  -43.4627 H         1 UNK         0.0600 
    130 H130       -1.9702  -15.3468  -45.0955 H         1 UNK         0.3000 
    131 H131       -2.0443  -14.3572  -47.8302 H         1 UNK         0.0600 
    132 H132       -0.4860  -16.3644  -48.2028 H         1 UNK         0.0800 
    133 H133       -0.6853  -16.7632  -46.5297 H         1 UNK         0.0800 
    134 H134       -3.5571  -17.7583  -49.9300 H         1 UNK         0.0800 
    135 H135       -2.8651  -16.1575  -49.9190 H         1 UNK         0.0800 
    136 H136       -1.4173  -16.3377  -51.8167 H         1 UNK         0.1150 
    137 H137        1.9015  -19.0376  -51.7084 H         1 UNK         0.1150 
    138 H138       -1.1579  -19.2644  -48.7121 H         1 UNK         0.1150 
    139 H139        0.9078  -21.3619  -49.7874 H         1 UNK         0.0800 
    140 H140        2.3123  -20.3383  -49.7777 H         1 UNK         0.0800 
    141 H141       -0.8040  -21.4034  -48.1316 H         1 UNK         0.0800 
    142 H142       -0.8596  -20.5692  -46.6031 H         1 UNK         0.0800 
    143 H143        0.7490  -23.1282  -47.0876 H         1 UNK         0.0600 
    144 H144        0.2863  -21.5238  -44.6696 H         1 UNK         0.3000 
    145 H145        1.8260  -23.8371  -42.4891 H         1 UNK         0.0600 
    146 H146        3.8239  -22.7152  -43.4760 H         1 UNK         0.0600 
    147 H147        3.3416  -21.9316  -41.9797 H         1 UNK         0.0600 
    148 H148        2.9588  -21.1855  -43.5316 H         1 UNK         0.0600 
    149 H149        0.9002  -21.1551  -42.1280 H         1 UNK         0.3000 
    150 H150       -2.5247  -21.9381  -41.5190 H         1 UNK         0.0600 
    151 H151       -0.2691  -21.0769  -39.6366 H         1 UNK         0.0600 
    152 H152       -1.3013  -22.4839  -39.4034 H         1 UNK         0.0600 
    153 H153       -1.9981  -20.8720  -39.3607 H         1 UNK         0.0600 
    154 H154       -1.4540  -19.4477  -41.2594 H         1 UNK         0.3000 
    155 H155       -1.1654  -18.2943  -44.5529 H         1 UNK         0.0600 
    156 H156       -3.6316  -17.9153  -42.7806 H         1 UNK         0.0600 
    157 H157       -3.6271  -18.4574  -44.4524 H         1 UNK         0.0600 
    158 H158       -3.1033  -16.8294  -44.0649 H         1 UNK         0.0600 
    159 H159       -0.0410  -17.0848  -43.1625 H         1 UNK         0.3000 
    160 H160       -0.5284  -15.5354  -40.1331 H         1 UNK         0.0600 
    161 H161        1.4924  -17.8379  -40.3221 H         1 UNK         0.0600 
    162 H162        0.3239  -17.6047  -39.0278 H         1 UNK         0.0600 
    163 H163        1.6190  -16.4413  -39.2518 H         1 UNK         0.0600 
    164 H164        1.8031  -15.9246  -41.8173 H         1 UNK         0.3000 
    165 H165        0.8910  -13.7459  -44.3742 H         1 UNK         0.0600 
    166 H166        2.8253  -12.3268  -43.7914 H         1 UNK         0.0600 
    167 H167        1.4889  -11.9895  -42.7039 H         1 UNK         0.0600 
    168 H168        2.8413  -12.9690  -42.1477 H         1 UNK         0.0600 
    169 H169        3.4434  -14.7020  -43.8995 H         1 UNK         0.3000 
    170 H170        4.3236  -16.6248  -44.5431 H         1 UNK         0.0600 
    171 H171        4.1404  -19.0711  -44.9016 H         1 UNK         0.0600 
    172 H172        2.3863  -18.9571  -45.0205 H         1 UNK         0.0600 
    173 H173        3.1935  -18.5934  -43.5005 H         1 UNK         0.0600 
    174 H174        3.0891  -17.6849  -46.9653 H         1 UNK         0.3000 
    175 H175        4.8935  -15.7749  -49.0151 H         1 UNK         0.0600 
    176 H176        3.8900  -18.0716  -48.9241 H         1 UNK         0.0600 
    177 H177        2.2697  -17.3676  -48.9131 H         1 UNK         0.0600 
    178 H178        3.3106  -17.1844  -50.3199 H         1 UNK         0.0600 
    179 H179        2.2965  -14.5231  -48.4646 H         1 UNK         0.3000 
    180 H180        2.8384  -12.0532  -50.8557 H         1 UNK         0.0600 
    181 H181        0.6866  -14.1839  -51.3552 H         1 UNK         0.0600 
    182 H182        1.8637  -13.6308  -52.5400 H         1 UNK         0.0600 
    183 H183        0.6464  -12.5193  -51.9356 H         1 UNK         0.0600 
    184 H184        0.4972  -12.8259  -49.3504 H         1 UNK         0.3000 
    185 H185        1.5068  -11.8578  -46.1954 H         1 UNK         0.0600 
    186 H186        1.1749   -9.5173  -47.0182 H         1 UNK         0.0600 
    187 H187       -0.2475  -10.0291  -47.9195 H         1 UNK         0.0600 
    188 H188       -0.2397  -10.1013  -46.1570 H         1 UNK         0.0600 
    189 H189       -1.1279  -12.2308  -47.0249 H         1 UNK         0.3000 
    190 H190       -1.9062  -22.3497  -44.8090 H         1 UNK         0.3000 
    191 H191       -3.9812  -23.7460  -46.0772 H         1 UNK         0.0600 
    192 H192       -4.2475  -22.0769  -44.2068 H         1 UNK         0.0600 
    193 H193       -5.1262  -23.5689  -43.9041 H         1 UNK         0.0600 
    194 H194       -3.6061  -23.2684  -43.0769 H         1 UNK         0.0600 
    195 H195       -1.4926  -24.9721  -43.8573 H         1 UNK         0.3000 
    196 H196       -2.4480  -27.5878  -43.4510 H         1 UNK         0.0600 
    197 H197       -0.0475  -28.0827  -42.9292 H         1 UNK         0.0600 
    198 H198       -0.5674  -26.5773  -42.1876 H         1 UNK         0.0600 
    199 H199        0.4299  -26.5450  -43.6408 H         1 UNK         0.0600 
    200 H200       -1.0426  -26.1853  -46.3436 H         1 UNK         0.3000 
    201 H201       -0.8222  -28.8387  -47.6991 H         1 UNK         0.0600 
    202 H202        0.5689  -27.5921  -49.3274 H         1 UNK         0.0600 
    203 H203        1.2189  -27.3783  -47.7109 H         1 UNK         0.0600 
    204 H204        0.2913  -26.0836  -48.4655 H         1 UNK         0.0600 
    205 H205       -3.1443  -26.6151  -47.1245 H         1 UNK         0.3000 
    206 H206       -4.9855  -25.8302  -48.0026 H         1 UNK         0.0600 
    207 H207       -5.4157  -28.1962  -48.7124 H         1 UNK         0.0600 
    208 H208       -6.1725  -27.0274  -49.7815 H         1 UNK         0.0600 
    209 H209       -4.7045  -27.8470  -50.2883 H         1 UNK         0.0600 
    210 H210       -2.2129  -24.8899  -49.0496 H         1 UNK         0.3000 
    211 H211       -2.7116  -23.7699  -51.6669 H         1 UNK         0.0600 
    212 H212       -0.5006  -23.2734  -49.6114 H         1 UNK         0.0600 
    213 H213       -0.5067  -22.6524  -51.2622 H         1 UNK         0.0600 
    214 H214       -0.4417  -24.3837  -50.9737 H         1 UNK         0.0600 
    215 H215       -3.2577  -22.6818  -48.3740 H         1 UNK         0.3000 
    216 H216       -3.6076  -19.8808  -48.9485 H         1 UNK         0.0600 
    217 H217       -4.6378  -19.7934  -46.7023 H         1 UNK         0.0600 
    218 H218       -3.1618  -20.7311  -46.6364 H         1 UNK         0.0600 
    219 H219       -4.7273  -21.5457  -46.6340 H         1 UNK         0.0600 
    220 H220       -5.6981  -22.7170  -49.1796 H         1 UNK         0.3000 
    221 H221       -8.1713  -21.2139  -49.5727 H         1 UNK         0.0600 
    222 H222       -7.5296  -24.1814  -50.0032 H         1 UNK         0.0600 
    223 H223       -8.1955  -23.4768  -48.5304 H         1 UNK         0.0600 
    224 H224       -9.1291  -23.4541  -50.0182 H         1 UNK         0.0600 
    225 H225       -5.6636  -22.7565  -51.5762 H         1 UNK         0.3000 
    226 H226       -6.9668  -22.4001  -54.1064 H         1 UNK         0.0600 
    227 H227       -4.7424  -22.9545  -55.0385 H         1 UNK         0.0600 
    228 H228       -3.9919  -22.7601  -53.4622 H         1 UNK         0.0600 
    229 H229       -5.1480  -24.0619  -53.7349 H         1 UNK         0.0600 
    230 H230       -4.3194  -20.5867  -52.4877 H         1 UNK         0.3000 
    231 H231       -3.4456  -18.5823  -52.6796 H         1 UNK         0.0600 
    232 H232       -6.3533  -17.7142  -53.1398 H         1 UNK         0.0600 
    233 H233       -5.0367  -16.6659  -52.6010 H         1 UNK         0.0600 
    234 H234       -5.5811  -17.9847  -51.5851 H         1 UNK         0.0600 
    235 H235       -5.3456  -16.7973  -54.7200 H         1 UNK         0.3000 
    236 H236       -5.3060  -15.9524  -56.7263 H         1 UNK         0.0600 
    237 H237       -5.5318  -18.2641  -57.6299 H         1 UNK         0.0600 
    238 H238       -4.6353  -17.2140  -58.7175 H         1 UNK         0.0600 
    239 H239       -3.7777  -18.3989  -57.7476 H         1 UNK         0.0600 
    240 H240       -2.0894  -17.2168  -55.8529 H         1 UNK         0.3000 
    241 H241       -0.6145  -15.0631  -57.1031 H         1 UNK         0.0600 
    242 H242        0.6351  -13.3510  -55.9439 H         1 UNK         0.3800 
    243 H243       -0.0615  -12.6845  -54.4961 H         1 UNK         0.3800 
    244 H244        1.3261  -15.9533  -55.6859 H         1 UNK         0.0800 
    245 H245        0.6296  -17.0452  -56.8373 H         1 UNK         0.0800 
    246 H246        1.9378  -17.0733  -53.1832 H         1 UNK         0.0800 
    247 H247        0.6216  -15.9261  -53.1530 H         1 UNK         0.0800 
@<TRIPOS>BOND
     1    1    2 1    
     2    1  127 1    
     3    1  128 1    
     4    1  129 1    
     5    2    3 2    
     6    2    4 am   BACKBONE|DICT|INTERRES
     7    4    5 1    
     8    4  130 1    
     9    5    6 1    
    10    5   65 1    
    11    5  131 1    
    12    6    7 1    
    13    6  132 1    
    14    6  133 1    
    15    7    8 1    
    16    8    9 1    
    17    8  134 1    
    18    8  135 1    
    19    9   10 ar   
    20    9   14 ar   
    21   10   11 ar   
    22   10  136 1    
    23   11   12 ar   
    24   11  126 1    
    25   12   13 ar   
    26   12  137 1    
    27   13   14 ar   
    28   13   15 1    
    29   14  138 1    
    30   15   16 1    
    31   15  139 1    
    32   15  140 1    
    33   16   17 1    
    34   17   18 1    
    35   17  141 1    
    36   17  142 1    
    37   18   19 1    
    38   18   67 1    
    39   18  143 1    
    40   19   20 am   BACKBONE|DICT|INTERRES
    41   19  144 1    
    42   20   21 2    
    43   20   22 1    
    44   22   23 1    
    45   22   24 1    
    46   22  145 1    
    47   23  146 1    
    48   23  147 1    
    49   23  148 1    
    50   24   25 am   BACKBONE|DICT|INTERRES
    51   24  149 1    
    52   25   26 2    
    53   25   27 1    
    54   27   28 1    
    55   27   29 1    
    56   27  150 1    
    57   28  151 1    
    58   28  152 1    
    59   28  153 1    
    60   29   30 am   BACKBONE|DICT|INTERRES
    61   29  154 1    
    62   30   31 2    
    63   30   32 1    
    64   32   33 1    
    65   32   34 1    
    66   32  155 1    
    67   33  156 1    
    68   33  157 1    
    69   33  158 1    
    70   34   35 am   BACKBONE|DICT|INTERRES
    71   34  159 1    
    72   35   36 2    
    73   35   37 1    
    74   37   38 1    
    75   37   39 1    
    76   37  160 1    
    77   38  161 1    
    78   38  162 1    
    79   38  163 1    
    80   39   40 am   BACKBONE|DICT|INTERRES
    81   39  164 1    
    82   40   41 2    
    83   40   42 1    
    84   42   43 1    
    85   42   44 1    
    86   42  165 1    
    87   43  166 1    
    88   43  167 1    
    89   43  168 1    
    90   44   45 am   BACKBONE|DICT|INTERRES
    91   44  169 1    
    92   45   46 2    
    93   45   47 1    
    94   47   48 1    
    95   47   49 1    
    96   47  170 1    
    97   48  171 1    
    98   48  172 1    
    99   48  173 1    
   100   49   50 am   BACKBONE|DICT|INTERRES
   101   49  174 1    
   102   50   51 2    
   103   50   52 1    
   104   52   53 1    
   105   52   54 1    
   106   52  175 1    
   107   53  176 1    
   108   53  177 1    
   109   53  178 1    
   110   54   55 am   BACKBONE|DICT|INTERRES
   111   54  179 1    
   112   55   56 2    
   113   55   57 1    
   114   57   58 1    
   115   57   59 1    
   116   57  180 1    
   117   58  181 1    
   118   58  182 1    
   119   58  183 1    
   120   59   60 am   BACKBONE|DICT|INTERRES
   121   59  184 1    
   122   60   61 2    
   123   60   62 1    
   124   62   63 1    
   125   62   64 1    
   126   62  185 1    
   127   63  186 1    
   128   63  187 1    
   129   63  188 1    
   130   64   65 am   BACKBONE|DICT|INTERRES
   131   64  189 1    
   132   65   66 2    
   133   67   68 2    
   134   67   69 am   BACKBONE|DICT|INTERRES
   135   69   70 1    
   136   69  190 1    
   137   70   71 1    
   138   70   72 1    
   139   70  191 1    
   140   71  192 1    
   141   71  193 1    
   142   71  194 1    
   143   72   73 2    
   144   72   74 am   BACKBONE|DICT|INTERRES
   145   74   75 1    
   146   74  195 1    
   147   75   76 1    
   148   75   77 1    
   149   75  196 1    
   150   76  197 1    
   151   76  198 1    
   152   76  199 1    
   153   77   78 2    
   154   77   79 am   BACKBONE|DICT|INTERRES
   155   79   80 1    
   156   79  200 1    
   157   80   81 1    
   158   80   82 1    
   159   80  201 1    
   160   81  202 1    
   161   81  203 1    
   162   81  204 1    
   163   82   83 2    
   164   82   84 am   BACKBONE|DICT|INTERRES
   165   84   85 1    
   166   84  205 1    
   167   85   86 1    
   168   85   87 1    
   169   85  206 1    
   170   86  207 1    
   171   86  208 1    
   172   86  209 1    
   173   87   88 2    
   174   87   89 am   BACKBONE|DICT|INTERRES
   175   89   90 1    
   176   89  210 1    
   177   90   91 1    
   178   90   92 1    
   179   90  211 1    
   180   91  212 1    
   181   91  213 1    
   182   91  214 1    
   183   92   93 2    
   184   92   94 am   BACKBONE|DICT|INTERRES
   185   94   95 1    
   186   94  215 1    
   187   95   96 1    
   188   95   97 1    
   189   95  216 1    
   190   96  217 1    
   191   96  218 1    
   192   96  219 1    
   193   97   98 2    
   194   97   99 am   BACKBONE|DICT|INTERRES
   195   99  100 1    
   196   99  220 1    
   197  100  101 1    
   198  100  102 1    
   199  100  221 1    
   200  101  222 1    
   201  101  223 1    
   202  101  224 1    
   203  102  103 2    
   204  102  104 am   BACKBONE|DICT|INTERRES
   205  104  105 1    
   206  104  225 1    
   207  105  106 1    
   208  105  107 1    
   209  105  226 1    
   210  106  227 1    
   211  106  228 1    
   212  106  229 1    
   213  107  108 2    
   214  107  109 am   BACKBONE|DICT|INTERRES
   215  109  110 1    
   216  109  230 1    
   217  110  111 1    
   218  110  112 1    
   219  110  231 1    
   220  111  232 1    
   221  111  233 1    
   222  111  234 1    
   223  112  113 2    
   224  112  114 am   BACKBONE|DICT|INTERRES
   225  114  115 1    
   226  114  235 1    
   227  115  116 1    
   228  115  117 1    
   229  115  236 1    
   230  116  237 1    
   231  116  238 1    
   232  116  239 1    
   233  117  118 2    
   234  117  119 am   BACKBONE|DICT|INTERRES
   235  119  120 1    
   236  119  240 1    
   237  120  121 1    
   238  120  124 1    
   239  120  241 1    
   240  121  122 am   BACKBONE|DICT|INTERRES
   241  121  123 2    
   242  122  242 1    
   243  122  243 1    
   244  124  125 1    
   245  124  244 1    
   246  124  245 1    
   247  125  126 1    
   248  126  246 1    
   249  126  247 1    
@<TRIPOS>SUBSTRUCTURE
     1 UNK         1 GROUP             0       ****    0 ROOT    
