@<TRIPOS>MOLECULE
3R540
247   249    1
SMALL
USER_CHARGES


@<TRIPOS>ATOM
      1 CA          3.8391  -17.5522  -52.9144 C.3       0 UNK        -0.1800 
      2 C           3.5716  -17.8672  -51.4497 C.2       0 UNK         0.5000 
      3 O           4.2065  -18.7632  -50.8939 O.2       0 UNK        -0.5000 
      4 N           2.6364  -17.1377  -50.8271 N.am      1 UNK        -0.5000 
      5 CA          2.3077  -17.2318  -49.4004 C.3       1 UNK         0.1400 
      6 C6          1.0163  -16.4570  -49.0473 C.3       23 UNK        -0.0398 
      7 S7         -0.4602  -17.1965  -49.8226 S.3       23 UNK        -0.2404 
      8 C8         -1.4809  -15.7224  -50.1528 C.3       23 UNK        -0.0205 
      9 C9         -2.9668  -16.0519  -50.1122 C.ar      23 UNK        -0.0193 
     10 C10        -3.7673  -15.9505  -51.2563 C.ar      23 UNK        -0.1150 
     11 C11        -5.1359  -16.2526  -51.2101 C.ar      23 UNK        -0.0193 
     12 C12        -5.6916  -16.6542  -49.9878 C.ar      23 UNK        -0.1150 
     13 C13        -4.8933  -16.8062  -48.8524 C.ar      23 UNK        -0.0193 
     14 C14        -3.5408  -16.4728  -48.9118 C.ar      23 UNK        -0.1150 
     15 C15        -5.4821  -17.3891  -47.5803 C.3       23 UNK        -0.0205 
     16 S16        -4.9483  -19.1205  -47.3621 S.3       23 UNK        -0.2404 
     17 C17        -3.5224  -18.9435  -46.2325 C.3       23 UNK        -0.0398 
     18 CA         -2.1555  -19.4755  -46.7407 C.3       11 UNK         0.1400 
     19 N          -1.1342  -19.2655  -45.7161 N.am      11 UNK        -0.5000 
     20 C           0.1854  -19.4450  -45.8524 C.2       10 UNK         0.5000 
     21 O           0.7492  -19.6951  -46.9174 O.2       10 UNK        -0.5000 
     22 CA          1.0140  -19.3503  -44.5569 C.3       10 UNK         0.1400 
     23 CB          1.3555  -17.8862  -44.2443 C.3       10 UNK        -0.1800 
     24 N           0.3452  -19.9505  -43.3983 N.am      10 UNK        -0.5000 
     25 C          -0.0067  -21.2416  -43.3011 C.2       9 UNK         0.5000 
     26 O           0.2171  -22.0821  -44.1698 O.2       9 UNK        -0.5000 
     27 CA         -0.7921  -21.6545  -42.0469 C.3       9 UNK         0.1400 
     28 CB          0.1468  -21.8637  -40.8494 C.3       9 UNK        -0.1800 
     29 N          -1.8244  -20.6743  -41.7135 N.am      9 UNK        -0.5000 
     30 C          -2.9430  -20.4923  -42.4298 C.2       8 UNK         0.5000 
     31 O          -3.2317  -21.1556  -43.4254 O.2       8 UNK        -0.5000 
     32 CA         -3.8722  -19.3468  -41.9881 C.3       8 UNK         0.1400 
     33 CB         -4.8002  -19.8078  -40.8548 C.3       8 UNK        -0.1800 
     34 N          -3.1353  -18.1572  -41.5604 N.am      8 UNK        -0.5000 
     35 C          -2.3675  -17.4104  -42.3663 C.2       7 UNK         0.5000 
     36 O          -2.2311  -17.6241  -43.5702 O.2       7 UNK        -0.5000 
     37 CA         -1.5783  -16.2665  -41.7049 C.3       7 UNK         0.1400 
     38 CB         -2.4203  -14.9839  -41.6547 C.3       7 UNK        -0.1800 
     39 N          -1.0993  -16.5847  -40.3577 N.am      7 UNK        -0.5000 
     40 C          -0.2679  -17.5891  -40.0522 C.2       6 UNK         0.5000 
     41 O           0.1406  -18.4088  -40.8774 O.2       6 UNK        -0.5000 
     42 CA          0.2159  -17.6451  -38.5900 C.3       6 UNK         0.1400 
     43 CB          0.9002  -18.9796  -38.2455 C.3       6 UNK        -0.1800 
     44 N           1.1590  -16.5558  -38.3546 N.am      6 UNK        -0.5000 
     45 C           0.8265  -15.2776  -38.1259 C.2       5 UNK         0.5000 
     46 O          -0.3249  -14.9003  -37.9032 O.2       5 UNK        -0.5000 
     47 CA          1.9662  -14.2446  -38.2369 C.3       5 UNK         0.1400 
     48 CB          2.6452  -14.0370  -36.8748 C.3       5 UNK        -0.1800 
     49 N           2.9766  -14.6237  -39.2324 N.am      5 UNK        -0.5000 
     50 C           2.7381  -14.7538  -40.5457 C.2       4 UNK         0.5000 
     51 O           1.6539  -14.4929  -41.0737 O.2       4 UNK        -0.5000 
     52 CA          3.8909  -15.3340  -41.3867 C.3       4 UNK         0.1400 
     53 CB          4.0378  -16.8423  -41.1199 C.3       4 UNK        -0.1800 
     54 N           3.6719  -15.1392  -42.8184 N.am      4 UNK        -0.5000 
     55 C           3.7882  -13.9732  -43.4665 C.2       3 UNK         0.5000 
     56 O           4.1674  -12.9305  -42.9290 O.2       3 UNK        -0.5000 
     57 CA          3.4122  -13.9869  -44.9658 C.3       3 UNK         0.1400 
     58 CB          4.0458  -12.8225  -45.7557 C.3       3 UNK        -0.1800 
     59 N           3.6806  -15.2703  -45.6309 N.am      3 UNK        -0.5000 
     60 C           4.8696  -15.8782  -45.7744 C.2       2 UNK         0.5000 
     61 O           5.9293  -15.4323  -45.3338 O.2       2 UNK        -0.5000 
     62 CA          4.8827  -17.2230  -46.5307 C.3       2 UNK         0.1400 
     63 CB          4.9830  -18.3951  -45.5409 C.3       2 UNK        -0.1800 
     64 N           3.7319  -17.4431  -47.4148 N.am      2 UNK        -0.5000 
     65 C           3.4925  -16.7508  -48.5372 C.2       1 UNK         0.5000 
     66 O           4.1550  -15.7741  -48.8958 O.2       1 UNK        -0.5000 
     67 C          -2.1994  -20.9610  -47.1613 C.2       11 UNK         0.5000 
     68 O          -1.9915  -21.2688  -48.3366 O.2       11 UNK        -0.5000 
     69 N          -2.4452  -21.8531  -46.1897 N.am      12 UNK        -0.5000 
     70 CA         -2.6338  -23.2885  -46.4008 C.3       12 UNK         0.1400 
     71 CB         -3.0718  -23.9487  -45.0850 C.3       12 UNK        -0.1800 
     72 C          -1.4049  -24.0082  -46.9816 C.2       12 UNK         0.5000 
     73 O          -1.5523  -24.7672  -47.9400 O.2       12 UNK        -0.5000 
     74 N          -0.2175  -23.7510  -46.4147 N.am      13 UNK        -0.5000 
     75 CA          1.0423  -24.3976  -46.7977 C.3       13 UNK         0.1400 
     76 CB          2.1394  -24.0215  -45.7904 C.3       13 UNK        -0.1800 
     77 C           1.4964  -24.0627  -48.2294 C.2       13 UNK         0.5000 
     78 O           2.1291  -24.8966  -48.8780 O.2       13 UNK        -0.5000 
     79 N           1.1478  -22.8595  -48.6988 N.am      14 UNK        -0.5000 
     80 CA          1.4244  -22.3844  -50.0519 C.3       14 UNK         0.1400 
     81 CB          1.6157  -20.8637  -49.9908 C.3       14 UNK        -0.1800 
     82 C           0.3079  -22.7358  -51.0518 C.2       14 UNK         0.5000 
     83 O           0.4432  -22.4003  -52.2289 O.2       14 UNK        -0.5000 
     84 N          -0.7979  -23.3312  -50.5757 N.am      15 UNK        -0.5000 
     85 CA         -2.0481  -23.5754  -51.3065 C.3       15 UNK         0.1400 
     86 CB         -1.8563  -24.6751  -52.3704 C.3       15 UNK        -0.1800 
     87 C          -2.6429  -22.2744  -51.8868 C.2       15 UNK         0.5000 
     88 O          -3.1238  -22.2610  -53.0238 O.2       15 UNK        -0.5000 
     89 N          -2.5617  -21.1978  -51.0900 N.am      16 UNK        -0.5000 
     90 CA         -2.9175  -19.8164  -51.4172 C.3       16 UNK         0.1400 
     91 CB         -4.4233  -19.7118  -51.6883 C.3       16 UNK        -0.1800 
     92 C          -2.0594  -19.2244  -52.5545 C.2       16 UNK         0.5000 
     93 O          -2.5801  -18.5140  -53.4129 O.2       16 UNK        -0.5000 
     94 N          -0.7577  -19.5469  -52.5419 N.am      17 UNK        -0.5000 
     95 CA          0.2372  -19.2325  -53.5737 C.3       17 UNK         0.1400 
     96 CB          0.4009  -17.7079  -53.7592 C.3       17 UNK        -0.1800 
     97 C          -0.0649  -19.9795  -54.8888 C.2       17 UNK         0.5000 
     98 O          -0.0319  -19.3832  -55.9669 O.2       17 UNK        -0.5000 
     99 N          -0.3656  -21.2805  -54.7539 N.am      18 UNK        -0.5000 
    100 CA        -0.7666  -22.2204  -55.8049 C.3       18 UNK         0.1400 
    101 CB         0.4263  -22.5353  -56.7309 C.3       18 UNK        -0.1800 
    102 C         -2.0278  -21.7627  -56.5698 C.2       18 UNK         0.5000 
    103 O         -2.0714  -21.8415  -57.7991 O.2       18 UNK        -0.5000 
    104 N         -3.0324  -21.2921  -55.8203 N.am      19 UNK        -0.5000 
    105 CA        -4.2995  -20.7678  -56.3356 C.3       19 UNK         0.1400 
    106 CB        -4.4695  -19.3071  -55.8836 C.3       19 UNK        -0.1800 
    107 C         -5.4828  -21.6431  -55.8883 C.2       19 UNK         0.5000 
    108 O         -6.5912  -21.1304  -55.7263 O.2       19 UNK        -0.5000 
    109 N         -5.2253  -22.9423  -55.6687 N.am      20 UNK        -0.5000 
    110 CA        -6.1831  -23.9778  -55.2598 C.3       20 UNK         0.1400 
    111 CB        -7.1428  -24.3074  -56.4220 C.3       20 UNK        -0.1800 
    112 C         -6.9219  -23.6229  -53.9522 C.2       20 UNK         0.5000 
    113 O         -8.1414  -23.7777  -53.8619 O.2       20 UNK        -0.5000 
    114 N         -6.1588  -23.1046  -52.9782 N.am      21 UNK        -0.5000 
    115 CA        -6.6172  -22.6175  -51.6725 C.3       21 UNK         0.1400 
    116 CB        -7.2131  -23.7617  -50.8256 C.3       21 UNK        -0.1800 
    117 C         -7.5420  -21.3803  -51.7571 C.2       21 UNK         0.5000 
    118 O         -8.3147  -21.1356  -50.8299 O.2       21 UNK        -0.5000 
    119 N         -7.4157  -20.5984  -52.8417 N.am      22 UNK        -0.5000 
    120 CA        -8.1080  -19.3181  -53.0798 C.3       22 UNK         0.1400 
    121 C         -9.6111  -19.4707  -53.4696 C.2       22 UNK         0.5000 
    122 N        -10.0812  -20.6602  -53.8285 N.am      22 UNK        -0.7600 
    123 O        -10.3627  -18.4998  -53.4741 O.2       22 UNK        -0.5000 
    124 C124       -7.8558  -18.2965  -51.9297 C.3       23 UNK        -0.0398 
    125 S125       -7.7402  -16.5406  -52.4374 S.3       23 UNK        -0.2404 
    126 C126       -5.9366  -16.2038  -52.5206 C.3       23 UNK        -0.0205 
    127 H127        3.2953  -16.6668  -53.2443 H         1 UNK         0.0600 
    128 H128        3.5415  -18.3932  -53.5405 H         1 UNK         0.0600 
    129 H129        4.9026  -17.3707  -53.0700 H         1 UNK         0.0600 
    130 H130        2.1635  -16.4037  -51.3325 H         1 UNK         0.3000 
    131 H131        2.1384  -18.2831  -49.1679 H         1 UNK         0.0600 
    132 H132        1.1082  -15.4103  -49.3431 H         1 UNK         0.0800 
    133 H133        0.8454  -16.4604  -47.9691 H         1 UNK         0.0800 
    134 H134       -1.1981  -15.3008  -51.1184 H         1 UNK         0.0800 
    135 H135       -1.2793  -14.9549  -49.4042 H         1 UNK         0.0800 
    136 H136       -3.3192  -15.6543  -52.1947 H         1 UNK         0.1150 
    137 H137       -6.7396  -16.8970  -49.9116 H         1 UNK         0.1150 
    138 H138       -2.9221  -16.5777  -48.0322 H         1 UNK         0.1150 
    139 H139       -5.2105  -16.7760  -46.7203 H         1 UNK         0.0800 
    140 H140       -6.5720  -17.3705  -47.6263 H         1 UNK         0.0800 
    141 H141       -3.7973  -19.4396  -45.3025 H         1 UNK         0.0800 
    142 H142       -3.4078  -17.8922  -45.9687 H         1 UNK         0.0800 
    143 H143       -1.8692  -18.8940  -47.6192 H         1 UNK         0.0600 
    144 H144       -1.4775  -18.9747  -44.8061 H         1 UNK         0.3000 
    145 H145        1.9457  -19.8955  -44.7210 H         1 UNK         0.0600 
    146 H146        2.0145  -17.8134  -43.3804 H         1 UNK         0.0600 
    147 H147        1.8595  -17.4160  -45.0873 H         1 UNK         0.0600 
    148 H148        0.4614  -17.3004  -44.0336 H         1 UNK         0.0600 
    149 H149        0.1512  -19.3391  -42.6103 H         1 UNK         0.3000 
    150 H150       -1.2829  -22.6072  -42.2570 H         1 UNK         0.0600 
    151 H151        0.8674  -22.6553  -41.0581 H         1 UNK         0.0600 
    152 H152       -0.4078  -22.1559  -39.9577 H         1 UNK         0.0600 
    153 H153        0.7143  -20.9639  -40.6132 H         1 UNK         0.0600 
    154 H154       -1.6196  -20.0393  -40.9559 H         1 UNK         0.3000 
    155 H155       -4.4910  -19.0710  -42.8446 H         1 UNK         0.0600 
    156 H156       -4.2411  -20.0727  -39.9565 H         1 UNK         0.0600 
    157 H157       -5.3751  -20.6851  -41.1544 H         1 UNK         0.0600 
    158 H158       -5.5144  -19.0284  -40.5885 H         1 UNK         0.0600 
    159 H159       -3.1871  -17.9111  -40.5829 H         1 UNK         0.3000 
    160 H160       -0.7007  -16.0702  -42.3237 H         1 UNK         0.0600 
    161 H161       -3.2954  -15.1005  -41.0142 H         1 UNK         0.0600 
    162 H162       -2.7739  -14.7094  -42.6495 H         1 UNK         0.0600 
    163 H163       -1.8353  -14.1453  -41.2760 H         1 UNK         0.0600 
    164 H164       -1.3314  -15.9246  -39.6260 H         1 UNK         0.3000 
    165 H165       -0.6518  -17.5303  -37.9369 H         1 UNK         0.0600 
    166 H166        1.2145  -19.0021  -37.2019 H         1 UNK         0.0600 
    167 H167        0.2177  -19.8167  -38.3959 H         1 UNK         0.0600 
    168 H168        1.7813  -19.1566  -38.8638 H         1 UNK         0.0600 
    169 H169        2.1273  -16.7597  -38.5512 H         1 UNK         0.3000 
    170 H170        1.5240  -13.2961  -38.5491 H         1 UNK         0.0600 
    171 H171        1.9190  -13.7332  -36.1196 H         1 UNK         0.0600 
    172 H172        3.1257  -14.9496  -36.5199 H         1 UNK         0.0600 
    173 H173        3.4036  -13.2556  -36.9270 H         1 UNK         0.0600 
    174 H174        3.8942  -14.8497  -38.8758 H         1 UNK         0.3000 
    175 H175        4.8184  -14.8312  -41.1046 H         1 UNK         0.0600 
    176 H176        3.1053  -17.3784  -41.3014 H         1 UNK         0.0600 
    177 H177        4.8082  -17.2838  -41.7525 H         1 UNK         0.0600 
    178 H178        4.3251  -17.0327  -40.0853 H         1 UNK         0.0600 
    179 H179        3.3314  -15.9352  -43.3335 H         1 UNK         0.3000 
    180 H180        2.3304  -13.8506  -44.9992 H         1 UNK         0.0600 
    181 H181        5.1349  -12.8481  -45.7110 H         1 UNK         0.0600 
    182 H182        3.7251  -11.8587  -45.3587 H         1 UNK         0.0600 
    183 H183        3.7529  -12.8533  -46.8052 H         1 UNK         0.0600 
    184 H184        2.8793  -15.7219  -46.0445 H         1 UNK         0.3000 
    185 H185        5.7811  -17.2306  -47.1516 H         1 UNK         0.0600 
    186 H186        5.8669  -18.2970  -44.9092 H         1 UNK         0.0600 
    187 H187        4.1177  -18.4469  -44.8812 H         1 UNK         0.0600 
    188 H188        5.0653  -19.3485  -46.0634 H         1 UNK         0.0600 
    189 H189        3.1498  -18.2415  -47.2028 H         1 UNK         0.3000 
    190 H190       -2.5938  -21.5232  -45.2404 H         1 UNK         0.3000 
    191 H191       -3.4476  -23.4045  -47.1196 H         1 UNK         0.0600 
    192 H192       -2.3262  -23.8143  -44.3005 H         1 UNK         0.0600 
    193 H193       -3.2247  -25.0209  -45.2148 H         1 UNK         0.0600 
    194 H194       -4.0120  -23.5282  -44.7277 H         1 UNK         0.0600 
    195 H195       -0.1698  -23.1019  -45.6304 H         1 UNK         0.3000 
    196 H196        0.8899  -25.4776  -46.7465 H         1 UNK         0.0600 
    197 H197        3.0810  -24.5156  -46.0330 H         1 UNK         0.0600 
    198 H198        1.8660  -24.3224  -44.7789 H         1 UNK         0.0600 
    199 H199        2.3242  -22.9464  -45.7821 H         1 UNK         0.0600 
    200 H200        0.6256  -22.2358  -48.0974 H         1 UNK         0.3000 
    201 H201        2.3503  -22.8303  -50.4208 H         1 UNK         0.0600 
    202 H202        1.8796  -20.4580  -50.9675 H         1 UNK         0.0600 
    203 H203        2.4238  -20.6044  -49.3069 H         1 UNK         0.0600 
    204 H204        0.7117  -20.3547  -49.6523 H         1 UNK         0.0600 
    205 H205       -0.8203  -23.5762  -49.5928 H         1 UNK         0.3000 
    206 H206       -2.7689  -23.9416  -50.5741 H         1 UNK         0.0600 
    207 H207       -2.8037  -24.9282  -52.8477 H         1 UNK         0.0600 
    208 H208       -1.4652  -25.5886  -51.9228 H         1 UNK         0.0600 
    209 H209       -1.1662  -24.3661  -53.1553 H         1 UNK         0.0600 
    210 H210       -2.1980  -21.3289  -50.1467 H         1 UNK         0.3000 
    211 H211       -2.7016  -19.2184  -50.5306 H         1 UNK         0.0600 
    212 H212       -4.6972  -18.6964  -51.9471 H         1 UNK         0.0600 
    213 H213       -4.9994  -19.9911  -50.8068 H         1 UNK         0.0600 
    214 H214       -4.7294  -20.3347  -52.5259 H         1 UNK         0.0600 
    215 H215       -0.4412  -20.1684  -51.8126 H         1 UNK         0.3000 
    216 H216        1.1888  -19.6225  -53.2108 H         1 UNK         0.0600 
    217 H217        1.2455  -17.4856  -54.4113 H         1 UNK         0.0600 
    218 H218        0.5777  -17.2100  -52.8072 H         1 UNK         0.0600 
    219 H219       -0.4789  -17.2517  -54.2129 H         1 UNK         0.0600 
    220 H220       -0.3045  -21.6774  -53.8194 H         1 UNK         0.3000 
    221 H221       -1.0409  -23.1455  -55.2968 H         1 UNK         0.0600 
    222 H222        0.7352  -21.6617  -57.3055 H         1 UNK         0.0600 
    223 H223        1.2870  -22.8819  -56.1589 H         1 UNK         0.0600 
    224 H224        0.1725  -23.3223  -57.4420 H         1 UNK         0.0600 
    225 H225       -2.9404  -21.3266  -54.8091 H         1 UNK         0.3000 
    226 H226       -4.3018  -20.7791  -57.4269 H         1 UNK         0.0600 
    227 H227       -3.5830  -18.7148  -56.1116 H         1 UNK         0.0600 
    228 H228       -5.3138  -18.8365  -56.3886 H         1 UNK         0.0600 
    229 H229       -4.6539  -19.2384  -54.8116 H         1 UNK         0.0600 
    230 H230       -4.2715  -23.2502  -55.7924 H         1 UNK         0.3000 
    231 H231       -5.6003  -24.8750  -55.0468 H         1 UNK         0.0600 
    232 H232       -6.5921  -24.5798  -57.3223 H         1 UNK         0.0600 
    233 H233       -7.7876  -23.4626  -56.6664 H         1 UNK         0.0600 
    234 H234       -7.7879  -25.1499  -56.1703 H         1 UNK         0.0600 
    235 H235       -5.1720  -22.9718  -53.1711 H         1 UNK         0.3000 
    236 H236       -5.7199  -22.2804  -51.1536 H         1 UNK         0.0600 
    237 H237       -7.3867  -23.4378  -49.7989 H         1 UNK         0.0600 
    238 H238       -8.1678  -24.1077  -51.2221 H         1 UNK         0.0600 
    239 H239       -6.5365  -24.6153  -50.7838 H         1 UNK         0.0600 
    240 H240       -6.8308  -20.9148  -53.6053 H         1 UNK         0.3000 
    241 H241       -7.6295  -18.9224  -53.9763 H         1 UNK         0.0600 
    242 H242      -11.0501  -20.7548  -54.0890 H         1 UNK         0.3800 
    243 H243       -9.4747  -21.4672  -53.8415 H         1 UNK         0.3800 
    244 H244       -8.6316  -18.3821  -51.1671 H         1 UNK         0.0800 
    245 H245       -6.9336  -18.5541  -51.4167 H         1 UNK         0.0800 
    246 H246       -5.8112  -15.2106  -52.9539 H         1 UNK         0.0800 
    247 H247       -5.4909  -16.8996  -53.2332 H         1 UNK         0.0800 
@<TRIPOS>BOND
     1    1    2 1    
     2    1  127 1    
     3    1  128 1    
     4    1  129 1    
     5    2    3 2    
     6    2    4 am   BACKBONE|DICT|INTERRES
     7    4    5 1    
     8    4  130 1    
     9    5    6 1    
    10    5   65 1    
    11    5  131 1    
    12    6    7 1    
    13    6  132 1    
    14    6  133 1    
    15    7    8 1    
    16    8    9 1    
    17    8  134 1    
    18    8  135 1    
    19    9   10 ar   
    20    9   14 ar   
    21   10   11 ar   
    22   10  136 1    
    23   11   12 ar   
    24   11  126 1    
    25   12   13 ar   
    26   12  137 1    
    27   13   14 ar   
    28   13   15 1    
    29   14  138 1    
    30   15   16 1    
    31   15  139 1    
    32   15  140 1    
    33   16   17 1    
    34   17   18 1    
    35   17  141 1    
    36   17  142 1    
    37   18   19 1    
    38   18   67 1    
    39   18  143 1    
    40   19   20 am   BACKBONE|DICT|INTERRES
    41   19  144 1    
    42   20   21 2    
    43   20   22 1    
    44   22   23 1    
    45   22   24 1    
    46   22  145 1    
    47   23  146 1    
    48   23  147 1    
    49   23  148 1    
    50   24   25 am   BACKBONE|DICT|INTERRES
    51   24  149 1    
    52   25   26 2    
    53   25   27 1    
    54   27   28 1    
    55   27   29 1    
    56   27  150 1    
    57   28  151 1    
    58   28  152 1    
    59   28  153 1    
    60   29   30 am   BACKBONE|DICT|INTERRES
    61   29  154 1    
    62   30   31 2    
    63   30   32 1    
    64   32   33 1    
    65   32   34 1    
    66   32  155 1    
    67   33  156 1    
    68   33  157 1    
    69   33  158 1    
    70   34   35 am   BACKBONE|DICT|INTERRES
    71   34  159 1    
    72   35   36 2    
    73   35   37 1    
    74   37   38 1    
    75   37   39 1    
    76   37  160 1    
    77   38  161 1    
    78   38  162 1    
    79   38  163 1    
    80   39   40 am   BACKBONE|DICT|INTERRES
    81   39  164 1    
    82   40   41 2    
    83   40   42 1    
    84   42   43 1    
    85   42   44 1    
    86   42  165 1    
    87   43  166 1    
    88   43  167 1    
    89   43  168 1    
    90   44   45 am   BACKBONE|DICT|INTERRES
    91   44  169 1    
    92   45   46 2    
    93   45   47 1    
    94   47   48 1    
    95   47   49 1    
    96   47  170 1    
    97   48  171 1    
    98   48  172 1    
    99   48  173 1    
   100   49   50 am   BACKBONE|DICT|INTERRES
   101   49  174 1    
   102   50   51 2    
   103   50   52 1    
   104   52   53 1    
   105   52   54 1    
   106   52  175 1    
   107   53  176 1    
   108   53  177 1    
   109   53  178 1    
   110   54   55 am   BACKBONE|DICT|INTERRES
   111   54  179 1    
   112   55   56 2    
   113   55   57 1    
   114   57   58 1    
   115   57   59 1    
   116   57  180 1    
   117   58  181 1    
   118   58  182 1    
   119   58  183 1    
   120   59   60 am   BACKBONE|DICT|INTERRES
   121   59  184 1    
   122   60   61 2    
   123   60   62 1    
   124   62   63 1    
   125   62   64 1    
   126   62  185 1    
   127   63  186 1    
   128   63  187 1    
   129   63  188 1    
   130   64   65 am   BACKBONE|DICT|INTERRES
   131   64  189 1    
   132   65   66 2    
   133   67   68 2    
   134   67   69 am   BACKBONE|DICT|INTERRES
   135   69   70 1    
   136   69  190 1    
   137   70   71 1    
   138   70   72 1    
   139   70  191 1    
   140   71  192 1    
   141   71  193 1    
   142   71  194 1    
   143   72   73 2    
   144   72   74 am   BACKBONE|DICT|INTERRES
   145   74   75 1    
   146   74  195 1    
   147   75   76 1    
   148   75   77 1    
   149   75  196 1    
   150   76  197 1    
   151   76  198 1    
   152   76  199 1    
   153   77   78 2    
   154   77   79 am   BACKBONE|DICT|INTERRES
   155   79   80 1    
   156   79  200 1    
   157   80   81 1    
   158   80   82 1    
   159   80  201 1    
   160   81  202 1    
   161   81  203 1    
   162   81  204 1    
   163   82   83 2    
   164   82   84 am   BACKBONE|DICT|INTERRES
   165   84   85 1    
   166   84  205 1    
   167   85   86 1    
   168   85   87 1    
   169   85  206 1    
   170   86  207 1    
   171   86  208 1    
   172   86  209 1    
   173   87   88 2    
   174   87   89 am   BACKBONE|DICT|INTERRES
   175   89   90 1    
   176   89  210 1    
   177   90   91 1    
   178   90   92 1    
   179   90  211 1    
   180   91  212 1    
   181   91  213 1    
   182   91  214 1    
   183   92   93 2    
   184   92   94 am   BACKBONE|DICT|INTERRES
   185   94   95 1    
   186   94  215 1    
   187   95   96 1    
   188   95   97 1    
   189   95  216 1    
   190   96  217 1    
   191   96  218 1    
   192   96  219 1    
   193   97   98 2    
   194   97   99 am   BACKBONE|DICT|INTERRES
   195   99  100 1    
   196   99  220 1    
   197  100  101 1    
   198  100  102 1    
   199  100  221 1    
   200  101  222 1    
   201  101  223 1    
   202  101  224 1    
   203  102  103 2    
   204  102  104 am   BACKBONE|DICT|INTERRES
   205  104  105 1    
   206  104  225 1    
   207  105  106 1    
   208  105  107 1    
   209  105  226 1    
   210  106  227 1    
   211  106  228 1    
   212  106  229 1    
   213  107  108 2    
   214  107  109 am   BACKBONE|DICT|INTERRES
   215  109  110 1    
   216  109  230 1    
   217  110  111 1    
   218  110  112 1    
   219  110  231 1    
   220  111  232 1    
   221  111  233 1    
   222  111  234 1    
   223  112  113 2    
   224  112  114 am   BACKBONE|DICT|INTERRES
   225  114  115 1    
   226  114  235 1    
   227  115  116 1    
   228  115  117 1    
   229  115  236 1    
   230  116  237 1    
   231  116  238 1    
   232  116  239 1    
   233  117  118 2    
   234  117  119 am   BACKBONE|DICT|INTERRES
   235  119  120 1    
   236  119  240 1    
   237  120  121 1    
   238  120  124 1    
   239  120  241 1    
   240  121  122 am   BACKBONE|DICT|INTERRES
   241  121  123 2    
   242  122  242 1    
   243  122  243 1    
   244  124  125 1    
   245  124  244 1    
   246  124  245 1    
   247  125  126 1    
   248  126  246 1    
   249  126  247 1    
@<TRIPOS>SUBSTRUCTURE
     1 UNK         1 GROUP             0       ****    0 ROOT    
