@<TRIPOS>MOLECULE
3R540
247   249    1
SMALL
USER_CHARGES


@<TRIPOS>ATOM
      1 CA          7.3253  -17.0649  -50.9804 C.3       0 UNK        -0.1800 
      2 C           6.3481  -17.8924  -50.1582 C.2       0 UNK         0.5000 
      3 O           6.6216  -19.0574  -49.8675 O.2       0 UNK        -0.5000 
      4 N           5.2155  -17.2954  -49.7690 N.am      1 UNK        -0.5000 
      5 CA          4.1269  -17.9134  -48.9997 C.3       1 UNK         0.1400 
      6 C6          2.7882  -17.1582  -49.2063 C.3       23 UNK        -0.0398 
      7 S7          2.2451  -17.0869  -50.9480 S.3       23 UNK        -0.2404 
      8 C8          0.5255  -17.6739  -50.8256 C.3       23 UNK        -0.0205 
      9 C9         -0.4671  -16.5685  -50.4756 C.ar      23 UNK        -0.0193 
     10 C10        -1.4476  -16.1898  -51.3996 C.ar      23 UNK        -0.1150 
     11 C11        -2.4207  -15.2423  -51.0619 C.ar      23 UNK        -0.0193 
     12 C12        -2.3956  -14.6575  -49.7939 C.ar      23 UNK        -0.1150 
     13 C13        -1.4184  -15.0169  -48.8632 C.ar      23 UNK        -0.0193 
     14 C14        -0.4520  -15.9633  -49.2141 C.ar      23 UNK        -0.1150 
     15 C15        -1.4235  -14.3854  -47.4786 C.3       23 UNK        -0.0205 
     16 S16        -2.8218  -14.9803  -46.4731 S.3       23 UNK        -0.2404 
     17 C17        -2.1481  -16.4932  -45.7060 C.3       23 UNK        -0.0398 
     18 CA         -2.1305  -17.7479  -46.6117 C.3       11 UNK         0.1400 
     19 N          -1.4036  -18.8441  -45.9762 N.am      11 UNK        -0.5000 
     20 C          -1.0318  -19.9800  -46.5780 C.2       10 UNK         0.5000 
     21 O          -1.2359  -20.2276  -47.7652 O.2       10 UNK        -0.5000 
     22 CA         -0.3502  -21.0326  -45.6906 C.3       10 UNK         0.1400 
     23 CB          1.1567  -20.7506  -45.5778 C.3       10 UNK        -0.1800 
     24 N          -0.9569  -21.0828  -44.3588 N.am      10 UNK        -0.5000 
     25 C          -2.1718  -21.5924  -44.1059 C.2       9 UNK         0.5000 
     26 O          -2.8808  -22.1206  -44.9613 O.2       9 UNK        -0.5000 
     27 CA         -2.6998  -21.4599  -42.6651 C.3       9 UNK         0.1400 
     28 CB         -2.1381  -22.5799  -41.7767 C.3       9 UNK        -0.1800 
     29 N          -2.3941  -20.1623  -42.0612 N.am      9 UNK        -0.5000 
     30 C          -2.9054  -18.9943  -42.4742 C.2       8 UNK         0.5000 
     31 O          -3.7094  -18.8873  -43.3998 O.2       8 UNK        -0.5000 
     32 CA         -2.3902  -17.7237  -41.7709 C.3       8 UNK         0.1400 
     33 CB         -3.2000  -17.4459  -40.4963 C.3       8 UNK        -0.1800 
     34 N          -0.9614  -17.7441  -41.4411 N.am      8 UNK        -0.5000 
     35 C           0.0350  -17.9876  -42.3033 C.2       7 UNK         0.5000 
     36 O          -0.1435  -18.3287  -43.4726 O.2       7 UNK        -0.5000 
     37 CA          1.4574  -17.7666  -41.7682 C.3       7 UNK         0.1400 
     38 CB          2.5385  -18.3198  -42.7150 C.3       7 UNK        -0.1800 
     39 N           1.6485  -16.3299  -41.5994 N.am      7 UNK        -0.5000 
     40 C           1.5106  -15.6635  -40.4447 C.2       6 UNK         0.5000 
     41 O           1.3224  -16.2176  -39.3613 O.2       6 UNK        -0.5000 
     42 CA          1.5513  -14.1225  -40.5028 C.3       6 UNK         0.1400 
     43 CB          2.9309  -13.5954  -40.0837 C.3       6 UNK        -0.1800 
     44 N           1.2096  -13.5906  -41.8235 N.am      6 UNK        -0.5000 
     45 C          -0.0319  -13.5740  -42.3323 C.2       5 UNK         0.5000 
     46 O          -1.0291  -13.9284  -41.7028 O.2       5 UNK        -0.5000 
     47 CA         -0.1918  -13.1112  -43.7962 C.3       5 UNK         0.1400 
     48 CB         -0.6450  -11.6450  -43.8544 C.3       5 UNK        -0.1800 
     49 N           1.0113  -13.2711  -44.6200 N.am      5 UNK        -0.5000 
     50 C           1.6124  -14.4400  -44.8772 C.2       4 UNK         0.5000 
     51 O           1.2237  -15.5111  -44.4151 O.2       4 UNK        -0.5000 
     52 CA          2.8565  -14.4345  -45.7824 C.3       4 UNK         0.1400 
     53 CB          3.2782  -13.0415  -46.3011 C.3       4 UNK        -0.1800 
     54 N           3.9718  -15.1226  -45.1296 N.am      4 UNK        -0.5000 
     55 C           4.6021  -14.7639  -44.0007 C.2       3 UNK         0.5000 
     56 O           4.3274  -13.7412  -43.3710 O.2       3 UNK        -0.5000 
     57 CA          5.7100  -15.7014  -43.4686 C.3       3 UNK         0.1400 
     58 CB          5.5848  -15.9178  -41.9505 C.3       3 UNK        -0.1800 
     59 N           5.7198  -17.0075  -44.1344 N.am      3 UNK        -0.5000 
     60 C           6.4411  -17.3144  -45.2203 C.2       2 UNK         0.5000 
     61 O           7.2233  -16.5323  -45.7627 O.2       2 UNK        -0.5000 
     62 CA          6.2351  -18.7149  -45.8402 C.3       2 UNK         0.1400 
     63 CB          5.4223  -19.6918  -44.9585 C.3       2 UNK        -0.1800 
     64 N           5.6417  -18.6111  -47.1773 N.am      2 UNK        -0.5000 
     65 C           4.4785  -18.0266  -47.4958 C.2       1 UNK         0.5000 
     66 O           3.7127  -17.5589  -46.6521 O.2       1 UNK        -0.5000 
     67 C          -3.5268  -18.1882  -47.0969 C.2       11 UNK         0.5000 
     68 O          -3.8526  -17.9807  -48.2645 O.2       11 UNK        -0.5000 
     69 N          -4.2907  -18.8596  -46.2234 N.am      12 UNK        -0.5000 
     70 CA         -5.6087  -19.4203  -46.5348 C.3       12 UNK         0.1400 
     71 CB         -6.2640  -19.9035  -45.2320 C.3       12 UNK        -0.1800 
     72 C          -5.5727  -20.5618  -47.5720 C.2       12 UNK         0.5000 
     73 O          -6.5695  -20.7873  -48.2573 O.2       12 UNK        -0.5000 
     74 N          -4.4383  -21.2670  -47.6581 N.am      13 UNK        -0.5000 
     75 CA         -4.1951  -22.3355  -48.6246 C.3       13 UNK         0.1400 
     76 CB         -3.1245  -23.2761  -48.0460 C.3       13 UNK        -0.1800 
     77 C          -3.7351  -21.8207  -50.0003 C.2       13 UNK         0.5000 
     78 O          -3.8349  -22.5630  -50.9759 O.2       13 UNK        -0.5000 
     79 N          -3.1734  -20.6028  -50.0387 N.am      14 UNK        -0.5000 
     80 CA         -2.3297  -20.0665  -51.1114 C.3       14 UNK         0.1400 
     81 CB         -3.1294  -19.7783  -52.3959 C.3       14 UNK        -0.1800 
     82 C          -1.0785  -20.9427  -51.3397 C.2       14 UNK         0.5000 
     83 O          -0.7260  -21.2595  -52.4778 O.2       14 UNK        -0.5000 
     84 N          -0.4395  -21.3254  -50.2242 N.am      15 UNK        -0.5000 
     85 CA          0.7419  -22.1795  -50.1151 C.3       15 UNK         0.1400 
     86 CB          1.9971  -21.4015  -50.5700 C.3       15 UNK        -0.1800 
     87 C           0.5372  -23.5379  -50.8208 C.2       15 UNK         0.5000 
     88 O          -0.3031  -24.3265  -50.3830 O.2       15 UNK        -0.5000 
     89 N           1.2867  -23.7801  -51.9047 N.am      16 UNK        -0.5000 
     90 CA          1.2786  -25.0082  -52.7048 C.3       16 UNK         0.1400 
     91 CB          2.4191  -24.9308  -53.7319 C.3       16 UNK        -0.1800 
     92 C          -0.0594  -25.3197  -53.4078 C.2       16 UNK         0.5000 
     93 O          -0.2635  -26.4606  -53.8243 O.2       16 UNK        -0.5000 
     94 N          -0.9511  -24.3250  -53.5198 N.am      17 UNK        -0.5000 
     95 CA         -2.2995  -24.4716  -54.0732 C.3       17 UNK         0.1400 
     96 CB         -2.8333  -23.0806  -54.4308 C.3       17 UNK        -0.1800 
     97 C          -3.2822  -25.2170  -53.1423 C.2       17 UNK         0.5000 
     98 O          -4.3864  -25.5427  -53.5848 O.2       17 UNK        -0.5000 
     99 N          -2.8787  -25.4719  -51.8869 N.am      18 UNK        -0.5000 
    100 CA        -3.5309  -26.2628  -50.8331 C.3       18 UNK         0.1400 
    101 CB        -3.6873  -27.7324  -51.2664 C.3       18 UNK        -0.1800 
    102 C         -4.8652  -25.7031  -50.2986 C.2       18 UNK         0.5000 
    103 O         -5.0614  -25.6804  -49.0834 O.2       18 UNK        -0.5000 
    104 N         -5.7505  -25.2694  -51.1980 N.am      19 UNK        -0.5000 
    105 CA        -7.0497  -24.6600  -50.9135 C.3       19 UNK         0.1400 
    106 CB        -8.0235  -25.7213  -50.3582 C.3       19 UNK        -0.1800 
    107 C         -7.6617  -23.9616  -52.1446 C.2       19 UNK         0.5000 
    108 O         -8.7461  -23.3904  -52.0209 O.2       19 UNK        -0.5000 
    109 N         -7.0107  -24.0360  -53.3171 N.am      20 UNK        -0.5000 
    110 CA        -7.5787  -23.6053  -54.5982 C.3       20 UNK         0.1400 
    111 CB        -6.7846  -24.2619  -55.7390 C.3       20 UNK        -0.1800 
    112 C         -7.6715  -22.0783  -54.8012 C.2       20 UNK         0.5000 
    113 O         -8.3260  -21.6502  -55.7537 O.2       20 UNK        -0.5000 
    114 N         -7.0333  -21.2806  -53.9366 N.am      21 UNK        -0.5000 
    115 CA        -7.0390  -19.8211  -53.9971 C.3       21 UNK         0.1400 
    116 CB        -5.9499  -19.3423  -54.9763 C.3       21 UNK        -0.1800 
    117 C         -6.8281  -19.2249  -52.5978 C.2       21 UNK         0.5000 
    118 O         -6.3705  -19.9266  -51.6951 O.2       21 UNK        -0.5000 
    119 N         -7.1510  -17.9310  -52.4691 N.am      22 UNK        -0.5000 
    120 CA        -6.8755  -17.0483  -51.3154 C.3       22 UNK         0.1400 
    121 C         -7.6149  -17.4076  -49.9887 C.2       22 UNK         0.5000 
    122 N         -8.5927  -18.3043  -49.9954 N.am      22 UNK        -0.7600 
    123 O         -7.3384  -16.8265  -48.9431 O.2       22 UNK        -0.5000 
    124 C124       -5.3566  -16.7870  -51.0981 C.3       23 UNK        -0.0398 
    125 S125       -4.5067  -16.2419  -52.6275 S.3       23 UNK        -0.2404 
    126 C126       -3.4960  -14.8364  -52.0620 C.3       23 UNK        -0.0205 
    127 H127        8.2790  -16.9835  -50.4589 H         1 UNK         0.0600 
    128 H128        6.9500  -16.0576  -51.1631 H         1 UNK         0.0600 
    129 H129        7.5018  -17.5420  -51.9445 H         1 UNK         0.0600 
    130 H130        5.0585  -16.3334  -50.0331 H         1 UNK         0.3000 
    131 H131        3.9891  -18.9338  -49.3628 H         1 UNK         0.0600 
    132 H132        2.8622  -16.1342  -48.8371 H         1 UNK         0.0800 
    133 H133        2.0111  -17.6438  -48.6147 H         1 UNK         0.0800 
    134 H134        0.4528  -18.4766  -50.0908 H         1 UNK         0.0800 
    135 H135        0.2619  -18.1233  -51.7842 H         1 UNK         0.0800 
    136 H136       -1.4743  -16.6501  -52.3773 H         1 UNK         0.1150 
    137 H137       -3.1455  -13.9283  -49.5209 H         1 UNK         0.1150 
    138 H138        0.2886  -16.2494  -48.4840 H         1 UNK         0.1150 
    139 H139       -0.4833  -14.5708  -46.9597 H         1 UNK         0.0800 
    140 H140       -1.5041  -13.3026  -47.5837 H         1 UNK         0.0800 
    141 H141       -2.7335  -16.6932  -44.8089 H         1 UNK         0.0800 
    142 H142       -1.1388  -16.2772  -45.3546 H         1 UNK         0.0800 
    143 H143       -1.5617  -17.5076  -47.5047 H         1 UNK         0.0600 
    144 H144       -1.1235  -18.7055  -45.0078 H         1 UNK         0.3000 
    145 H145       -0.4766  -22.0084  -46.1640 H         1 UNK         0.0600 
    146 H146        1.6516  -21.4846  -44.9420 H         1 UNK         0.0600 
    147 H147        1.3564  -19.7604  -45.1675 H         1 UNK         0.0600 
    148 H148        1.6333  -20.7946  -46.5580 H         1 UNK         0.0600 
    149 H149       -0.4744  -20.5846  -43.6241 H         1 UNK         0.3000 
    150 H150       -3.7862  -21.5667  -42.7007 H         1 UNK         0.0600 
    151 H151       -2.3675  -23.5610  -42.1948 H         1 UNK         0.0600 
    152 H152       -2.5714  -22.5448  -40.7770 H         1 UNK         0.0600 
    153 H153       -1.0542  -22.5111  -41.6762 H         1 UNK         0.0600 
    154 H154       -1.7314  -20.1548  -41.3000 H         1 UNK         0.3000 
    155 H155       -2.5455  -16.8870  -42.4539 H         1 UNK         0.0600 
    156 H156       -4.2684  -17.4047  -40.7127 H         1 UNK         0.0600 
    157 H157       -2.9227  -16.4882  -40.0550 H         1 UNK         0.0600 
    158 H158       -3.0461  -18.2206  -39.7441 H         1 UNK         0.0600 
    159 H159       -0.7160  -17.4503  -40.5059 H         1 UNK         0.3000 
    160 H160        1.5459  -18.2908  -40.8145 H         1 UNK         0.0600 
    161 H161        3.5288  -18.2344  -42.2713 H         1 UNK         0.0600 
    162 H162        2.3727  -19.3784  -42.9179 H         1 UNK         0.0600 
    163 H163        2.5475  -17.7983  -43.6734 H         1 UNK         0.0600 
    164 H164        1.6891  -15.8029  -42.4658 H         1 UNK         0.3000 
    165 H165        0.8189  -13.7507  -39.7830 H         1 UNK         0.0600 
    166 H166        2.9438  -12.5059  -40.0512 H         1 UNK         0.0600 
    167 H167        3.2015  -13.9536  -39.0896 H         1 UNK         0.0600 
    168 H168        3.7105  -13.9186  -40.7716 H         1 UNK         0.0600 
    169 H169        1.9803  -13.2971  -42.4091 H         1 UNK         0.3000 
    170 H170       -0.9767  -13.7267  -44.2401 H         1 UNK         0.0600 
    171 H171        0.1153  -10.9732  -43.4542 H         1 UNK         0.0600 
    172 H172       -0.8609  -11.3393  -44.8784 H         1 UNK         0.0600 
    173 H173       -1.5560  -11.4938  -43.2737 H         1 UNK         0.0600 
    174 H174        1.4042  -12.4284  -45.0135 H         1 UNK         0.3000 
    175 H175        2.5919  -15.0386  -46.6504 H         1 UNK         0.0600 
    176 H176        3.5271  -12.3533  -45.4928 H         1 UNK         0.0600 
    177 H177        4.1530  -13.1187  -46.9469 H         1 UNK         0.0600 
    178 H178        2.4848  -12.5862  -46.8951 H         1 UNK         0.0600 
    179 H179        4.1904  -16.0287  -45.5321 H         1 UNK         0.3000 
    180 H180        6.6621  -15.1983  -43.6493 H         1 UNK         0.0600 
    181 H181        6.3123  -16.6455  -41.5909 H         1 UNK         0.0600 
    182 H182        4.5915  -16.2651  -41.6686 H         1 UNK         0.0600 
    183 H183        5.7702  -14.9886  -41.4110 H         1 UNK         0.0600 
    184 H184        5.0734  -17.6973  -43.7808 H         1 UNK         0.3000 
    185 H185        7.2310  -19.1400  -45.9723 H         1 UNK         0.0600 
    186 H186        5.3878  -20.6822  -45.4126 H         1 UNK         0.0600 
    187 H187        5.8788  -19.8088  -43.9749 H         1 UNK         0.0600 
    188 H188        4.3921  -19.3667  -44.8129 H         1 UNK         0.0600 
    189 H189        6.2185  -18.9323  -47.9494 H         1 UNK         0.3000 
    190 H190       -3.9663  -18.9765  -45.2661 H         1 UNK         0.3000 
    191 H191       -6.2228  -18.6194  -46.9519 H         1 UNK         0.0600 
    192 H192       -6.3776  -19.0853  -44.5206 H         1 UNK         0.0600 
    193 H193       -5.6717  -20.6843  -44.7525 H         1 UNK         0.0600 
    194 H194       -7.2579  -20.3114  -45.4203 H         1 UNK         0.0600 
    195 H195       -3.6852  -21.0534  -47.0184 H         1 UNK         0.3000 
    196 H196       -5.1135  -22.9062  -48.7718 H         1 UNK         0.0600 
    197 H197       -3.4851  -23.7763  -47.1473 H         1 UNK         0.0600 
    198 H198       -2.2107  -22.7413  -47.7903 H         1 UNK         0.0600 
    199 H199       -2.8478  -24.0512  -48.7603 H         1 UNK         0.0600 
    200 H200       -3.1617  -20.0696  -49.1783 H         1 UNK         0.3000 
    201 H201       -1.9616  -19.1092  -50.7443 H         1 UNK         0.0600 
    202 H202       -3.8352  -18.9723  -52.2311 H         1 UNK         0.0600 
    203 H203       -3.7089  -20.6345  -52.7304 H         1 UNK         0.0600 
    204 H204       -2.4812  -19.4669  -53.2154 H         1 UNK         0.0600 
    205 H205       -0.8215  -21.0044  -49.3358 H         1 UNK         0.3000 
    206 H206        0.8607  -22.4047  -49.0543 H         1 UNK         0.0600 
    207 H207        1.9340  -21.0848  -51.6117 H         1 UNK         0.0600 
    208 H208        2.1324  -20.5047  -49.9658 H         1 UNK         0.0600 
    209 H209        2.8999  -22.0025  -50.4541 H         1 UNK         0.0600 
    210 H210        1.9191  -23.0553  -52.2113 H         1 UNK         0.3000 
    211 H211        1.4840  -25.8408  -52.0291 H         1 UNK         0.0600 
    212 H212        2.2814  -24.0974  -54.4220 H         1 UNK         0.0600 
    213 H213        2.4746  -25.8436  -54.3267 H         1 UNK         0.0600 
    214 H214        3.3851  -24.8066  -53.2419 H         1 UNK         0.0600 
    215 H215       -0.7126  -23.4115  -53.1504 H         1 UNK         0.3000 
    216 H216       -2.2309  -25.0521  -54.9954 H         1 UNK         0.0600 
    217 H217       -3.8202  -23.1325  -54.8872 H         1 UNK         0.0600 
    218 H218       -2.1744  -22.5667  -55.1307 H         1 UNK         0.0600 
    219 H219       -2.9179  -22.4687  -53.5378 H         1 UNK         0.0600 
    220 H220       -1.9882  -25.0744  -51.6108 H         1 UNK         0.3000 
    221 H221       -2.8332  -26.2469  -49.9944 H         1 UNK         0.0600 
    222 H222       -4.3720  -27.8388  -52.1084 H         1 UNK         0.0600 
    223 H223       -2.7282  -28.1607  -51.5581 H         1 UNK         0.0600 
    224 H224       -4.0798  -28.3391  -50.4494 H         1 UNK         0.0600 
    225 H225       -5.4713  -25.3521  -52.1707 H         1 UNK         0.3000 
    226 H226       -6.9046  -23.8855  -50.1582 H         1 UNK         0.0600 
    227 H227       -7.6672  -26.1469  -49.4205 H         1 UNK         0.0600 
    228 H228       -9.0048  -25.2911  -50.1546 H         1 UNK         0.0600 
    229 H229       -8.1639  -26.5399  -51.0649 H         1 UNK         0.0600 
    230 H230       -6.1106  -24.4946  -53.3757 H         1 UNK         0.3000 
    231 H231       -8.6004  -23.9875  -54.6517 H         1 UNK         0.0600 
    232 H232       -7.2292  -24.0338  -56.7086 H         1 UNK         0.0600 
    233 H233       -6.7710  -25.3474  -55.6378 H         1 UNK         0.0600 
    234 H234       -5.7528  -23.9159  -55.7648 H         1 UNK         0.0600 
    235 H235       -6.5602  -21.6757  -53.1336 H         1 UNK         0.3000 
    236 H236       -8.0144  -19.4798  -54.3507 H         1 UNK         0.0600 
    237 H237       -4.9629  -19.7008  -54.6841 H         1 UNK         0.0600 
    238 H238       -6.1454  -19.6955  -55.9888 H         1 UNK         0.0600 
    239 H239       -5.9035  -18.2535  -55.0185 H         1 UNK         0.0600 
    240 H240       -7.5412  -17.4586  -53.2716 H         1 UNK         0.3000 
    241 H241       -7.3116  -16.0900  -51.5993 H         1 UNK         0.0600 
    242 H242       -8.8173  -18.8056  -50.8393 H         1 UNK         0.3800 
    243 H243       -9.0683  -18.5267  -49.1359 H         1 UNK         0.3800 
    244 H244       -4.8693  -17.6861  -50.7211 H         1 UNK         0.0800 
    245 H245       -5.2105  -16.0287  -50.3272 H         1 UNK         0.0800 
    246 H246       -4.1543  -14.0733  -51.6439 H         1 UNK         0.0800 
    247 H247       -3.0129  -14.3825  -52.9281 H         1 UNK         0.0800 
@<TRIPOS>BOND
     1    1    2 1    
     2    1  127 1    
     3    1  128 1    
     4    1  129 1    
     5    2    3 2    
     6    2    4 am   BACKBONE|DICT|INTERRES
     7    4    5 1    
     8    4  130 1    
     9    5    6 1    
    10    5   65 1    
    11    5  131 1    
    12    6    7 1    
    13    6  132 1    
    14    6  133 1    
    15    7    8 1    
    16    8    9 1    
    17    8  134 1    
    18    8  135 1    
    19    9   10 ar   
    20    9   14 ar   
    21   10   11 ar   
    22   10  136 1    
    23   11   12 ar   
    24   11  126 1    
    25   12   13 ar   
    26   12  137 1    
    27   13   14 ar   
    28   13   15 1    
    29   14  138 1    
    30   15   16 1    
    31   15  139 1    
    32   15  140 1    
    33   16   17 1    
    34   17   18 1    
    35   17  141 1    
    36   17  142 1    
    37   18   19 1    
    38   18   67 1    
    39   18  143 1    
    40   19   20 am   BACKBONE|DICT|INTERRES
    41   19  144 1    
    42   20   21 2    
    43   20   22 1    
    44   22   23 1    
    45   22   24 1    
    46   22  145 1    
    47   23  146 1    
    48   23  147 1    
    49   23  148 1    
    50   24   25 am   BACKBONE|DICT|INTERRES
    51   24  149 1    
    52   25   26 2    
    53   25   27 1    
    54   27   28 1    
    55   27   29 1    
    56   27  150 1    
    57   28  151 1    
    58   28  152 1    
    59   28  153 1    
    60   29   30 am   BACKBONE|DICT|INTERRES
    61   29  154 1    
    62   30   31 2    
    63   30   32 1    
    64   32   33 1    
    65   32   34 1    
    66   32  155 1    
    67   33  156 1    
    68   33  157 1    
    69   33  158 1    
    70   34   35 am   BACKBONE|DICT|INTERRES
    71   34  159 1    
    72   35   36 2    
    73   35   37 1    
    74   37   38 1    
    75   37   39 1    
    76   37  160 1    
    77   38  161 1    
    78   38  162 1    
    79   38  163 1    
    80   39   40 am   BACKBONE|DICT|INTERRES
    81   39  164 1    
    82   40   41 2    
    83   40   42 1    
    84   42   43 1    
    85   42   44 1    
    86   42  165 1    
    87   43  166 1    
    88   43  167 1    
    89   43  168 1    
    90   44   45 am   BACKBONE|DICT|INTERRES
    91   44  169 1    
    92   45   46 2    
    93   45   47 1    
    94   47   48 1    
    95   47   49 1    
    96   47  170 1    
    97   48  171 1    
    98   48  172 1    
    99   48  173 1    
   100   49   50 am   BACKBONE|DICT|INTERRES
   101   49  174 1    
   102   50   51 2    
   103   50   52 1    
   104   52   53 1    
   105   52   54 1    
   106   52  175 1    
   107   53  176 1    
   108   53  177 1    
   109   53  178 1    
   110   54   55 am   BACKBONE|DICT|INTERRES
   111   54  179 1    
   112   55   56 2    
   113   55   57 1    
   114   57   58 1    
   115   57   59 1    
   116   57  180 1    
   117   58  181 1    
   118   58  182 1    
   119   58  183 1    
   120   59   60 am   BACKBONE|DICT|INTERRES
   121   59  184 1    
   122   60   61 2    
   123   60   62 1    
   124   62   63 1    
   125   62   64 1    
   126   62  185 1    
   127   63  186 1    
   128   63  187 1    
   129   63  188 1    
   130   64   65 am   BACKBONE|DICT|INTERRES
   131   64  189 1    
   132   65   66 2    
   133   67   68 2    
   134   67   69 am   BACKBONE|DICT|INTERRES
   135   69   70 1    
   136   69  190 1    
   137   70   71 1    
   138   70   72 1    
   139   70  191 1    
   140   71  192 1    
   141   71  193 1    
   142   71  194 1    
   143   72   73 2    
   144   72   74 am   BACKBONE|DICT|INTERRES
   145   74   75 1    
   146   74  195 1    
   147   75   76 1    
   148   75   77 1    
   149   75  196 1    
   150   76  197 1    
   151   76  198 1    
   152   76  199 1    
   153   77   78 2    
   154   77   79 am   BACKBONE|DICT|INTERRES
   155   79   80 1    
   156   79  200 1    
   157   80   81 1    
   158   80   82 1    
   159   80  201 1    
   160   81  202 1    
   161   81  203 1    
   162   81  204 1    
   163   82   83 2    
   164   82   84 am   BACKBONE|DICT|INTERRES
   165   84   85 1    
   166   84  205 1    
   167   85   86 1    
   168   85   87 1    
   169   85  206 1    
   170   86  207 1    
   171   86  208 1    
   172   86  209 1    
   173   87   88 2    
   174   87   89 am   BACKBONE|DICT|INTERRES
   175   89   90 1    
   176   89  210 1    
   177   90   91 1    
   178   90   92 1    
   179   90  211 1    
   180   91  212 1    
   181   91  213 1    
   182   91  214 1    
   183   92   93 2    
   184   92   94 am   BACKBONE|DICT|INTERRES
   185   94   95 1    
   186   94  215 1    
   187   95   96 1    
   188   95   97 1    
   189   95  216 1    
   190   96  217 1    
   191   96  218 1    
   192   96  219 1    
   193   97   98 2    
   194   97   99 am   BACKBONE|DICT|INTERRES
   195   99  100 1    
   196   99  220 1    
   197  100  101 1    
   198  100  102 1    
   199  100  221 1    
   200  101  222 1    
   201  101  223 1    
   202  101  224 1    
   203  102  103 2    
   204  102  104 am   BACKBONE|DICT|INTERRES
   205  104  105 1    
   206  104  225 1    
   207  105  106 1    
   208  105  107 1    
   209  105  226 1    
   210  106  227 1    
   211  106  228 1    
   212  106  229 1    
   213  107  108 2    
   214  107  109 am   BACKBONE|DICT|INTERRES
   215  109  110 1    
   216  109  230 1    
   217  110  111 1    
   218  110  112 1    
   219  110  231 1    
   220  111  232 1    
   221  111  233 1    
   222  111  234 1    
   223  112  113 2    
   224  112  114 am   BACKBONE|DICT|INTERRES
   225  114  115 1    
   226  114  235 1    
   227  115  116 1    
   228  115  117 1    
   229  115  236 1    
   230  116  237 1    
   231  116  238 1    
   232  116  239 1    
   233  117  118 2    
   234  117  119 am   BACKBONE|DICT|INTERRES
   235  119  120 1    
   236  119  240 1    
   237  120  121 1    
   238  120  124 1    
   239  120  241 1    
   240  121  122 am   BACKBONE|DICT|INTERRES
   241  121  123 2    
   242  122  242 1    
   243  122  243 1    
   244  124  125 1    
   245  124  244 1    
   246  124  245 1    
   247  125  126 1    
   248  126  246 1    
   249  126  247 1    
@<TRIPOS>SUBSTRUCTURE
     1 UNK         1 GROUP             0       ****    0 ROOT    
