@<TRIPOS>MOLECULE
3R540
247   249    1
SMALL
USER_CHARGES


@<TRIPOS>ATOM
      1 CA         -3.1731  -10.4482  -47.0365 C.3       0 UNK        -0.1800 
      2 C          -2.9222  -11.6068  -47.9914 C.2       0 UNK         0.5000 
      3 O          -3.0282  -11.4316  -49.2043 O.2       0 UNK        -0.5000 
      4 N          -2.5863  -12.7820  -47.4451 N.am      1 UNK        -0.5000 
      5 CA         -2.2743  -14.0003  -48.1972 C.3       1 UNK         0.1400 
      6 C6         -2.5183  -15.2625  -47.3272 C.3       23 UNK        -0.0398 
      7 S7         -2.4546  -16.8311  -48.2561 S.3       23 UNK        -0.2404 
      8 C8         -0.8531  -17.5014  -47.7075 C.3       23 UNK        -0.0205 
      9 C9         -0.1479  -18.2160  -48.8452 C.ar      23 UNK        -0.0193 
     10 C10         0.4006  -17.4731  -49.8905 C.ar      23 UNK        -0.1150 
     11 C11         0.9872  -18.1112  -50.9838 C.ar      23 UNK        -0.0193 
     12 C12         1.0888  -19.5041  -50.9955 C.ar      23 UNK        -0.1150 
     13 C13         0.5571  -20.2605  -49.9474 C.ar      23 UNK        -0.0193 
     14 C14        -0.0701  -19.6093  -48.8790 C.ar      23 UNK        -0.1150 
     15 C15         0.5744  -21.7789  -50.0243 C.3       23 UNK        -0.0205 
     16 S16         1.9911  -22.5490  -49.1698 S.3       23 UNK        -0.2404 
     17 C17         1.6694  -22.2439  -47.3966 C.3       23 UNK        -0.0398 
     18 CA          0.7638  -23.3079  -46.7233 C.3       11 UNK         0.1400 
     19 N           0.9715  -23.3598  -45.2742 N.am      11 UNK        -0.5000 
     20 C           0.4953  -24.3147  -44.4626 C.2       10 UNK         0.5000 
     21 O          -0.1391  -25.2935  -44.8525 O.2       10 UNK        -0.5000 
     22 CA          0.7181  -24.1068  -42.9541 C.3       10 UNK         0.1400 
     23 CB          2.1395  -24.5240  -42.5493 C.3       10 UNK        -0.1800 
     24 N           0.4796  -22.7222  -42.5449 N.am      10 UNK        -0.5000 
     25 C          -0.7144  -22.1148  -42.5981 C.2       9 UNK         0.5000 
     26 O          -1.7509  -22.6750  -42.9545 O.2       9 UNK        -0.5000 
     27 CA         -0.7465  -20.6198  -42.2332 C.3       9 UNK         0.1400 
     28 CB         -0.9122  -20.4452  -40.7161 C.3       9 UNK        -0.1800 
     29 N           0.4319  -19.8719  -42.6798 N.am      9 UNK        -0.5000 
     30 C           0.8696  -19.7688  -43.9427 C.2       8 UNK         0.5000 
     31 O           0.3471  -20.3615  -44.8875 O.2       8 UNK        -0.5000 
     32 CA          2.0914  -18.8644  -44.2077 C.3       8 UNK         0.1400 
     33 CB          1.8784  -17.9847  -45.4478 C.3       8 UNK        -0.1800 
     34 N           2.4325  -17.9947  -43.0819 N.am      8 UNK        -0.5000 
     35 C           3.1759  -18.3413  -42.0239 C.2       7 UNK         0.5000 
     36 O           3.6558  -19.4628  -41.8606 O.2       7 UNK        -0.5000 
     37 CA          3.3724  -17.2573  -40.9525 C.3       7 UNK         0.1400 
     38 CB          4.4714  -16.2691  -41.3734 C.3       7 UNK        -0.1800 
     39 N           2.1266  -16.5282  -40.7112 N.am      7 UNK        -0.5000 
     40 C           1.1502  -16.9494  -39.8951 C.2       6 UNK         0.5000 
     41 O           1.2191  -17.9793  -39.2245 O.2       6 UNK        -0.5000 
     42 CA         -0.1213  -16.0818  -39.8194 C.3       6 UNK         0.1400 
     43 CB          0.0251  -15.0071  -38.7316 C.3       6 UNK        -0.1800 
     44 N          -0.4411  -15.4347  -41.0923 N.am      6 UNK        -0.5000 
     45 C          -0.9259  -16.0736  -42.1659 C.2       5 UNK         0.5000 
     46 O          -1.2301  -17.2641  -42.1707 O.2       5 UNK        -0.5000 
     47 CA         -1.0872  -15.2540  -43.4605 C.3       5 UNK         0.1400 
     48 CB         -2.5352  -14.7580  -43.5943 C.3       5 UNK        -0.1800 
     49 N          -0.1833  -14.1052  -43.5702 N.am      5 UNK        -0.5000 
     50 C           1.1540  -14.1448  -43.5617 C.2       4 UNK         0.5000 
     51 O           1.7959  -15.1889  -43.4333 O.2       4 UNK        -0.5000 
     52 CA          1.8813  -12.7906  -43.7172 C.3       4 UNK         0.1400 
     53 CB          3.3797  -12.8995  -43.3841 C.3       4 UNK        -0.1800 
     54 N           1.7443  -12.2022  -45.0535 N.am      4 UNK        -0.5000 
     55 C           0.6231  -11.7132  -45.6006 C.2       3 UNK         0.5000 
     56 O          -0.4785  -11.7456  -45.0521 O.2       3 UNK        -0.5000 
     57 CA          0.7305  -11.0909  -47.0048 C.3       3 UNK         0.1400 
     58 CB          0.6819   -9.5597  -46.8914 C.3       3 UNK        -0.1800 
     59 N           1.9319  -11.4570  -47.7577 N.am      3 UNK        -0.5000 
     60 C           2.3487  -12.6100  -48.3134 C.2       2 UNK         0.5000 
     61 O           3.4197  -12.6181  -48.9173 O.2       2 UNK        -0.5000 
     62 CA          1.5827  -13.9571  -48.2464 C.3       2 UNK         0.1400 
     63 CB          2.3043  -14.9392  -47.3086 C.3       2 UNK        -0.1800 
     64 N           0.1626  -13.9214  -47.8911 N.am      2 UNK        -0.5000 
     65 C          -0.8436  -13.9208  -48.7776 C.2       1 UNK         0.5000 
     66 O          -0.6760  -13.8539  -49.9952 O.2       1 UNK        -0.5000 
     67 C          -0.7243  -23.0783  -47.0478 C.2       11 UNK         0.5000 
     68 O          -1.2816  -23.7856  -47.8873 O.2       11 UNK        -0.5000 
     69 N          -1.3498  -22.1143  -46.3564 N.am      12 UNK        -0.5000 
     70 CA         -2.7651  -21.7693  -46.4975 C.3       12 UNK         0.1400 
     71 CB         -3.1001  -20.5709  -45.5986 C.3       12 UNK        -0.1800 
     72 C          -3.7029  -22.9554  -46.2078 C.2       12 UNK         0.5000 
     73 O          -4.6898  -23.1299  -46.9206 O.2       12 UNK        -0.5000 
     74 N          -3.3533  -23.7669  -45.2019 N.am      13 UNK        -0.5000 
     75 CA         -4.0415  -25.0083  -44.8653 C.3       13 UNK         0.1400 
     76 CB         -3.6375  -25.4468  -43.4485 C.3       13 UNK        -0.1800 
     77 C          -3.7736  -26.1301  -45.8864 C.2       13 UNK         0.5000 
     78 O          -4.7258  -26.7186  -46.3998 O.2       13 UNK        -0.5000 
     79 N          -2.4918  -26.4297  -46.1411 N.am      14 UNK        -0.5000 
     80 CA         -2.0674  -27.6028  -46.9086 C.3       14 UNK         0.1400 
     81 CB         -0.5941  -27.9112  -46.6009 C.3       14 UNK        -0.1800 
     82 C          -2.2722  -27.4743  -48.4270 C.2       14 UNK         0.5000 
     83 O          -2.6676  -28.4522  -49.0633 O.2       14 UNK        -0.5000 
     84 N          -1.9768  -26.2937  -48.9833 N.am      15 UNK        -0.5000 
     85 CA         -1.9659  -26.0337  -50.4248 C.3       15 UNK         0.1400 
     86 CB         -0.6039  -25.4294  -50.8076 C.3       15 UNK        -0.1800 
     87 C          -3.1203  -25.1206  -50.8707 C.2       15 UNK         0.5000 
     88 O          -3.1657  -24.7524  -52.0452 O.2       15 UNK        -0.5000 
     89 N          -4.0211  -24.7542  -49.9455 N.am      16 UNK        -0.5000 
     90 CA         -5.2174  -23.9305  -50.1658 C.3       16 UNK         0.1400 
     91 CB         -6.2506  -24.7041  -51.0125 C.3       16 UNK        -0.1800 
     92 C          -4.8880  -22.5406  -50.7512 C.2       16 UNK         0.5000 
     93 O          -5.5555  -22.0921  -51.6827 O.2       16 UNK        -0.5000 
     94 N          -3.8261  -21.9098  -50.2264 N.am      17 UNK        -0.5000 
     95 CA         -3.2498  -20.6377  -50.6878 C.3       17 UNK         0.1400 
     96 CB         -4.2160  -19.4614  -50.4378 C.3       17 UNK        -0.1800 
     97 C          -2.7513  -20.7161  -52.1474 C.2       17 UNK         0.5000 
     98 O          -3.0168  -19.8168  -52.9481 O.2       17 UNK        -0.5000 
     99 N          -2.0654  -21.8284  -52.4559 N.am      18 UNK        -0.5000 
    100 CA        -1.5552  -22.2274  -53.7710 C.3       18 UNK         0.1400 
    101 CB        -0.4620  -21.2535  -54.2589 C.3       18 UNK        -0.1800 
    102 C         -2.6988  -22.4217  -54.7852 C.2       18 UNK         0.5000 
    103 O         -2.6790  -21.8308  -55.8642 O.2       18 UNK        -0.5000 
    104 N         -3.7034  -23.2186  -54.3909 N.am      19 UNK        -0.5000 
    105 CA        -4.9621  -23.4655  -55.1062 C.3       19 UNK         0.1400 
    106 CB        -4.7126  -24.3211  -56.3652 C.3       19 UNK        -0.1800 
    107 C         -5.7291  -22.1571  -55.4010 C.2       19 UNK         0.5000 
    108 O         -6.1861  -21.9341  -56.5233 O.2       19 UNK        -0.5000 
    109 N         -5.8084  -21.3032  -54.3724 N.am      20 UNK        -0.5000 
    110 CA        -6.3957  -19.9636  -54.3283 C.3       20 UNK         0.1400 
    111 CB        -7.9059  -20.0130  -54.6379 C.3       20 UNK        -0.1800 
    112 C         -5.6650  -18.8924  -55.1662 C.2       20 UNK         0.5000 
    113 O         -6.1505  -17.7609  -55.2208 O.2       20 UNK        -0.5000 
    114 N         -4.5099  -19.2128  -55.7716 N.am      21 UNK        -0.5000 
    115 CA        -3.7241  -18.2814  -56.5900 C.3       21 UNK         0.1400 
    116 CB        -2.5904  -19.0313  -57.3029 C.3       21 UNK        -0.1800 
    117 C         -3.1592  -17.0898  -55.7945 C.2       21 UNK         0.5000 
    118 O         -3.0430  -15.9967  -56.3508 O.2       21 UNK        -0.5000 
    119 N         -2.8533  -17.3117  -54.5111 N.am      22 UNK        -0.5000 
    120 CA        -2.4483  -16.2706  -53.5547 C.3       22 UNK         0.1400 
    121 C         -3.6489  -15.6751  -52.7568 C.2       22 UNK         0.5000 
    122 N         -4.8985  -16.0069  -53.0649 N.am      22 UNK        -0.7600 
    123 O         -3.4517  -14.8754  -51.8476 O.2       22 UNK        -0.5000 
    124 C124       -1.3217  -16.7646  -52.6134 C.3       23 UNK        -0.0398 
    125 S125        0.1751  -17.3252  -53.5056 S.3       23 UNK        -0.2404 
    126 C126        1.4327  -17.2936  -52.1844 C.3       23 UNK        -0.0205 
    127 H127       -2.9509  -10.7172  -46.0034 H         1 UNK         0.0600 
    128 H128       -4.2161  -10.1365  -47.0909 H         1 UNK         0.0600 
    129 H129       -2.5481   -9.5972  -47.3064 H         1 UNK         0.0600 
    130 H130       -2.5025  -12.8396  -46.4402 H         1 UNK         0.3000 
    131 H131       -2.9626  -14.0565  -49.0443 H         1 UNK         0.0600 
    132 H132       -1.8328  -15.3013  -46.4814 H         1 UNK         0.0800 
    133 H133       -3.5158  -15.2059  -46.8890 H         1 UNK         0.0800 
    134 H134       -0.2089  -16.7002  -47.3509 H         1 UNK         0.0800 
    135 H135       -1.0079  -18.1699  -46.8600 H         1 UNK         0.0800 
    136 H136        0.3152  -16.3968  -49.8812 H         1 UNK         0.1150 
    137 H137        1.5388  -19.9984  -51.8445 H         1 UNK         0.1150 
    138 H138       -0.5218  -20.1823  -48.0840 H         1 UNK         0.1150 
    139 H139       -0.3665  -22.1721  -49.6484 H         1 UNK         0.0800 
    140 H140        0.6136  -22.0864  -51.0703 H         1 UNK         0.0800 
    141 H141        1.3078  -21.2303  -47.2342 H         1 UNK         0.0800 
    142 H142        2.6503  -22.2652  -46.9199 H         1 UNK         0.0800 
    143 H143        1.0379  -24.2890  -47.1177 H         1 UNK         0.0600 
    144 H144        1.4122  -22.5540  -44.8560 H         1 UNK         0.3000 
    145 H145        0.0094  -24.7450  -42.4218 H         1 UNK         0.0600 
    146 H146        2.2782  -24.4533  -41.4703 H         1 UNK         0.0600 
    147 H147        2.3380  -25.5582  -42.8342 H         1 UNK         0.0600 
    148 H148        2.8965  -23.9005  -43.0266 H         1 UNK         0.0600 
    149 H149        1.2792  -22.1862  -42.2408 H         1 UNK         0.3000 
    150 H150       -1.6155  -20.1772  -42.7228 H         1 UNK         0.0600 
    151 H151       -1.0549  -19.3973  -40.4526 H         1 UNK         0.0600 
    152 H152       -1.7837  -20.9906  -40.3517 H         1 UNK         0.0600 
    153 H153       -0.0415  -20.8109  -40.1704 H         1 UNK         0.0600 
    154 H154        0.9112  -19.3328  -41.9746 H         1 UNK         0.3000 
    155 H155        2.9351  -19.5269  -44.4105 H         1 UNK         0.0600 
    156 H156        1.0401  -17.3015  -45.3111 H         1 UNK         0.0600 
    157 H157        1.6803  -18.5862  -46.3358 H         1 UNK         0.0600 
    158 H158        2.7661  -17.3875  -45.6554 H         1 UNK         0.0600 
    159 H159        2.1032  -17.0347  -43.1452 H         1 UNK         0.3000 
    160 H160        3.6917  -17.7442  -40.0284 H         1 UNK         0.0600 
    161 H161        5.4225  -16.7836  -41.5151 H         1 UNK         0.0600 
    162 H162        4.6259  -15.5038  -40.6127 H         1 UNK         0.0600 
    163 H163        4.2297  -15.7664  -42.3103 H         1 UNK         0.0600 
    164 H164        1.9676  -15.7088  -41.2814 H         1 UNK         0.3000 
    165 H165       -0.9532  -16.7339  -39.5442 H         1 UNK         0.0600 
    166 H166       -0.8934  -14.4305  -38.6209 H         1 UNK         0.0600 
    167 H167        0.2420  -15.4597  -37.7631 H         1 UNK         0.0600 
    168 H168        0.8342  -14.3113  -38.9574 H         1 UNK         0.0600 
    169 H169       -0.2425  -14.4484  -41.1692 H         1 UNK         0.3000 
    170 H170       -0.8702  -15.9232  -44.2952 H         1 UNK         0.0600 
    171 H171       -2.8175  -14.1194  -42.7562 H         1 UNK         0.0600 
    172 H172       -2.6814  -14.1843  -44.5084 H         1 UNK         0.0600 
    173 H173       -3.2340  -15.5953  -43.6191 H         1 UNK         0.0600 
    174 H174       -0.6145  -13.2033  -43.7481 H         1 UNK         0.3000 
    175 H175        1.4333  -12.1017  -42.9982 H         1 UNK         0.0600 
    176 H176        3.9006  -13.5596  -44.0792 H         1 UNK         0.0600 
    177 H177        3.8646  -11.9239  -43.4209 H         1 UNK         0.0600 
    178 H178        3.5299  -13.2954  -42.3789 H         1 UNK         0.0600 
    179 H179        2.5960  -12.1280  -45.5904 H         1 UNK         0.3000 
    180 H180       -0.1390  -11.3854  -47.5850 H         1 UNK         0.0600 
    181 H181        1.5480   -9.1667  -46.3571 H         1 UNK         0.0600 
    182 H182       -0.2092   -9.2319  -46.3541 H         1 UNK         0.0600 
    183 H183        0.6532   -9.0914  -47.8756 H         1 UNK         0.0600 
    184 H184        2.5572  -10.6764  -47.8921 H         1 UNK         0.3000 
    185 H185        1.6758  -14.3807  -49.2489 H         1 UNK         0.0600 
    186 H186        3.3838  -14.9256  -47.4645 H         1 UNK         0.0600 
    187 H187        2.1245  -14.7169  -46.2588 H         1 UNK         0.0600 
    188 H188        1.9780  -15.9604  -47.4980 H         1 UNK         0.0600 
    189 H189       -0.0527  -13.9506  -46.9070 H         1 UNK         0.3000 
    190 H190       -0.8073  -21.5585  -45.6984 H         1 UNK         0.3000 
    191 H191       -2.9223  -21.4637  -47.5328 H         1 UNK         0.0600 
    192 H192       -2.4411  -19.7267  -45.7979 H         1 UNK         0.0600 
    193 H193       -4.1229  -20.2327  -45.7682 H         1 UNK         0.0600 
    194 H194       -3.0108  -20.8235  -44.5427 H         1 UNK         0.0600 
    195 H195       -2.5591  -23.5127  -44.6236 H         1 UNK         0.3000 
    196 H196       -5.1160  -24.8128  -44.8594 H         1 UNK         0.0600 
    197 H197       -4.1357  -26.3758  -43.1687 H         1 UNK         0.0600 
    198 H198       -3.9151  -24.6934  -42.7111 H         1 UNK         0.0600 
    199 H199       -2.5624  -25.6107  -43.3655 H         1 UNK         0.0600 
    200 H200       -1.7533  -25.9013  -45.6834 H         1 UNK         0.3000 
    201 H201       -2.6586  -28.4568  -46.5705 H         1 UNK         0.0600 
    202 H202       -0.4399  -28.0777  -45.5347 H         1 UNK         0.0600 
    203 H203        0.0605  -27.0956  -46.9111 H         1 UNK         0.0600 
    204 H204       -0.2653  -28.8116  -47.1214 H         1 UNK         0.0600 
    205 H205       -1.6879  -25.5159  -48.3929 H         1 UNK         0.3000 
    206 H206       -2.0794  -26.9650  -50.9828 H         1 UNK         0.0600 
    207 H207        0.2129  -26.0942  -50.5266 H         1 UNK         0.0600 
    208 H208       -0.5303  -25.2656  -51.8834 H         1 UNK         0.0600 
    209 H209       -0.4355  -24.4727  -50.3171 H         1 UNK         0.0600 
    210 H210       -3.8847  -25.0902  -49.0022 H         1 UNK         0.3000 
    211 H211       -5.6698  -23.7553  -49.1907 H         1 UNK         0.0600 
    212 H212       -5.8925  -24.8861  -52.0261 H         1 UNK         0.0600 
    213 H213       -7.1863  -24.1493  -51.0913 H         1 UNK         0.0600 
    214 H214       -6.4844  -25.6687  -50.5622 H         1 UNK         0.0600 
    215 H215       -3.3332  -22.3825  -49.4822 H         1 UNK         0.3000 
    216 H216       -2.3679  -20.4620  -50.0752 H         1 UNK         0.0600 
    217 H217       -3.7415  -18.5099  -50.6811 H         1 UNK         0.0600 
    218 H218       -4.5143  -19.4137  -49.3906 H         1 UNK         0.0600 
    219 H219       -5.1194  -19.5370  -51.0427 H         1 UNK         0.0600 
    220 H220       -1.9889  -22.5361  -51.7410 H         1 UNK         0.3000 
    221 H221       -1.0905  -23.2059  -53.6414 H         1 UNK         0.0600 
    222 H222       -0.8505  -20.2474  -54.4185 H         1 UNK         0.0600 
    223 H223        0.3530  -21.1859  -53.5399 H         1 UNK         0.0600 
    224 H224       -0.0332  -21.5899  -55.2032 H         1 UNK         0.0600 
    225 H225       -3.6108  -23.6844  -53.4899 H         1 UNK         0.3000 
    226 H226       -5.5921  -24.0455  -54.4305 H         1 UNK         0.0600 
    227 H227       -4.1901  -25.2445  -56.1156 H         1 UNK         0.0600 
    228 H228       -5.6539  -24.5993  -56.8405 H         1 UNK         0.0600 
    229 H229       -4.1166  -23.7884  -57.1067 H         1 UNK         0.0600 
    230 H230       -5.4379  -21.6157  -53.4771 H         1 UNK         0.3000 
    231 H231       -6.2886  -19.6416  -53.2917 H         1 UNK         0.0600 
    232 H232       -8.0987  -20.2621  -55.6816 H         1 UNK         0.0600 
    233 H233       -8.3779  -19.0496  -54.4419 H         1 UNK         0.0600 
    234 H234       -8.4116  -20.7516  -54.0159 H         1 UNK         0.0600 
    235 H235       -4.1362  -20.1479  -55.6612 H         1 UNK         0.3000 
    236 H236       -4.3910  -17.8783  -57.3549 H         1 UNK         0.0600 
    237 H237       -2.9729  -19.8713  -57.8831 H         1 UNK         0.0600 
    238 H238       -2.0617  -18.3724  -57.9926 H         1 UNK         0.0600 
    239 H239       -1.8566  -19.4153  -56.5936 H         1 UNK         0.0600 
    240 H240       -2.9764  -18.2431  -54.1219 H         1 UNK         0.3000 
    241 H241       -2.0364  -15.4265  -54.1103 H         1 UNK         0.0600 
    242 H242       -5.1062  -16.6216  -53.8420 H         1 UNK         0.3800 
    243 H243       -5.6547  -15.5990  -52.5394 H         1 UNK         0.3800 
    244 H244       -1.0273  -15.9632  -51.9336 H         1 UNK         0.0800 
    245 H245       -1.6831  -17.5828  -51.9885 H         1 UNK         0.0800 
    246 H246        1.6271  -16.2595  -51.8951 H         1 UNK         0.0800 
    247 H247        2.3725  -17.6881  -52.5730 H         1 UNK         0.0800 
@<TRIPOS>BOND
     1    1    2 1    
     2    1  127 1    
     3    1  128 1    
     4    1  129 1    
     5    2    3 2    
     6    2    4 am   BACKBONE|DICT|INTERRES
     7    4    5 1    
     8    4  130 1    
     9    5    6 1    
    10    5   65 1    
    11    5  131 1    
    12    6    7 1    
    13    6  132 1    
    14    6  133 1    
    15    7    8 1    
    16    8    9 1    
    17    8  134 1    
    18    8  135 1    
    19    9   10 ar   
    20    9   14 ar   
    21   10   11 ar   
    22   10  136 1    
    23   11   12 ar   
    24   11  126 1    
    25   12   13 ar   
    26   12  137 1    
    27   13   14 ar   
    28   13   15 1    
    29   14  138 1    
    30   15   16 1    
    31   15  139 1    
    32   15  140 1    
    33   16   17 1    
    34   17   18 1    
    35   17  141 1    
    36   17  142 1    
    37   18   19 1    
    38   18   67 1    
    39   18  143 1    
    40   19   20 am   BACKBONE|DICT|INTERRES
    41   19  144 1    
    42   20   21 2    
    43   20   22 1    
    44   22   23 1    
    45   22   24 1    
    46   22  145 1    
    47   23  146 1    
    48   23  147 1    
    49   23  148 1    
    50   24   25 am   BACKBONE|DICT|INTERRES
    51   24  149 1    
    52   25   26 2    
    53   25   27 1    
    54   27   28 1    
    55   27   29 1    
    56   27  150 1    
    57   28  151 1    
    58   28  152 1    
    59   28  153 1    
    60   29   30 am   BACKBONE|DICT|INTERRES
    61   29  154 1    
    62   30   31 2    
    63   30   32 1    
    64   32   33 1    
    65   32   34 1    
    66   32  155 1    
    67   33  156 1    
    68   33  157 1    
    69   33  158 1    
    70   34   35 am   BACKBONE|DICT|INTERRES
    71   34  159 1    
    72   35   36 2    
    73   35   37 1    
    74   37   38 1    
    75   37   39 1    
    76   37  160 1    
    77   38  161 1    
    78   38  162 1    
    79   38  163 1    
    80   39   40 am   BACKBONE|DICT|INTERRES
    81   39  164 1    
    82   40   41 2    
    83   40   42 1    
    84   42   43 1    
    85   42   44 1    
    86   42  165 1    
    87   43  166 1    
    88   43  167 1    
    89   43  168 1    
    90   44   45 am   BACKBONE|DICT|INTERRES
    91   44  169 1    
    92   45   46 2    
    93   45   47 1    
    94   47   48 1    
    95   47   49 1    
    96   47  170 1    
    97   48  171 1    
    98   48  172 1    
    99   48  173 1    
   100   49   50 am   BACKBONE|DICT|INTERRES
   101   49  174 1    
   102   50   51 2    
   103   50   52 1    
   104   52   53 1    
   105   52   54 1    
   106   52  175 1    
   107   53  176 1    
   108   53  177 1    
   109   53  178 1    
   110   54   55 am   BACKBONE|DICT|INTERRES
   111   54  179 1    
   112   55   56 2    
   113   55   57 1    
   114   57   58 1    
   115   57   59 1    
   116   57  180 1    
   117   58  181 1    
   118   58  182 1    
   119   58  183 1    
   120   59   60 am   BACKBONE|DICT|INTERRES
   121   59  184 1    
   122   60   61 2    
   123   60   62 1    
   124   62   63 1    
   125   62   64 1    
   126   62  185 1    
   127   63  186 1    
   128   63  187 1    
   129   63  188 1    
   130   64   65 am   BACKBONE|DICT|INTERRES
   131   64  189 1    
   132   65   66 2    
   133   67   68 2    
   134   67   69 am   BACKBONE|DICT|INTERRES
   135   69   70 1    
   136   69  190 1    
   137   70   71 1    
   138   70   72 1    
   139   70  191 1    
   140   71  192 1    
   141   71  193 1    
   142   71  194 1    
   143   72   73 2    
   144   72   74 am   BACKBONE|DICT|INTERRES
   145   74   75 1    
   146   74  195 1    
   147   75   76 1    
   148   75   77 1    
   149   75  196 1    
   150   76  197 1    
   151   76  198 1    
   152   76  199 1    
   153   77   78 2    
   154   77   79 am   BACKBONE|DICT|INTERRES
   155   79   80 1    
   156   79  200 1    
   157   80   81 1    
   158   80   82 1    
   159   80  201 1    
   160   81  202 1    
   161   81  203 1    
   162   81  204 1    
   163   82   83 2    
   164   82   84 am   BACKBONE|DICT|INTERRES
   165   84   85 1    
   166   84  205 1    
   167   85   86 1    
   168   85   87 1    
   169   85  206 1    
   170   86  207 1    
   171   86  208 1    
   172   86  209 1    
   173   87   88 2    
   174   87   89 am   BACKBONE|DICT|INTERRES
   175   89   90 1    
   176   89  210 1    
   177   90   91 1    
   178   90   92 1    
   179   90  211 1    
   180   91  212 1    
   181   91  213 1    
   182   91  214 1    
   183   92   93 2    
   184   92   94 am   BACKBONE|DICT|INTERRES
   185   94   95 1    
   186   94  215 1    
   187   95   96 1    
   188   95   97 1    
   189   95  216 1    
   190   96  217 1    
   191   96  218 1    
   192   96  219 1    
   193   97   98 2    
   194   97   99 am   BACKBONE|DICT|INTERRES
   195   99  100 1    
   196   99  220 1    
   197  100  101 1    
   198  100  102 1    
   199  100  221 1    
   200  101  222 1    
   201  101  223 1    
   202  101  224 1    
   203  102  103 2    
   204  102  104 am   BACKBONE|DICT|INTERRES
   205  104  105 1    
   206  104  225 1    
   207  105  106 1    
   208  105  107 1    
   209  105  226 1    
   210  106  227 1    
   211  106  228 1    
   212  106  229 1    
   213  107  108 2    
   214  107  109 am   BACKBONE|DICT|INTERRES
   215  109  110 1    
   216  109  230 1    
   217  110  111 1    
   218  110  112 1    
   219  110  231 1    
   220  111  232 1    
   221  111  233 1    
   222  111  234 1    
   223  112  113 2    
   224  112  114 am   BACKBONE|DICT|INTERRES
   225  114  115 1    
   226  114  235 1    
   227  115  116 1    
   228  115  117 1    
   229  115  236 1    
   230  116  237 1    
   231  116  238 1    
   232  116  239 1    
   233  117  118 2    
   234  117  119 am   BACKBONE|DICT|INTERRES
   235  119  120 1    
   236  119  240 1    
   237  120  121 1    
   238  120  124 1    
   239  120  241 1    
   240  121  122 am   BACKBONE|DICT|INTERRES
   241  121  123 2    
   242  122  242 1    
   243  122  243 1    
   244  124  125 1    
   245  124  244 1    
   246  124  245 1    
   247  125  126 1    
   248  126  246 1    
   249  126  247 1    
@<TRIPOS>SUBSTRUCTURE
     1 UNK         1 GROUP             0       ****    0 ROOT    
