@<TRIPOS>MOLECULE
3R540
247   249    1
SMALL
USER_CHARGES


@<TRIPOS>ATOM
      1 CA          0.9395  -11.1952  -52.3355 C.3       0 UNK        -0.1800 
      2 C           2.2983  -11.5658  -51.7571 C.2       0 UNK         0.5000 
      3 O           3.3256  -11.1111  -52.2616 O.2       0 UNK        -0.5000 
      4 N           2.3066  -12.3971  -50.7096 N.am      1 UNK        -0.5000 
      5 CA          3.5016  -12.8191  -49.9752 C.3       1 UNK         0.1400 
      6 C6          3.2248  -14.0868  -49.1250 C.3       23 UNK        -0.0398 
      7 S7          1.8753  -13.8878  -47.9061 S.3       23 UNK        -0.2404 
      8 C8          1.6142  -15.6086  -47.3749 C.3       23 UNK        -0.0205 
      9 C9          1.0859  -16.5057  -48.4871 C.ar      23 UNK        -0.0193 
     10 C10        -0.0591  -16.1465  -49.2022 C.ar      23 UNK        -0.1150 
     11 C11        -0.5615  -16.9673  -50.2151 C.ar      23 UNK        -0.0193 
     12 C12         0.0904  -18.1737  -50.4999 C.ar      23 UNK        -0.1150 
     13 C13         1.2368  -18.5489  -49.7913 C.ar      23 UNK        -0.0193 
     14 C14         1.7281  -17.7099  -48.7860 C.ar      23 UNK        -0.1150 
     15 C15         1.9575  -19.8531  -50.1153 C.3       23 UNK        -0.0205 
     16 S16         0.9639  -21.3343  -49.7376 S.3       23 UNK        -0.2404 
     17 C17         0.5003  -21.0345  -47.9992 C.3       23 UNK        -0.0398 
     18 CA          0.2551  -22.3190  -47.1710 C.3       11 UNK         0.1400 
     19 N           0.1314  -22.0160  -45.7439 N.am      11 UNK        -0.5000 
     20 C           0.0215  -22.9165  -44.7574 C.2       10 UNK         0.5000 
     21 O           0.0834  -24.1331  -44.9294 O.2       10 UNK        -0.5000 
     22 CA         -0.2663  -22.3652  -43.3484 C.3       10 UNK         0.1400 
     23 CB          1.0218  -21.8672  -42.6772 C.3       10 UNK        -0.1800 
     24 N          -1.2672  -21.2957  -43.3635 N.am      10 UNK        -0.5000 
     25 C          -2.5435  -21.4668  -43.7400 C.2       9 UNK         0.5000 
     26 O          -3.0223  -22.5586  -44.0475 O.2       9 UNK        -0.5000 
     27 CA         -3.4184  -20.2035  -43.8377 C.3       9 UNK         0.1400 
     28 CB         -3.9390  -19.7867  -42.4543 C.3       9 UNK        -0.1800 
     29 N          -2.7134  -19.0807  -44.4561 N.am      9 UNK        -0.5000 
     30 C          -2.2783  -19.0581  -45.7239 C.2       8 UNK         0.5000 
     31 O          -2.4855  -19.9621  -46.5315 O.2       8 UNK        -0.5000 
     32 CA         -1.4160  -17.8527  -46.1405 C.3       8 UNK         0.1400 
     33 CB         -2.2925  -16.6497  -46.5196 C.3       8 UNK        -0.1800 
     34 N          -0.4635  -17.4738  -45.0936 N.am      8 UNK        -0.5000 
     35 C           0.5613  -18.2444  -44.7000 C.2       7 UNK         0.5000 
     36 O           0.8409  -19.3212  -45.2216 O.2       7 UNK        -0.5000 
     37 CA          1.3815  -17.7652  -43.4916 C.3       7 UNK         0.1400 
     38 CB          2.5519  -16.8760  -43.9341 C.3       7 UNK        -0.1800 
     39 N           0.5500  -17.0541  -42.5225 N.am      7 UNK        -0.5000 
     40 C          -0.3176  -17.6583  -41.6979 C.2       6 UNK         0.5000 
     41 O          -0.4633  -18.8796  -41.6390 O.2       6 UNK        -0.5000 
     42 CA         -1.2043  -16.7412  -40.8328 C.3       6 UNK         0.1400 
     43 CB         -0.4708  -16.3369  -39.5455 C.3       6 UNK        -0.1800 
     44 N          -1.6332  -15.5351  -41.5450 N.am      6 UNK        -0.5000 
     45 C          -2.4282  -15.5381  -42.6241 C.2       5 UNK         0.5000 
     46 O          -2.9401  -16.5582  -43.0827 O.2       5 UNK        -0.5000 
     47 CA         -2.6537  -14.1933  -43.3441 C.3       5 UNK         0.1400 
     48 CB         -3.9583  -13.5425  -42.8619 C.3       5 UNK        -0.1800 
     49 N          -1.5554  -13.2305  -43.2042 N.am      5 UNK        -0.5000 
     50 C          -0.2837  -13.4358  -43.5730 C.2       4 UNK         0.5000 
     51 O           0.1296  -14.5017  -44.0387 O.2       4 UNK        -0.5000 
     52 CA          0.6859  -12.2667  -43.3410 C.3       4 UNK         0.1400 
     53 CB          0.8062  -11.9275  -41.8423 C.3       4 UNK        -0.1800 
     54 N           2.0054  -12.6087  -43.8639 N.am      4 UNK        -0.5000 
     55 C           2.9243  -11.7351  -44.2891 C.2       3 UNK         0.5000 
     56 O           2.7339  -10.5177  -44.3313 O.2       3 UNK        -0.5000 
     57 CA          4.2938  -12.2906  -44.7202 C.3       3 UNK         0.1400 
     58 CB          4.3717  -13.8299  -44.8079 C.3       3 UNK        -0.1800 
     59 N           4.6688  -11.6944  -45.9977 N.am      3 UNK        -0.5000 
     60 C           5.9179  -11.4681  -46.4176 C.2       2 UNK         0.5000 
     61 O           6.9183  -11.7314  -45.7472 O.2       2 UNK        -0.5000 
     62 CA          6.0640  -10.8941  -47.8441 C.3       2 UNK         0.1400 
     63 CB          7.5328  -10.7389  -48.2792 C.3       2 UNK        -0.1800 
     64 N           5.3744  -11.7511  -48.8110 N.am      2 UNK        -0.5000 
     65 C           4.0712  -11.6766  -49.1062 C.2       1 UNK         0.5000 
     66 O           3.3263  -10.7986  -48.6613 O.2       1 UNK        -0.5000 
     67 C          -0.9557  -23.1291  -47.6805 C.2       11 UNK         0.5000 
     68 O          -0.7573  -24.1766  -48.2930 O.2       11 UNK        -0.5000 
     69 N          -2.1776  -22.6740  -47.3626 N.am      12 UNK        -0.5000 
     70 CA         -3.4327  -23.3479  -47.7038 C.3       12 UNK         0.1400 
     71 CB         -4.6265  -22.4806  -47.2736 C.3       12 UNK        -0.1800 
     72 C          -3.5539  -24.7589  -47.1017 C.2       12 UNK         0.5000 
     73 O          -4.0495  -25.6633  -47.7743 O.2       12 UNK        -0.5000 
     74 N          -3.0868  -24.9305  -45.8585 N.am      13 UNK        -0.5000 
     75 CA         -3.0252  -26.2227  -45.1793 C.3       13 UNK         0.1400 
     76 CB         -2.7363  -26.0071  -43.6858 C.3       13 UNK        -0.1800 
     77 C          -1.9887  -27.1681  -45.8148 C.2       13 UNK         0.5000 
     78 O          -2.2991  -28.3362  -46.0498 O.2       13 UNK        -0.5000 
     79 N          -0.7860  -26.6458  -46.0915 N.am      14 UNK        -0.5000 
     80 CA          0.3350  -27.3902  -46.6660 C.3       14 UNK         0.1400 
     81 CB          1.6184  -26.5540  -46.5445 C.3       14 UNK        -0.1800 
     82 C           0.1022  -27.8140  -48.1270 C.2       14 UNK         0.5000 
     83 O           0.3794  -28.9621  -48.4768 O.2       14 UNK        -0.5000 
     84 N          -0.3976  -26.8859  -48.9525 N.am      15 UNK        -0.5000 
     85 CA         -0.6450  -27.0949  -50.3805 C.3       15 UNK         0.1400 
     86 CB         -0.5686  -25.7415  -51.1050 C.3       15 UNK        -0.1800 
     87 C          -1.9828  -27.8000  -50.6766 C.2       15 UNK         0.5000 
     88 O          -2.1893  -28.2118  -51.8187 O.2       15 UNK        -0.5000 
     89 N          -2.8507  -27.9296  -49.6597 N.am      16 UNK        -0.5000 
     90 CA         -4.2132  -28.4705  -49.7075 C.3       16 UNK         0.1400 
     91 CB         -4.2117  -29.9665  -50.0858 C.3       16 UNK        -0.1800 
     92 C          -5.1076  -27.6080  -50.6185 C.2       16 UNK         0.5000 
     93 O          -5.4486  -28.0147  -51.7309 O.2       16 UNK        -0.5000 
     94 N          -5.4181  -26.4056  -50.1188 N.am      17 UNK        -0.5000 
     95 CA         -5.9939  -25.2579  -50.8204 C.3       17 UNK         0.1400 
     96 CB         -7.3214  -25.5893  -51.5403 C.3       17 UNK        -0.1800 
     97 C          -4.9144  -24.5970  -51.6972 C.2       17 UNK         0.5000 
     98 O          -3.8134  -24.3694  -51.1956 O.2       17 UNK        -0.5000 
     99 N          -5.2395  -24.2483  -52.9507 N.am      18 UNK        -0.5000 
    100 CA        -4.4066  -23.5635  -53.9558 C.3       18 UNK         0.1400 
    101 CB        -3.1238  -24.3562  -54.2737 C.3       18 UNK        -0.1800 
    102 C         -4.0875  -22.0938  -53.6112 C.2       18 UNK         0.5000 
    103 O         -4.2851  -21.2168  -54.4523 O.2       18 UNK        -0.5000 
    104 N         -3.6770  -21.8341  -52.3627 N.am      19 UNK        -0.5000 
    105 CA        -3.4441  -20.5075  -51.7819 C.3       19 UNK         0.1400 
    106 CB        -2.8126  -20.6727  -50.3939 C.3       19 UNK        -0.1800 
    107 C         -4.7170  -19.6408  -51.6964 C.2       19 UNK         0.5000 
    108 O         -4.6165  -18.4242  -51.5538 O.2       19 UNK        -0.5000 
    109 N         -5.8972  -20.2569  -51.8524 N.am      20 UNK        -0.5000 
    110 CA        -7.1916  -19.5895  -52.0138 C.3       20 UNK         0.1400 
    111 CB        -8.2881  -20.6623  -52.1004 C.3       20 UNK        -0.1800 
    112 C         -7.2601  -18.6422  -53.2340 C.2       20 UNK         0.5000 
    113 O         -8.1018  -17.7438  -53.2505 O.2       20 UNK        -0.5000 
    114 N         -6.3664  -18.8374  -54.2165 N.am      21 UNK        -0.5000 
    115 CA        -6.1810  -17.9537  -55.3670 C.3       21 UNK         0.1400 
    116 CB        -5.3338  -18.6812  -56.4220 C.3       21 UNK        -0.1800 
    117 C         -5.5389  -16.5962  -55.0094 C.2       21 UNK         0.5000 
    118 O         -5.7422  -15.6355  -55.7536 O.2       21 UNK        -0.5000 
    119 N         -4.7848  -16.5318  -53.9024 N.am      22 UNK        -0.5000 
    120 CA        -4.1328  -15.3120  -53.3943 C.3       22 UNK         0.1400 
    121 C         -4.6518  -14.8529  -52.0032 C.2       22 UNK         0.5000 
    122 N         -5.2155  -15.7230  -51.1758 N.am      22 UNK        -0.7600 
    123 O         -4.5593  -13.6732  -51.6756 O.2       22 UNK        -0.5000 
    124 C124       -2.5810  -15.3929  -53.4416 C.3       23 UNK        -0.0398 
    125 S125       -1.8273  -16.9050  -52.7357 S.3       23 UNK        -0.2404 
    126 C126       -1.8296  -16.5392  -50.9464 C.3       23 UNK        -0.0205 
    127 H127        0.7864  -10.1178  -52.2724 H         1 UNK         0.0600 
    128 H128        0.1245  -11.6863  -51.8029 H         1 UNK         0.0600 
    129 H129        0.8849  -11.4881  -53.3840 H         1 UNK         0.0600 
    130 H130        1.4318  -12.7073  -50.3114 H         1 UNK         0.3000 
    131 H131        4.2642  -13.0787  -50.7129 H         1 UNK         0.0600 
    132 H132        2.9695  -14.9097  -49.7938 H         1 UNK         0.0800 
    133 H133        4.1259  -14.4055  -48.5979 H         1 UNK         0.0800 
    134 H134        2.5470  -16.0007  -46.9679 H         1 UNK         0.0800 
    135 H135        0.8950  -15.6030  -46.5569 H         1 UNK         0.0800 
    136 H136       -0.5631  -15.2209  -48.9620 H         1 UNK         0.1150 
    137 H137       -0.2946  -18.8279  -51.2693 H         1 UNK         0.1150 
    138 H138        2.6104  -17.9976  -48.2317 H         1 UNK         0.1150 
    139 H139        2.2140  -19.8628  -51.1754 H         1 UNK         0.0800 
    140 H140        2.9022  -19.9174  -49.5733 H         1 UNK         0.0800 
    141 H141       -0.3746  -20.3849  -47.9870 H         1 UNK         0.0800 
    142 H142        1.3071  -20.4641  -47.5381 H         1 UNK         0.0800 
    143 H143        1.1368  -22.9545  -47.2767 H         1 UNK         0.0600 
    144 H144        0.1366  -21.0295  -45.4978 H         1 UNK         0.3000 
    145 H145       -0.6651  -23.1844  -42.7465 H         1 UNK         0.0600 
    146 H146        0.8269  -21.5067  -41.6670 H         1 UNK         0.0600 
    147 H147        1.7552  -22.6708  -42.6010 H         1 UNK         0.0600 
    148 H148        1.4838  -21.0561  -43.2390 H         1 UNK         0.0600 
    149 H149       -0.9602  -20.3744  -43.0737 H         1 UNK         0.3000 
    150 H150       -4.2788  -20.4432  -44.4658 H         1 UNK         0.0600 
    151 H151       -4.4921  -20.6006  -41.9839 H         1 UNK         0.0600 
    152 H152       -4.6140  -18.9339  -42.5287 H         1 UNK         0.0600 
    153 H153       -3.1260  -19.5101  -41.7827 H         1 UNK         0.0600 
    154 H154       -2.5658  -18.2592  -43.8766 H         1 UNK         0.3000 
    155 H155       -0.8420  -18.1417  -47.0228 H         1 UNK         0.0600 
    156 H156       -3.0056  -16.4015  -45.7346 H         1 UNK         0.0600 
    157 H157       -2.8663  -16.8643  -47.4220 H         1 UNK         0.0600 
    158 H158       -1.6905  -15.7634  -46.7194 H         1 UNK         0.0600 
    159 H159       -0.6125  -16.5902  -44.6245 H         1 UNK         0.3000 
    160 H160        1.8022  -18.6467  -43.0038 H         1 UNK         0.0600 
    161 H161        2.2085  -15.9738  -44.4366 H         1 UNK         0.0600 
    162 H162        3.2033  -17.4079  -44.6287 H         1 UNK         0.0600 
    163 H163        3.1615  -16.5755  -43.0821 H         1 UNK         0.0600 
    164 H164        0.5527  -16.0442  -42.5807 H         1 UNK         0.3000 
    165 H165       -2.0966  -17.3068  -40.5560 H         1 UNK         0.0600 
    166 H166       -1.1169  -15.7520  -38.8907 H         1 UNK         0.0600 
    167 H167       -0.1531  -17.2172  -38.9851 H         1 UNK         0.0600 
    168 H168        0.4194  -15.7432  -39.7573 H         1 UNK         0.0600 
    169 H169       -1.2577  -14.6547  -41.2258 H         1 UNK         0.3000 
    170 H170       -2.7569  -14.4102  -44.4086 H         1 UNK         0.0600 
    171 H171       -4.8019  -14.2244  -42.9784 H         1 UNK         0.0600 
    172 H172       -3.9037  -13.2646  -41.8086 H         1 UNK         0.0600 
    173 H173       -4.1879  -12.6446  -43.4359 H         1 UNK         0.0600 
    174 H174       -1.8061  -12.3307  -42.8203 H         1 UNK         0.3000 
    175 H175        0.2927  -11.4036  -43.8821 H         1 UNK         0.0600 
    176 H176        1.1711  -12.7795  -41.2671 H         1 UNK         0.0600 
    177 H177        1.4944  -11.0979  -41.6792 H         1 UNK         0.0600 
    178 H178       -0.1537  -11.6302  -41.4192 H         1 UNK         0.0600 
    179 H179        2.1803  -13.6018  -43.9392 H         1 UNK         0.3000 
    180 H180        5.0011  -11.9594  -43.9571 H         1 UNK         0.0600 
    181 H181        3.6653  -14.2296  -45.5342 H         1 UNK         0.0600 
    182 H182        4.1661  -14.2921  -43.8421 H         1 UNK         0.0600 
    183 H183        5.3680  -14.1566  -45.1060 H         1 UNK         0.0600 
    184 H184        3.8997  -11.4048  -46.5913 H         1 UNK         0.3000 
    185 H185        5.6128   -9.8995  -47.8433 H         1 UNK         0.0600 
    186 H186        8.0741  -10.0780  -47.6009 H         1 UNK         0.0600 
    187 H187        8.0542  -11.6968  -48.2925 H         1 UNK         0.0600 
    188 H188        7.6036  -10.3051  -49.2769 H         1 UNK         0.0600 
    189 H189        5.9189  -12.5149  -49.1858 H         1 UNK         0.3000 
    190 H190       -2.2596  -21.7795  -46.8848 H         1 UNK         0.3000 
    191 H191       -3.4576  -23.4511  -48.7887 H         1 UNK         0.0600 
    192 H192       -4.5763  -21.4809  -47.7032 H         1 UNK         0.0600 
    193 H193       -5.5673  -22.9271  -47.5975 H         1 UNK         0.0600 
    194 H194       -4.6728  -22.3700  -46.1902 H         1 UNK         0.0600 
    195 H195       -2.7512  -24.1218  -45.3456 H         1 UNK         0.3000 
    196 H196       -4.0053  -26.6966  -45.2658 H         1 UNK         0.0600 
    197 H197       -2.7128  -26.9577  -43.1517 H         1 UNK         0.0600 
    198 H198       -3.5066  -25.3910  -43.2215 H         1 UNK         0.0600 
    199 H199       -1.7765  -25.5160  -43.5248 H         1 UNK         0.0600 
    200 H200       -0.6021  -25.6784  -45.8379 H         1 UNK         0.3000 
    201 H201        0.4697  -28.2991  -46.0759 H         1 UNK         0.0600 
    202 H202        1.8466  -26.3331  -45.5017 H         1 UNK         0.0600 
    203 H203        1.5315  -25.6048  -47.0749 H         1 UNK         0.0600 
    204 H204        2.4749  -27.0869  -46.9594 H         1 UNK         0.0600 
    205 H205       -0.5792  -25.9470  -48.5982 H         1 UNK         0.3000 
    206 H206        0.1472  -27.7292  -50.7837 H         1 UNK         0.0600 
    207 H207        0.3991  -25.2641  -50.9502 H         1 UNK         0.0600 
    208 H208       -0.7054  -25.8615  -52.1802 H         1 UNK         0.0600 
    209 H209       -1.3375  -25.0550  -50.7520 H         1 UNK         0.0600 
    210 H210       -2.5813  -27.5216  -48.7750 H         1 UNK         0.3000 
    211 H211       -4.6126  -28.3926  -48.6948 H         1 UNK         0.0600 
    212 H212       -3.8453  -30.1377  -51.0982 H         1 UNK         0.0600 
    213 H213       -5.2202  -30.3780  -50.0328 H         1 UNK         0.0600 
    214 H214       -3.5882  -30.5432  -49.4026 H         1 UNK         0.0600 
    215 H215       -4.9981  -26.1701  -49.2199 H         1 UNK         0.3000 
    216 H216       -6.2266  -24.5299  -50.0420 H         1 UNK         0.0600 
    217 H217       -7.8210  -24.6795  -51.8751 H         1 UNK         0.0600 
    218 H218       -8.0106  -26.1014  -50.8688 H         1 UNK         0.0600 
    219 H219       -7.1769  -26.2253  -52.4137 H         1 UNK         0.0600 
    220 H220       -6.1767  -24.4666  -53.2589 H         1 UNK         0.3000 
    221 H221       -5.0067  -23.5447  -54.8670 H         1 UNK         0.0600 
    222 H222       -2.4351  -24.3813  -53.4291 H         1 UNK         0.0600 
    223 H223       -3.3543  -25.3858  -54.5476 H         1 UNK         0.0600 
    224 H224       -2.5898  -23.9075  -55.1120 H         1 UNK         0.0600 
    225 H225       -3.5512  -22.6357  -51.7483 H         1 UNK         0.3000 
    226 H226       -2.7339  -19.9820  -52.4231 H         1 UNK         0.0600 
    227 H227       -1.9045  -21.2720  -50.4419 H         1 UNK         0.0600 
    228 H228       -2.5458  -19.7071  -49.9620 H         1 UNK         0.0600 
    229 H229       -3.4980  -21.1619  -49.7051 H         1 UNK         0.0600 
    230 H230       -5.8901  -21.2586  -51.9667 H         1 UNK         0.3000 
    231 H231       -7.3674  -18.9850  -51.1217 H         1 UNK         0.0600 
    232 H232       -8.1465  -21.3127  -52.9646 H         1 UNK         0.0600 
    233 H233       -9.2750  -20.2064  -52.1909 H         1 UNK         0.0600 
    234 H234       -8.3017  -21.2872  -51.2071 H         1 UNK         0.0600 
    235 H235       -5.7177  -19.6124  -54.1410 H         1 UNK         0.3000 
    236 H236       -7.1624  -17.7502  -55.8005 H         1 UNK         0.0600 
    237 H237       -5.7971  -19.6214  -56.7219 H         1 UNK         0.0600 
    238 H238       -5.2205  -18.0731  -57.3203 H         1 UNK         0.0600 
    239 H239       -4.3336  -18.9046  -56.0483 H         1 UNK         0.0600 
    240 H240       -4.6793  -17.3550  -53.3222 H         1 UNK         0.3000 
    241 H241       -4.3995  -14.4808  -54.0495 H         1 UNK         0.0600 
    242 H242       -5.5631  -15.4014  -50.2874 H         1 UNK         0.3800 
    243 H243       -5.1740  -16.7212  -51.3668 H         1 UNK         0.3800 
    244 H244       -2.2708  -15.3564  -54.4866 H         1 UNK         0.0800 
    245 H245       -2.1265  -14.5123  -52.9841 H         1 UNK         0.0800 
    246 H246       -1.9887  -15.4701  -50.8012 H         1 UNK         0.0800 
    247 H247       -2.6785  -17.0389  -50.4806 H         1 UNK         0.0800 
@<TRIPOS>BOND
     1    1    2 1    
     2    1  127 1    
     3    1  128 1    
     4    1  129 1    
     5    2    3 2    
     6    2    4 am   BACKBONE|DICT|INTERRES
     7    4    5 1    
     8    4  130 1    
     9    5    6 1    
    10    5   65 1    
    11    5  131 1    
    12    6    7 1    
    13    6  132 1    
    14    6  133 1    
    15    7    8 1    
    16    8    9 1    
    17    8  134 1    
    18    8  135 1    
    19    9   10 ar   
    20    9   14 ar   
    21   10   11 ar   
    22   10  136 1    
    23   11   12 ar   
    24   11  126 1    
    25   12   13 ar   
    26   12  137 1    
    27   13   14 ar   
    28   13   15 1    
    29   14  138 1    
    30   15   16 1    
    31   15  139 1    
    32   15  140 1    
    33   16   17 1    
    34   17   18 1    
    35   17  141 1    
    36   17  142 1    
    37   18   19 1    
    38   18   67 1    
    39   18  143 1    
    40   19   20 am   BACKBONE|DICT|INTERRES
    41   19  144 1    
    42   20   21 2    
    43   20   22 1    
    44   22   23 1    
    45   22   24 1    
    46   22  145 1    
    47   23  146 1    
    48   23  147 1    
    49   23  148 1    
    50   24   25 am   BACKBONE|DICT|INTERRES
    51   24  149 1    
    52   25   26 2    
    53   25   27 1    
    54   27   28 1    
    55   27   29 1    
    56   27  150 1    
    57   28  151 1    
    58   28  152 1    
    59   28  153 1    
    60   29   30 am   BACKBONE|DICT|INTERRES
    61   29  154 1    
    62   30   31 2    
    63   30   32 1    
    64   32   33 1    
    65   32   34 1    
    66   32  155 1    
    67   33  156 1    
    68   33  157 1    
    69   33  158 1    
    70   34   35 am   BACKBONE|DICT|INTERRES
    71   34  159 1    
    72   35   36 2    
    73   35   37 1    
    74   37   38 1    
    75   37   39 1    
    76   37  160 1    
    77   38  161 1    
    78   38  162 1    
    79   38  163 1    
    80   39   40 am   BACKBONE|DICT|INTERRES
    81   39  164 1    
    82   40   41 2    
    83   40   42 1    
    84   42   43 1    
    85   42   44 1    
    86   42  165 1    
    87   43  166 1    
    88   43  167 1    
    89   43  168 1    
    90   44   45 am   BACKBONE|DICT|INTERRES
    91   44  169 1    
    92   45   46 2    
    93   45   47 1    
    94   47   48 1    
    95   47   49 1    
    96   47  170 1    
    97   48  171 1    
    98   48  172 1    
    99   48  173 1    
   100   49   50 am   BACKBONE|DICT|INTERRES
   101   49  174 1    
   102   50   51 2    
   103   50   52 1    
   104   52   53 1    
   105   52   54 1    
   106   52  175 1    
   107   53  176 1    
   108   53  177 1    
   109   53  178 1    
   110   54   55 am   BACKBONE|DICT|INTERRES
   111   54  179 1    
   112   55   56 2    
   113   55   57 1    
   114   57   58 1    
   115   57   59 1    
   116   57  180 1    
   117   58  181 1    
   118   58  182 1    
   119   58  183 1    
   120   59   60 am   BACKBONE|DICT|INTERRES
   121   59  184 1    
   122   60   61 2    
   123   60   62 1    
   124   62   63 1    
   125   62   64 1    
   126   62  185 1    
   127   63  186 1    
   128   63  187 1    
   129   63  188 1    
   130   64   65 am   BACKBONE|DICT|INTERRES
   131   64  189 1    
   132   65   66 2    
   133   67   68 2    
   134   67   69 am   BACKBONE|DICT|INTERRES
   135   69   70 1    
   136   69  190 1    
   137   70   71 1    
   138   70   72 1    
   139   70  191 1    
   140   71  192 1    
   141   71  193 1    
   142   71  194 1    
   143   72   73 2    
   144   72   74 am   BACKBONE|DICT|INTERRES
   145   74   75 1    
   146   74  195 1    
   147   75   76 1    
   148   75   77 1    
   149   75  196 1    
   150   76  197 1    
   151   76  198 1    
   152   76  199 1    
   153   77   78 2    
   154   77   79 am   BACKBONE|DICT|INTERRES
   155   79   80 1    
   156   79  200 1    
   157   80   81 1    
   158   80   82 1    
   159   80  201 1    
   160   81  202 1    
   161   81  203 1    
   162   81  204 1    
   163   82   83 2    
   164   82   84 am   BACKBONE|DICT|INTERRES
   165   84   85 1    
   166   84  205 1    
   167   85   86 1    
   168   85   87 1    
   169   85  206 1    
   170   86  207 1    
   171   86  208 1    
   172   86  209 1    
   173   87   88 2    
   174   87   89 am   BACKBONE|DICT|INTERRES
   175   89   90 1    
   176   89  210 1    
   177   90   91 1    
   178   90   92 1    
   179   90  211 1    
   180   91  212 1    
   181   91  213 1    
   182   91  214 1    
   183   92   93 2    
   184   92   94 am   BACKBONE|DICT|INTERRES
   185   94   95 1    
   186   94  215 1    
   187   95   96 1    
   188   95   97 1    
   189   95  216 1    
   190   96  217 1    
   191   96  218 1    
   192   96  219 1    
   193   97   98 2    
   194   97   99 am   BACKBONE|DICT|INTERRES
   195   99  100 1    
   196   99  220 1    
   197  100  101 1    
   198  100  102 1    
   199  100  221 1    
   200  101  222 1    
   201  101  223 1    
   202  101  224 1    
   203  102  103 2    
   204  102  104 am   BACKBONE|DICT|INTERRES
   205  104  105 1    
   206  104  225 1    
   207  105  106 1    
   208  105  107 1    
   209  105  226 1    
   210  106  227 1    
   211  106  228 1    
   212  106  229 1    
   213  107  108 2    
   214  107  109 am   BACKBONE|DICT|INTERRES
   215  109  110 1    
   216  109  230 1    
   217  110  111 1    
   218  110  112 1    
   219  110  231 1    
   220  111  232 1    
   221  111  233 1    
   222  111  234 1    
   223  112  113 2    
   224  112  114 am   BACKBONE|DICT|INTERRES
   225  114  115 1    
   226  114  235 1    
   227  115  116 1    
   228  115  117 1    
   229  115  236 1    
   230  116  237 1    
   231  116  238 1    
   232  116  239 1    
   233  117  118 2    
   234  117  119 am   BACKBONE|DICT|INTERRES
   235  119  120 1    
   236  119  240 1    
   237  120  121 1    
   238  120  124 1    
   239  120  241 1    
   240  121  122 am   BACKBONE|DICT|INTERRES
   241  121  123 2    
   242  122  242 1    
   243  122  243 1    
   244  124  125 1    
   245  124  244 1    
   246  124  245 1    
   247  125  126 1    
   248  126  246 1    
   249  126  247 1    
@<TRIPOS>SUBSTRUCTURE
     1 UNK         1 GROUP             0       ****    0 ROOT    
