@<TRIPOS>MOLECULE
3R540
247   249    1
SMALL
USER_CHARGES


@<TRIPOS>ATOM
      1 CA          2.0106   -9.2155  -47.9504 C.3       0 UNK        -0.1800 
      2 C           1.7194  -10.5930  -47.3721 C.2       0 UNK         0.5000 
      3 O           1.3213  -10.6981  -46.2121 O.2       0 UNK        -0.5000 
      4 N           1.9167  -11.6473  -48.1753 N.am      1 UNK        -0.5000 
      5 CA          1.6702  -13.0453  -47.7970 C.3       1 UNK         0.1400 
      6 C6          2.3852  -14.0233  -48.7629 C.3       23 UNK        -0.0398 
      7 S7          2.8246  -15.6048  -47.9690 S.3       23 UNK        -0.2404 
      8 C8          3.3568  -16.5778  -49.4158 C.3       23 UNK        -0.0205 
      9 C9          2.4169  -17.7379  -49.7181 C.ar      23 UNK        -0.0193 
     10 C10         1.0798  -17.5013  -50.0595 C.ar      23 UNK        -0.1150 
     11 C11         0.2230  -18.5669  -50.3522 C.ar      23 UNK        -0.0193 
     12 C12         0.7189  -19.8716  -50.3141 C.ar      23 UNK        -0.1150 
     13 C13         2.0485  -20.1260  -49.9754 C.ar      23 UNK        -0.0193 
     14 C14         2.8940  -19.0537  -49.6785 C.ar      23 UNK        -0.1150 
     15 C15         2.5615  -21.5609  -49.9471 C.3       23 UNK        -0.0205 
     16 S16         2.7474  -22.2146  -48.2552 S.3       23 UNK        -0.2404 
     17 C17         1.0877  -21.9343  -47.5489 C.3       23 UNK        -0.0398 
     18 CA          0.6422  -23.0191  -46.5398 C.3       11 UNK         0.1400 
     19 N           1.6112  -23.2048  -45.4560 N.am      11 UNK        -0.5000 
     20 C           1.7389  -24.3147  -44.7177 C.2       10 UNK         0.5000 
     21 O           1.0585  -25.3272  -44.8845 O.2       10 UNK        -0.5000 
     22 CA          2.7928  -24.2800  -43.5925 C.3       10 UNK         0.1400 
     23 CB          4.1685  -24.6988  -44.1326 C.3       10 UNK        -0.1800 
     24 N           2.9044  -22.9614  -42.9645 N.am      10 UNK        -0.5000 
     25 C           1.9715  -22.4245  -42.1657 C.2       9 UNK         0.5000 
     26 O           0.9650  -23.0303  -41.7988 O.2       9 UNK        -0.5000 
     27 CA          2.1749  -20.9587  -41.7236 C.3       9 UNK         0.1400 
     28 CB          2.8159  -20.9025  -40.3292 C.3       9 UNK        -0.1800 
     29 N           2.9650  -20.1349  -42.6462 N.am      9 UNK        -0.5000 
     30 C           2.6793  -19.9156  -43.9376 C.2       8 UNK         0.5000 
     31 O           1.7306  -20.4410  -44.5212 O.2       8 UNK        -0.5000 
     32 CA          3.6150  -18.9502  -44.6800 C.3       8 UNK         0.1400 
     33 CB          3.2132  -18.7312  -46.1476 C.3       8 UNK        -0.1800 
     34 N           3.6155  -17.6716  -43.9797 N.am      8 UNK        -0.5000 
     35 C           4.6974  -16.9488  -43.6641 C.2       7 UNK         0.5000 
     36 O           5.8460  -17.2714  -43.9701 O.2       7 UNK        -0.5000 
     37 CA          4.4711  -15.6490  -42.8596 C.3       7 UNK         0.1400 
     38 CB          4.4667  -14.4365  -43.8046 C.3       7 UNK        -0.1800 
     39 N           3.2280  -15.6410  -42.0849 N.am      7 UNK        -0.5000 
     40 C           2.9273  -16.4761  -41.0801 C.2       6 UNK         0.5000 
     41 O           3.7320  -17.2710  -40.5937 O.2       6 UNK        -0.5000 
     42 CA          1.4721  -16.4557  -40.5574 C.3       6 UNK         0.1400 
     43 CB          1.3982  -15.7231  -39.2092 C.3       6 UNK        -0.1800 
     44 N           0.4782  -15.8697  -41.4712 N.am      6 UNK        -0.5000 
     45 C           0.2376  -16.2705  -42.7281 C.2       5 UNK         0.5000 
     46 O           0.8854  -17.1651  -43.2759 O.2       5 UNK        -0.5000 
     47 CA         -0.8674  -15.5131  -43.5021 C.3       5 UNK         0.1400 
     48 CB         -0.5768  -14.0022  -43.5565 C.3       5 UNK        -0.1800 
     49 N          -0.9960  -15.9957  -44.8762 N.am      5 UNK        -0.5000 
     50 C          -1.4442  -17.2030  -45.2332 C.2       4 UNK         0.5000 
     51 O          -2.0398  -17.9666  -44.4712 O.2       4 UNK        -0.5000 
     52 CA         -1.1556  -17.6027  -46.6913 C.3       4 UNK         0.1400 
     53 CB         -1.1139  -19.1269  -46.8833 C.3       4 UNK        -0.1800 
     54 N          -2.0686  -16.9584  -47.6353 N.am      4 UNK        -0.5000 
     55 C          -3.4053  -17.0448  -47.6913 C.2       3 UNK         0.5000 
     56 O          -4.0829  -17.7798  -46.9736 O.2       3 UNK        -0.5000 
     57 CA         -4.0973  -16.1083  -48.7065 C.3       3 UNK         0.1400 
     58 CB         -5.6330  -16.1609  -48.6129 C.3       3 UNK        -0.1800 
     59 N          -3.6575  -14.7237  -48.5158 N.am      3 UNK        -0.5000 
     60 C          -2.5334  -14.1967  -49.0166 C.2       2 UNK         0.5000 
     61 O          -1.8010  -14.8049  -49.7998 O.2       2 UNK        -0.5000 
     62 CA         -2.1311  -12.7827  -48.5391 C.3       2 UNK         0.1400 
     63 CB         -2.8044  -12.3580  -47.2141 C.3       2 UNK        -0.1800 
     64 N          -0.6745  -12.6344  -48.4343 N.am      2 UNK        -0.5000 
     65 C           0.1642  -13.3723  -47.6870 C.2       1 UNK         0.5000 
     66 O          -0.2002  -14.2761  -46.9347 O.2       1 UNK        -0.5000 
     67 C          -0.7516  -22.6727  -45.9765 C.2       11 UNK         0.5000 
     68 O          -1.7611  -23.0217  -46.5895 O.2       11 UNK        -0.5000 
     69 N          -0.7871  -22.0160  -44.8064 N.am      12 UNK        -0.5000 
     70 CA         -1.9853  -21.5527  -44.0967 C.3       12 UNK         0.1400 
     71 CB         -1.5540  -20.7773  -42.8434 C.3       12 UNK        -0.1800 
     72 C          -2.9881  -22.6628  -43.7212 C.2       12 UNK         0.5000 
     73 O          -4.1527  -22.3589  -43.4650 O.2       12 UNK        -0.5000 
     74 N          -2.5369  -23.9250  -43.7215 N.am      13 UNK        -0.5000 
     75 CA         -3.3764  -25.1150  -43.5827 C.3       13 UNK         0.1400 
     76 CB         -2.4719  -26.3451  -43.4149 C.3       13 UNK        -0.1800 
     77 C          -4.3449  -25.3110  -44.7688 C.2       13 UNK         0.5000 
     78 O          -5.4546  -25.8042  -44.5635 O.2       13 UNK        -0.5000 
     79 N          -3.9171  -24.9117  -45.9750 N.am      14 UNK        -0.5000 
     80 CA         -4.7332  -24.8991  -47.1906 C.3       14 UNK         0.1400 
     81 CB         -3.8887  -25.4113  -48.3657 C.3       14 UNK        -0.1800 
     82 C          -5.2894  -23.4929  -47.4827 C.2       14 UNK         0.5000 
     83 O          -6.3646  -23.3805  -48.0728 O.2       14 UNK        -0.5000 
     84 N          -4.5673  -22.4493  -47.0486 N.am      15 UNK        -0.5000 
     85 CA         -4.9286  -21.0322  -47.1222 C.3       15 UNK         0.1400 
     86 CB         -6.1178  -20.7262  -46.1837 C.3       15 UNK        -0.1800 
     87 C          -5.1374  -20.5747  -48.5793 C.2       15 UNK         0.5000 
     88 O          -4.1921  -20.6131  -49.3668 O.2       15 UNK        -0.5000 
     89 N          -6.3703  -20.1911  -48.9336 N.am      16 UNK        -0.5000 
     90 CA         -6.7659  -19.7901  -50.2842 C.3       16 UNK         0.1400 
     91 CB         -8.1846  -19.2043  -50.2345 C.3       16 UNK        -0.1800 
     92 C          -6.6810  -20.9244  -51.3269 C.2       16 UNK         0.5000 
     93 O          -6.6110  -20.6339  -52.5198 O.2       16 UNK        -0.5000 
     94 N          -6.6795  -22.1858  -50.8726 N.am      17 UNK        -0.5000 
     95 CA         -6.5578  -23.3719  -51.7204 C.3       17 UNK         0.1400 
     96 CB         -7.4115  -24.5009  -51.1182 C.3       17 UNK        -0.1800 
     97 C          -5.0975  -23.8313  -51.9093 C.2       17 UNK         0.5000 
     98 O          -4.8787  -24.8253  -52.6030 O.2       17 UNK        -0.5000 
     99 N          -4.1248  -23.1411  -51.2905 N.am      18 UNK        -0.5000 
    100 CA        -2.7020  -23.4982  -51.3325 C.3       18 UNK         0.1400 
    101 CB        -1.9314  -22.6289  -50.3303 C.3       18 UNK        -0.1800 
    102 C         -2.0701  -23.3935  -52.7353 C.2       18 UNK         0.5000 
    103 O         -1.1764  -24.1777  -53.0568 O.2       18 UNK        -0.5000 
    104 N         -2.5610  -22.4520  -53.5464 N.am      19 UNK        -0.5000 
    105 CA        -2.2064  -22.2385  -54.9445 C.3       19 UNK         0.1400 
    106 CB        -0.8243  -21.5672  -55.0596 C.3       19 UNK        -0.1800 
    107 C         -3.2953  -21.3608  -55.5742 C.2       19 UNK         0.5000 
    108 O         -4.0294  -20.6870  -54.8482 O.2       19 UNK        -0.5000 
    109 N         -3.3663  -21.3451  -56.9115 N.am      20 UNK        -0.5000 
    110 CA        -4.3351  -20.5521  -57.6804 C.3       20 UNK         0.1400 
    111 CB        -4.2100  -20.9087  -59.1694 C.3       20 UNK        -0.1800 
    112 C         -4.1939  -19.0292  -57.4756 C.2       20 UNK         0.5000 
    113 O         -5.1894  -18.3075  -57.5442 O.2       20 UNK        -0.5000 
    114 N         -2.9651  -18.5766  -57.1921 N.am      21 UNK        -0.5000 
    115 CA        -2.6307  -17.1885  -56.8711 C.3       21 UNK         0.1400 
    116 CB        -1.1070  -17.0169  -56.9749 C.3       21 UNK        -0.1800 
    117 C         -3.1273  -16.7343  -55.4822 C.2       21 UNK         0.5000 
    118 O         -3.2026  -15.5290  -55.2402 O.2       21 UNK        -0.5000 
    119 N         -3.4436  -17.6876  -54.5961 N.am      22 UNK        -0.5000 
    120 CA        -3.9022  -17.4380  -53.2200 C.3       22 UNK         0.1400 
    121 C         -5.4153  -17.0923  -53.1057 C.2       22 UNK         0.5000 
    122 N         -6.2040  -17.1706  -54.1713 N.am      22 UNK        -0.7600 
    123 O         -5.8792  -16.7275  -52.0299 O.2       22 UNK        -0.5000 
    124 C124       -3.5238  -18.6021  -52.2691 C.3       23 UNK        -0.0398 
    125 S125       -1.7361  -18.9694  -52.2844 S.3       23 UNK        -0.2404 
    126 C126       -1.2475  -18.3226  -50.6595 C.3       23 UNK        -0.0205 
    127 H127        2.7782   -8.7154  -47.3598 H         1 UNK         0.0600 
    128 H128        1.1097   -8.6022  -47.9300 H         1 UNK         0.0600 
    129 H129        2.3593   -9.2732  -48.9818 H         1 UNK         0.0600 
    130 H130        2.2530  -11.4941  -49.1157 H         1 UNK         0.3000 
    131 H131        2.0973  -13.1792  -46.8002 H         1 UNK         0.0600 
    132 H132        1.7882  -14.2081  -49.6584 H         1 UNK         0.0800 
    133 H133        3.3217  -13.5858  -49.1121 H         1 UNK         0.0800 
    134 H134        3.4346  -15.9437  -50.2998 H         1 UNK         0.0800 
    135 H135        4.3653  -16.9457  -49.2215 H         1 UNK         0.0800 
    136 H136        0.7046  -16.4877  -50.0832 H         1 UNK         0.1150 
    137 H137        0.0627  -20.6940  -50.5479 H         1 UNK         0.1150 
    138 H138        3.9244  -19.2481  -49.4163 H         1 UNK         0.1150 
    139 H139        1.8953  -22.2171  -50.5095 H         1 UNK         0.0800 
    140 H140        3.5280  -21.6079  -50.4507 H         1 UNK         0.0800 
    141 H141        1.1068  -20.9510  -47.0804 H         1 UNK         0.0800 
    142 H142        0.3614  -21.8753  -48.3600 H         1 UNK         0.0800 
    143 H143        0.5476  -23.9612  -47.0842 H         1 UNK         0.0600 
    144 H144        2.1581  -22.3881  -45.2158 H         1 UNK         0.3000 
    145 H145        2.4914  -25.0018  -42.8302 H         1 UNK         0.0600 
    146 H146        4.9096  -24.7416  -43.3342 H         1 UNK         0.0600 
    147 H147        4.1237  -25.6896  -44.5867 H         1 UNK         0.0600 
    148 H148        4.5318  -24.0059  -44.8927 H         1 UNK         0.0600 
    149 H149        3.7104  -22.4040  -43.2054 H         1 UNK         0.3000 
    150 H150        1.1859  -20.5025  -41.6568 H         1 UNK         0.0600 
    151 H151        2.2410  -21.4868  -39.6095 H         1 UNK         0.0600 
    152 H152        2.8569  -19.8797  -39.9544 H         1 UNK         0.0600 
    153 H153        3.8320  -21.2987  -40.3381 H         1 UNK         0.0600 
    154 H154        3.7481  -19.6408  -42.2420 H         1 UNK         0.3000 
    155 H155        4.6099  -19.3989  -44.6600 H         1 UNK         0.0600 
    156 H156        3.9203  -18.0728  -46.6508 H         1 UNK         0.0600 
    157 H157        2.2195  -18.2896  -46.2344 H         1 UNK         0.0600 
    158 H158        3.2067  -19.6724  -46.6960 H         1 UNK         0.0600 
    159 H159        2.6976  -17.3580  -43.6682 H         1 UNK         0.3000 
    160 H160        5.3037  -15.5428  -42.1615 H         1 UNK         0.0600 
    161 H161        3.6423  -14.4858  -44.5177 H         1 UNK         0.0600 
    162 H162        5.3928  -14.3851  -44.3787 H         1 UNK         0.0600 
    163 H163        4.3774  -13.5023  -43.2501 H         1 UNK         0.0600 
    164 H164        2.4993  -15.0266  -42.4149 H         1 UNK         0.3000 
    165 H165        1.1840  -17.4964  -40.3953 H         1 UNK         0.0600 
    166 H166        1.6410  -14.6649  -39.3141 H         1 UNK         0.0600 
    167 H167        0.4026  -15.7989  -38.7717 H         1 UNK         0.0600 
    168 H168        2.0990  -16.1511  -38.4910 H         1 UNK         0.0600 
    169 H169       -0.0799  -15.1197  -41.0895 H         1 UNK         0.3000 
    170 H170       -1.8155  -15.6759  -42.9862 H         1 UNK         0.0600 
    171 H171       -0.5627  -13.5574  -42.5612 H         1 UNK         0.0600 
    172 H172        0.3863  -13.7956  -44.0258 H         1 UNK         0.0600 
    173 H173       -1.3412  -13.4762  -44.1290 H         1 UNK         0.0600 
    174 H174       -0.5765  -15.4084  -45.5957 H         1 UNK         0.3000 
    175 H175       -0.1575  -17.2292  -46.9287 H         1 UNK         0.0600 
    176 H176       -0.7294  -19.3990  -47.8629 H         1 UNK         0.0600 
    177 H177       -0.4571  -19.5749  -46.1387 H         1 UNK         0.0600 
    178 H178       -2.0927  -19.5821  -46.7693 H         1 UNK         0.0600 
    179 H179       -1.6337  -16.2800  -48.2497 H         1 UNK         0.3000 
    180 H180       -3.8172  -16.4451  -49.7065 H         1 UNK         0.0600 
    181 H181       -6.0948  -15.5198  -49.3639 H         1 UNK         0.0600 
    182 H182       -5.9997  -17.1729  -48.7862 H         1 UNK         0.0600 
    183 H183       -5.9901  -15.8437  -47.6325 H         1 UNK         0.0600 
    184 H184       -4.1884  -14.1774  -47.8531 H         1 UNK         0.3000 
    185 H185       -2.4566  -12.0919  -49.3180 H         1 UNK         0.0600 
    186 H186       -2.4416  -11.3830  -46.8879 H         1 UNK         0.0600 
    187 H187       -3.8856  -12.2714  -47.3255 H         1 UNK         0.0600 
    188 H188       -2.6060  -13.0680  -46.4100 H         1 UNK         0.0600 
    189 H189       -0.2662  -11.9304  -49.0316 H         1 UNK         0.3000 
    190 H190        0.0998  -21.7143  -44.4189 H         1 UNK         0.3000 
    191 H191       -2.5059  -20.8602  -44.7598 H         1 UNK         0.0600 
    192 H192       -2.4089  -20.2813  -42.3825 H         1 UNK         0.0600 
    193 H193       -0.8249  -20.0033  -43.0858 H         1 UNK         0.0600 
    194 H194       -1.1158  -21.4349  -42.0936 H         1 UNK         0.0600 
    195 H195       -1.5588  -24.0788  -43.9201 H         1 UNK         0.3000 
    196 H196       -3.9765  -25.0027  -42.6774 H         1 UNK         0.0600 
    197 H197       -3.0646  -27.2523  -43.2908 H         1 UNK         0.0600 
    198 H198       -1.8359  -26.2497  -42.5346 H         1 UNK         0.0600 
    199 H199       -1.8248  -26.4902  -44.2812 H         1 UNK         0.0600 
    200 H200       -3.0020  -24.4808  -46.0497 H         1 UNK         0.3000 
    201 H201       -5.5881  -25.5693  -47.0791 H         1 UNK         0.0600 
    202 H202       -3.5877  -26.4469  -48.2076 H         1 UNK         0.0600 
    203 H203       -2.9830  -24.8206  -48.4981 H         1 UNK         0.0600 
    204 H204       -4.4518  -25.3767  -49.2987 H         1 UNK         0.0600 
    205 H205       -3.6368  -22.6410  -46.6919 H         1 UNK         0.3000 
    206 H206       -4.0729  -20.4789  -46.7444 H         1 UNK         0.0600 
    207 H207       -5.8789  -21.0010  -45.1565 H         1 UNK         0.0600 
    208 H208       -6.3488  -19.6600  -46.1806 H         1 UNK         0.0600 
    209 H209       -7.0222  -21.2666  -46.4645 H         1 UNK         0.0600 
    210 H210       -7.0993  -20.2147  -48.2357 H         1 UNK         0.3000 
    211 H211       -6.0847  -19.0024  -50.6069 H         1 UNK         0.0600 
    212 H212       -8.9140  -19.9433  -49.9007 H         1 UNK         0.0600 
    213 H213       -8.4958  -18.8553  -51.2202 H         1 UNK         0.0600 
    214 H214       -8.2357  -18.3495  -49.5600 H         1 UNK         0.0600 
    215 H215       -6.7166  -22.3538  -49.8724 H         1 UNK         0.3000 
    216 H216       -6.9552  -23.1526  -52.7135 H         1 UNK         0.0600 
    217 H217       -7.4414  -25.3652  -51.7828 H         1 UNK         0.0600 
    218 H218       -8.4411  -24.1786  -50.9621 H         1 UNK         0.0600 
    219 H219       -7.0169  -24.8418  -50.1611 H         1 UNK         0.0600 
    220 H220       -4.3690  -22.3263  -50.7400 H         1 UNK         0.3000 
    221 H221       -2.6125  -24.5389  -51.0151 H         1 UNK         0.0600 
    222 H222       -2.0002  -21.5740  -50.5945 H         1 UNK         0.0600 
    223 H223       -2.3207  -22.7382  -49.3188 H         1 UNK         0.0600 
    224 H224       -0.8762  -22.9028  -50.3058 H         1 UNK         0.0600 
    225 H225       -3.3138  -21.8566  -53.2227 H         1 UNK         0.3000 
    226 H226       -2.1955  -23.2019  -55.4581 H         1 UNK         0.0600 
    227 H227       -0.0445  -22.1733  -54.5990 H         1 UNK         0.0600 
    228 H228       -0.5434  -21.4236  -56.1033 H         1 UNK         0.0600 
    229 H229       -0.8109  -20.5884  -54.5803 H         1 UNK         0.0600 
    230 H230       -2.7281  -21.9172  -57.4458 H         1 UNK         0.3000 
    231 H231       -5.3354  -20.8335  -57.3447 H         1 UNK         0.0600 
    232 H232       -4.9343  -20.3528  -59.7665 H         1 UNK         0.0600 
    233 H233       -4.3978  -21.9691  -59.3387 H         1 UNK         0.0600 
    234 H234       -3.2174  -20.6761  -59.5572 H         1 UNK         0.0600 
    235 H235       -2.2089  -19.2437  -57.1551 H         1 UNK         0.3000 
    236 H236       -3.1004  -16.5414  -57.6149 H         1 UNK         0.0600 
    237 H237       -0.5821  -17.6492  -56.2574 H         1 UNK         0.0600 
    238 H238       -0.7477  -17.2690  -57.9728 H         1 UNK         0.0600 
    239 H239       -0.8149  -15.9846  -56.7774 H         1 UNK         0.0600 
    240 H240       -3.4016  -18.6613  -54.8713 H         1 UNK         0.3000 
    241 H241       -3.3772  -16.5535  -52.8534 H         1 UNK         0.0600 
    242 H242       -7.1803  -16.9389  -54.0827 H         1 UNK         0.3800 
    243 H243       -5.8370  -17.4746  -55.0603 H         1 UNK         0.3800 
    244 H244       -4.0593  -19.5104  -52.5445 H         1 UNK         0.0800 
    245 H245       -3.8317  -18.3795  -51.2468 H         1 UNK         0.0800 
    246 H246       -1.4767  -17.2580  -50.6249 H         1 UNK         0.0800 
    247 H247       -1.8534  -18.8048  -49.8913 H         1 UNK         0.0800 
@<TRIPOS>BOND
     1    1    2 1    
     2    1  127 1    
     3    1  128 1    
     4    1  129 1    
     5    2    3 2    
     6    2    4 am   BACKBONE|DICT|INTERRES
     7    4    5 1    
     8    4  130 1    
     9    5    6 1    
    10    5   65 1    
    11    5  131 1    
    12    6    7 1    
    13    6  132 1    
    14    6  133 1    
    15    7    8 1    
    16    8    9 1    
    17    8  134 1    
    18    8  135 1    
    19    9   10 ar   
    20    9   14 ar   
    21   10   11 ar   
    22   10  136 1    
    23   11   12 ar   
    24   11  126 1    
    25   12   13 ar   
    26   12  137 1    
    27   13   14 ar   
    28   13   15 1    
    29   14  138 1    
    30   15   16 1    
    31   15  139 1    
    32   15  140 1    
    33   16   17 1    
    34   17   18 1    
    35   17  141 1    
    36   17  142 1    
    37   18   19 1    
    38   18   67 1    
    39   18  143 1    
    40   19   20 am   BACKBONE|DICT|INTERRES
    41   19  144 1    
    42   20   21 2    
    43   20   22 1    
    44   22   23 1    
    45   22   24 1    
    46   22  145 1    
    47   23  146 1    
    48   23  147 1    
    49   23  148 1    
    50   24   25 am   BACKBONE|DICT|INTERRES
    51   24  149 1    
    52   25   26 2    
    53   25   27 1    
    54   27   28 1    
    55   27   29 1    
    56   27  150 1    
    57   28  151 1    
    58   28  152 1    
    59   28  153 1    
    60   29   30 am   BACKBONE|DICT|INTERRES
    61   29  154 1    
    62   30   31 2    
    63   30   32 1    
    64   32   33 1    
    65   32   34 1    
    66   32  155 1    
    67   33  156 1    
    68   33  157 1    
    69   33  158 1    
    70   34   35 am   BACKBONE|DICT|INTERRES
    71   34  159 1    
    72   35   36 2    
    73   35   37 1    
    74   37   38 1    
    75   37   39 1    
    76   37  160 1    
    77   38  161 1    
    78   38  162 1    
    79   38  163 1    
    80   39   40 am   BACKBONE|DICT|INTERRES
    81   39  164 1    
    82   40   41 2    
    83   40   42 1    
    84   42   43 1    
    85   42   44 1    
    86   42  165 1    
    87   43  166 1    
    88   43  167 1    
    89   43  168 1    
    90   44   45 am   BACKBONE|DICT|INTERRES
    91   44  169 1    
    92   45   46 2    
    93   45   47 1    
    94   47   48 1    
    95   47   49 1    
    96   47  170 1    
    97   48  171 1    
    98   48  172 1    
    99   48  173 1    
   100   49   50 am   BACKBONE|DICT|INTERRES
   101   49  174 1    
   102   50   51 2    
   103   50   52 1    
   104   52   53 1    
   105   52   54 1    
   106   52  175 1    
   107   53  176 1    
   108   53  177 1    
   109   53  178 1    
   110   54   55 am   BACKBONE|DICT|INTERRES
   111   54  179 1    
   112   55   56 2    
   113   55   57 1    
   114   57   58 1    
   115   57   59 1    
   116   57  180 1    
   117   58  181 1    
   118   58  182 1    
   119   58  183 1    
   120   59   60 am   BACKBONE|DICT|INTERRES
   121   59  184 1    
   122   60   61 2    
   123   60   62 1    
   124   62   63 1    
   125   62   64 1    
   126   62  185 1    
   127   63  186 1    
   128   63  187 1    
   129   63  188 1    
   130   64   65 am   BACKBONE|DICT|INTERRES
   131   64  189 1    
   132   65   66 2    
   133   67   68 2    
   134   67   69 am   BACKBONE|DICT|INTERRES
   135   69   70 1    
   136   69  190 1    
   137   70   71 1    
   138   70   72 1    
   139   70  191 1    
   140   71  192 1    
   141   71  193 1    
   142   71  194 1    
   143   72   73 2    
   144   72   74 am   BACKBONE|DICT|INTERRES
   145   74   75 1    
   146   74  195 1    
   147   75   76 1    
   148   75   77 1    
   149   75  196 1    
   150   76  197 1    
   151   76  198 1    
   152   76  199 1    
   153   77   78 2    
   154   77   79 am   BACKBONE|DICT|INTERRES
   155   79   80 1    
   156   79  200 1    
   157   80   81 1    
   158   80   82 1    
   159   80  201 1    
   160   81  202 1    
   161   81  203 1    
   162   81  204 1    
   163   82   83 2    
   164   82   84 am   BACKBONE|DICT|INTERRES
   165   84   85 1    
   166   84  205 1    
   167   85   86 1    
   168   85   87 1    
   169   85  206 1    
   170   86  207 1    
   171   86  208 1    
   172   86  209 1    
   173   87   88 2    
   174   87   89 am   BACKBONE|DICT|INTERRES
   175   89   90 1    
   176   89  210 1    
   177   90   91 1    
   178   90   92 1    
   179   90  211 1    
   180   91  212 1    
   181   91  213 1    
   182   91  214 1    
   183   92   93 2    
   184   92   94 am   BACKBONE|DICT|INTERRES
   185   94   95 1    
   186   94  215 1    
   187   95   96 1    
   188   95   97 1    
   189   95  216 1    
   190   96  217 1    
   191   96  218 1    
   192   96  219 1    
   193   97   98 2    
   194   97   99 am   BACKBONE|DICT|INTERRES
   195   99  100 1    
   196   99  220 1    
   197  100  101 1    
   198  100  102 1    
   199  100  221 1    
   200  101  222 1    
   201  101  223 1    
   202  101  224 1    
   203  102  103 2    
   204  102  104 am   BACKBONE|DICT|INTERRES
   205  104  105 1    
   206  104  225 1    
   207  105  106 1    
   208  105  107 1    
   209  105  226 1    
   210  106  227 1    
   211  106  228 1    
   212  106  229 1    
   213  107  108 2    
   214  107  109 am   BACKBONE|DICT|INTERRES
   215  109  110 1    
   216  109  230 1    
   217  110  111 1    
   218  110  112 1    
   219  110  231 1    
   220  111  232 1    
   221  111  233 1    
   222  111  234 1    
   223  112  113 2    
   224  112  114 am   BACKBONE|DICT|INTERRES
   225  114  115 1    
   226  114  235 1    
   227  115  116 1    
   228  115  117 1    
   229  115  236 1    
   230  116  237 1    
   231  116  238 1    
   232  116  239 1    
   233  117  118 2    
   234  117  119 am   BACKBONE|DICT|INTERRES
   235  119  120 1    
   236  119  240 1    
   237  120  121 1    
   238  120  124 1    
   239  120  241 1    
   240  121  122 am   BACKBONE|DICT|INTERRES
   241  121  123 2    
   242  122  242 1    
   243  122  243 1    
   244  124  125 1    
   245  124  244 1    
   246  124  245 1    
   247  125  126 1    
   248  126  246 1    
   249  126  247 1    
@<TRIPOS>SUBSTRUCTURE
     1 UNK         1 GROUP             0       ****    0 ROOT    
