@<TRIPOS>MOLECULE
3R540
247   249    1
SMALL
USER_CHARGES


@<TRIPOS>ATOM
      1 CA         -4.7487   -8.1906  -45.8729 C.3       0 UNK        -0.1800 
      2 C          -5.1146   -9.3172  -46.8290 C.2       0 UNK         0.5000 
      3 O          -5.3500   -9.0640  -48.0104 O.2       0 UNK        -0.5000 
      4 N          -5.1686  -10.5551  -46.3200 N.am      1 UNK        -0.5000 
      5 CA         -5.4585  -11.7748  -47.0836 C.3       1 UNK         0.1400 
      6 C6         -5.7265  -12.9655  -46.1272 C.3       23 UNK        -0.0398 
      7 S7         -6.3705  -14.4552  -46.9604 S.3       23 UNK        -0.2404 
      8 C8         -4.9208  -15.5508  -46.8588 C.3       23 UNK        -0.0205 
      9 C9         -5.1475  -16.8252  -47.6525 C.ar      23 UNK        -0.0193 
     10 C10        -4.7449  -16.9012  -48.9878 C.ar      23 UNK        -0.1150 
     11 C11        -4.9478  -18.0684  -49.7312 C.ar      23 UNK        -0.0193 
     12 C12        -5.6011  -19.1522  -49.1325 C.ar      23 UNK        -0.1150 
     13 C13        -6.0401  -19.0743  -47.8046 C.ar      23 UNK        -0.0193 
     14 C14        -5.7880  -17.9171  -47.0633 C.ar      23 UNK        -0.1150 
     15 C15        -6.8618  -20.2013  -47.1956 C.3       23 UNK        -0.0205 
     16 S16        -5.8747  -21.6746  -46.8139 S.3       23 UNK        -0.2404 
     17 C17        -5.0756  -21.2374  -45.2320 C.3       23 UNK        -0.0398 
     18 CA         -3.8754  -22.1829  -44.9609 C.3       11 UNK         0.1400 
     19 N          -2.7268  -21.8785  -45.8146 N.am      11 UNK        -0.5000 
     20 C          -2.4730  -22.4991  -46.9707 C.2       10 UNK         0.5000 
     21 O          -2.9902  -23.5619  -47.3150 O.2       10 UNK        -0.5000 
     22 CA         -1.5217  -21.7821  -47.9312 C.3       10 UNK         0.1400 
     23 CB         -2.1575  -20.4691  -48.4086 C.3       10 UNK        -0.1800 
     24 N          -0.2103  -21.4991  -47.3679 N.am      10 UNK        -0.5000 
     25 C           0.6922  -22.4174  -47.0059 C.2       9 UNK         0.5000 
     26 O           0.5016  -23.6319  -47.0487 O.2       9 UNK        -0.5000 
     27 CA          2.0222  -21.8728  -46.4564 C.3       9 UNK         0.1400 
     28 CB          2.9193  -21.3613  -47.5940 C.3       9 UNK        -0.1800 
     29 N           1.8101  -20.8161  -45.4671 N.am      9 UNK        -0.5000 
     30 C           1.1450  -20.9993  -44.3176 C.2       8 UNK         0.5000 
     31 O           0.7220  -22.0950  -43.9494 O.2       8 UNK        -0.5000 
     32 CA          0.8666  -19.7547  -43.4586 C.3       8 UNK         0.1400 
     33 CB          2.1010  -19.3840  -42.6243 C.3       8 UNK        -0.1800 
     34 N           0.4386  -18.6053  -44.2573 N.am      8 UNK        -0.5000 
     35 C          -0.7152  -18.5453  -44.9399 C.2       7 UNK         0.5000 
     36 O          -1.5666  -19.4352  -44.9261 O.2       7 UNK        -0.5000 
     37 CA         -0.9396  -17.3004  -45.8188 C.3       7 UNK         0.1400 
     38 CB         -1.4270  -16.1135  -44.9739 C.3       7 UNK        -0.1800 
     39 N           0.2610  -16.9136  -46.5589 N.am      7 UNK        -0.5000 
     40 C           0.8609  -17.6672  -47.4903 C.2       6 UNK         0.5000 
     41 O           0.4395  -18.7592  -47.8635 O.2       6 UNK        -0.5000 
     42 CA          2.1813  -17.1355  -48.0680 C.3       6 UNK         0.1400 
     43 CB          1.9227  -16.0833  -49.1567 C.3       6 UNK        -0.1800 
     44 N           3.0466  -16.5798  -47.0277 N.am      6 UNK        -0.5000 
     45 C           3.6660  -17.3131  -46.0916 C.2       5 UNK         0.5000 
     46 O           3.5809  -18.5381  -46.0155 O.2       5 UNK        -0.5000 
     47 CA          4.4955  -16.5469  -45.0456 C.3       5 UNK         0.1400 
     48 CB          5.8953  -16.2281  -45.5915 C.3       5 UNK        -0.1800 
     49 N           3.8504  -15.3083  -44.6104 N.am      5 UNK        -0.5000 
     50 C           2.7154  -15.2591  -43.9000 C.2       4 UNK         0.5000 
     51 O           2.1001  -16.2544  -43.5189 O.2       4 UNK        -0.5000 
     52 CA          2.1431  -13.8578  -43.6174 C.3       4 UNK         0.1400 
     53 CB          2.8380  -13.2229  -42.4035 C.3       4 UNK        -0.1800 
     54 N           2.2188  -12.9400  -44.7604 N.am      4 UNK        -0.5000 
     55 C           1.6761  -13.1791  -45.9611 C.2       3 UNK         0.5000 
     56 O           1.1532  -14.2512  -46.2730 O.2       3 UNK        -0.5000 
     57 CA          1.7352  -12.0442  -47.0012 C.3       3 UNK         0.1400 
     58 CB          2.9898  -12.1882  -47.8758 C.3       3 UNK        -0.1800 
     59 N           0.5481  -12.0773  -47.8584 N.am      3 UNK        -0.5000 
     60 C          -0.6958  -11.8664  -47.4097 C.2       2 UNK         0.5000 
     61 O          -0.9469  -11.3953  -46.2945 O.2       2 UNK        -0.5000 
     62 CA         -1.8468  -12.2924  -48.3362 C.3       2 UNK         0.1400 
     63 CB         -1.7301  -13.7849  -48.7215 C.3       2 UNK        -0.1800 
     64 N          -3.0900  -12.0436  -47.6158 N.am      2 UNK        -0.5000 
     65 C          -4.3351  -12.0846  -48.0987 C.2       1 UNK         0.5000 
     66 O          -4.6130  -12.3255  -49.2738 O.2       1 UNK        -0.5000 
     67 C          -3.4639  -22.3122  -43.4848 C.2       11 UNK         0.5000 
     68 O          -4.2530  -22.0116  -42.5879 O.2       11 UNK        -0.5000 
     69 N          -2.2607  -22.8509  -43.2630 N.am      12 UNK        -0.5000 
     70 CA         -1.8573  -23.4783  -42.0077 C.3       12 UNK         0.1400 
     71 CB         -1.0495  -22.5110  -41.1253 C.3       12 UNK        -0.1800 
     72 C          -1.0918  -24.7720  -42.3215 C.2       12 UNK         0.5000 
     73 O          -1.4196  -25.8152  -41.7557 O.2       12 UNK        -0.5000 
     74 N          -0.1170  -24.6959  -43.2401 N.am      13 UNK        -0.5000 
     75 CA          0.6760  -25.8386  -43.6916 C.3       13 UNK         0.1400 
     76 CB          2.0225  -25.3559  -44.2529 C.3       13 UNK        -0.1800 
     77 C          -0.0871  -26.7203  -44.6986 C.2       13 UNK         0.5000 
     78 O          -0.4013  -27.8656  -44.3714 O.2       13 UNK        -0.5000 
     79 N          -0.3577  -26.1962  -45.9056 N.am      14 UNK        -0.5000 
     80 CA         -0.9844  -26.9568  -46.9948 C.3       14 UNK         0.1400 
     81 CB         -0.7535  -26.2414  -48.3357 C.3       14 UNK        -0.1800 
     82 C          -2.4860  -27.2200  -46.7819 C.2       14 UNK         0.5000 
     83 O          -2.9810  -28.2577  -47.2236 O.2       14 UNK        -0.5000 
     84 N          -3.1713  -26.2775  -46.1178 N.am      15 UNK        -0.5000 
     85 CA         -4.6139  -26.2536  -45.8499 C.3       15 UNK         0.1400 
     86 CB         -5.0079  -27.3835  -44.8756 C.3       15 UNK        -0.1800 
     87 C          -5.4583  -26.2345  -47.1437 C.2       15 UNK         0.5000 
     88 O          -6.4559  -26.9525  -47.2420 O.2       15 UNK        -0.5000 
     89 N          -5.0346  -25.4209  -48.1191 N.am      16 UNK        -0.5000 
     90 CA         -5.6636  -25.2971  -49.4306 C.3       16 UNK         0.1400 
     91 CB         -5.2575  -26.4803  -50.3349 C.3       16 UNK        -0.1800 
     92 C          -5.3211  -23.9325  -50.0439 C.2       16 UNK         0.5000 
     93 O          -6.1358  -23.0124  -49.9765 O.2       16 UNK        -0.5000 
     94 N          -4.1274  -23.8299  -50.6353 N.am      17 UNK        -0.5000 
     95 CA         -3.5796  -22.6392  -51.2731 C.3       17 UNK         0.1400 
     96 CB         -4.2839  -22.3606  -52.6139 C.3       17 UNK        -0.1800 
     97 C          -2.0817  -22.8758  -51.4930 C.2       17 UNK         0.5000 
     98 O          -1.6689  -24.0218  -51.6886 O.2       17 UNK        -0.5000 
     99 N          -1.2937  -21.7956  -51.4967 N.am      18 UNK        -0.5000 
    100 CA         0.1459  -21.8105  -51.7693 C.3       18 UNK         0.1400 
    101 CB         0.8197  -20.6769  -50.9729 C.3       18 UNK        -0.1800 
    102 C          0.3938  -21.6920  -53.2851 C.2       18 UNK         0.5000 
    103 O          1.0975  -20.7839  -53.7284 O.2       18 UNK        -0.5000 
    104 N         -0.2532  -22.5711  -54.0641 N.am      19 UNK        -0.5000 
    105 CA        -0.4106  -22.4945  -55.5188 C.3       19 UNK         0.1400 
    106 CB         0.9319  -22.7602  -56.2381 C.3       19 UNK        -0.1800 
    107 C         -1.0920  -21.1634  -55.9028 C.2       19 UNK         0.5000 
    108 O         -2.2716  -20.9894  -55.5932 O.2       19 UNK        -0.5000 
    109 N         -0.3388  -20.2451  -56.5183 N.am      20 UNK        -0.5000 
    110 CA        -0.7725  -18.8858  -56.8412 C.3       20 UNK         0.1400 
    111 CB        -0.4322  -18.6075  -58.3149 C.3       20 UNK        -0.1800 
    112 C         -0.1223  -17.8232  -55.9312 C.2       20 UNK         0.5000 
    113 O         -0.4907  -16.6520  -56.0342 O.2       20 UNK        -0.5000 
    114 N          0.8310  -18.2127  -55.0680 N.am      21 UNK        -0.5000 
    115 CA         1.6548  -17.2922  -54.2739 C.3       21 UNK         0.1400 
    116 CB         2.8240  -18.0559  -53.6333 C.3       21 UNK        -0.1800 
    117 C          0.8712  -16.5160  -53.2010 C.2       21 UNK         0.5000 
    118 O          1.2660  -15.4006  -52.8596 O.2       21 UNK        -0.5000 
    119 N         -0.2270  -17.1022  -52.7084 N.am      22 UNK        -0.5000 
    120 CA        -1.1787  -16.4417  -51.8037 C.3       22 UNK         0.1400 
    121 C         -2.2453  -15.5625  -52.5242 C.2       22 UNK         0.5000 
    122 N         -2.2553  -15.4612  -53.8493 N.am      22 UNK        -0.7600 
    123 O         -3.0720  -14.9395  -51.8668 O.2       22 UNK        -0.5000 
    124 C124       -1.7835  -17.4317  -50.7747 C.3       23 UNK        -0.0398 
    125 S125       -2.8421  -18.7512  -51.4765 S.3       23 UNK        -0.2404 
    126 C126       -4.5359  -18.1227  -51.1999 C.3       23 UNK        -0.0205 
    127 H127       -4.5756   -8.5569  -44.8607 H         1 UNK         0.0600 
    128 H128       -5.5517   -7.4545  -45.8352 H         1 UNK         0.0600 
    129 H129       -3.8418   -7.6906  -46.2127 H         1 UNK         0.0600 
    130 H130       -4.9721  -10.6862  -45.3379 H         1 UNK         0.3000 
    131 H131       -6.3723  -11.5905  -47.6530 H         1 UNK         0.0600 
    132 H132       -6.4747  -12.6735  -45.3888 H         1 UNK         0.0800 
    133 H133       -4.8316  -13.2156  -45.5545 H         1 UNK         0.0800 
    134 H134       -4.0389  -15.0317  -47.2355 H         1 UNK         0.0800 
    135 H135       -4.7163  -15.7916  -45.8144 H         1 UNK         0.0800 
    136 H136       -4.2886  -16.0388  -49.4534 H         1 UNK         0.1150 
    137 H137       -5.7965  -20.0479  -49.7064 H         1 UNK         0.1150 
    138 H138       -6.1277  -17.8478  -46.0395 H         1 UNK         0.1150 
    139 H139       -7.3808  -19.8683  -46.2954 H         1 UNK         0.0800 
    140 H140       -7.6407  -20.4863  -47.9043 H         1 UNK         0.0800 
    141 H141       -5.8386  -21.3174  -44.4565 H         1 UNK         0.0800 
    142 H142       -4.7502  -20.1960  -45.2483 H         1 UNK         0.0800 
    143 H143       -4.2210  -23.1905  -45.1868 H         1 UNK         0.0600 
    144 H144       -2.2317  -21.0163  -45.5896 H         1 UNK         0.3000 
    145 H145       -1.3735  -22.4371  -48.7888 H         1 UNK         0.0600 
    146 H146       -1.5707  -20.0242  -49.2081 H         1 UNK         0.0600 
    147 H147       -3.1683  -20.6265  -48.7814 H         1 UNK         0.0600 
    148 H148       -2.2282  -19.7343  -47.6070 H         1 UNK         0.0600 
    149 H149        0.0504  -20.5170  -47.3222 H         1 UNK         0.3000 
    150 H150        2.5467  -22.6912  -45.9620 H         1 UNK         0.0600 
    151 H151        3.8991  -21.0662  -47.2185 H         1 UNK         0.0600 
    152 H152        2.4835  -20.4998  -48.0993 H         1 UNK         0.0600 
    153 H153        3.0783  -22.1362  -48.3448 H         1 UNK         0.0600 
    154 H154        2.1817  -19.8980  -45.6901 H         1 UNK         0.3000 
    155 H155        0.0555  -20.0034  -42.7711 H         1 UNK         0.0600 
    156 H156        2.4331  -20.2296  -42.0206 H         1 UNK         0.0600 
    157 H157        2.9370  -19.0799  -43.2551 H         1 UNK         0.0600 
    158 H158        1.8816  -18.5635  -41.9411 H         1 UNK         0.0600 
    159 H159        1.0667  -17.8082  -44.2783 H         1 UNK         0.3000 
    160 H160       -1.7172  -17.5405  -46.5470 H         1 UNK         0.0600 
    161 H161       -1.6553  -15.2496  -45.5975 H         1 UNK         0.0600 
    162 H162       -0.6777  -15.8063  -44.2435 H         1 UNK         0.0600 
    163 H163       -2.3355  -16.3701  -44.4277 H         1 UNK         0.0600 
    164 H164        0.6601  -16.0022  -46.3412 H         1 UNK         0.3000 
    165 H165        2.7045  -17.9749  -48.5311 H         1 UNK         0.0600 
    166 H166        2.8565  -15.7156  -49.5820 H         1 UNK         0.0600 
    167 H167        1.3437  -16.5122  -49.9746 H         1 UNK         0.0600 
    168 H168        1.3671  -15.2271  -48.7740 H         1 UNK         0.0600 
    169 H169        3.1034  -15.5739  -46.9729 H         1 UNK         0.3000 
    170 H170        4.6096  -17.1945  -44.1735 H         1 UNK         0.0600 
    171 H171        5.8513  -15.5592  -46.4519 H         1 UNK         0.0600 
    172 H172        6.5171  -15.7564  -44.8304 H         1 UNK         0.0600 
    173 H173        6.4063  -17.1382  -45.9088 H         1 UNK         0.0600 
    174 H174        4.2825  -14.4404  -44.8909 H         1 UNK         0.3000 
    175 H175        1.0862  -13.9844  -43.3736 H         1 UNK         0.0600 
    176 H176        2.3651  -12.2806  -42.1262 H         1 UNK         0.0600 
    177 H177        3.8925  -13.0250  -42.5997 H         1 UNK         0.0600 
    178 H178        2.7832  -13.8798  -41.5343 H         1 UNK         0.0600 
    179 H179        2.6425  -12.0403  -44.5853 H         1 UNK         0.3000 
    180 H180        1.7676  -11.0832  -46.4837 H         1 UNK         0.0600 
    181 H181        2.9994  -13.1356  -48.4164 H         1 UNK         0.0600 
    182 H182        3.8961  -12.1467  -47.2703 H         1 UNK         0.0600 
    183 H183        3.0535  -11.3837  -48.6087 H         1 UNK         0.0600 
    184 H184        0.6731  -12.4801  -48.7747 H         1 UNK         0.3000 
    185 H185       -1.8245  -11.6702  -49.2327 H         1 UNK         0.0600 
    186 H186       -1.6478  -14.4232  -47.8417 H         1 UNK         0.0600 
    187 H187       -2.5909  -14.1224  -49.2972 H         1 UNK         0.0600 
    188 H188       -0.8502  -13.9664  -49.3385 H         1 UNK         0.0600 
    189 H189       -2.9333  -11.7602  -46.6554 H         1 UNK         0.3000 
    190 H190       -1.6649  -23.0283  -44.0596 H         1 UNK         0.3000 
    191 H191       -2.7507  -23.7700  -41.4504 H         1 UNK         0.0600 
    192 H192       -1.5935  -21.5811  -40.9597 H         1 UNK         0.0600 
    193 H193       -0.8578  -22.9545  -40.1479 H         1 UNK         0.0600 
    194 H194       -0.0829  -22.2611  -41.5583 H         1 UNK         0.0600 
    195 H195        0.1545  -23.7817  -43.5986 H         1 UNK         0.3000 
    196 H196        0.9024  -26.4600  -42.8222 H         1 UNK         0.0600 
    197 H197        2.6440  -26.2001  -44.5535 H         1 UNK         0.0600 
    198 H198        2.5797  -24.7897  -43.5063 H         1 UNK         0.0600 
    199 H199        1.8946  -24.7189  -45.1245 H         1 UNK         0.0600 
    200 H200       -0.0496  -25.2545  -46.1343 H         1 UNK         0.3000 
    201 H201       -0.4898  -27.9288  -47.0533 H         1 UNK         0.0600 
    202 H202        0.3097  -26.1015  -48.5311 H         1 UNK         0.0600 
    203 H203       -1.2291  -25.2612  -48.3603 H         1 UNK         0.0600 
    204 H204       -1.1629  -26.8211  -49.1639 H         1 UNK         0.0600 
    205 H205       -2.6676  -25.4357  -45.8775 H         1 UNK         0.3000 
    206 H206       -4.8225  -25.3136  -45.3430 H         1 UNK         0.0600 
    207 H207       -4.3998  -27.3526  -43.9713 H         1 UNK         0.0600 
    208 H208       -6.0500  -27.2882  -44.5687 H         1 UNK         0.0600 
    209 H209       -4.8894  -28.3694  -45.3255 H         1 UNK         0.0600 
    210 H210       -4.2455  -24.8024  -47.9348 H         1 UNK         0.3000 
    211 H211       -6.7485  -25.3197  -49.3067 H         1 UNK         0.0600 
    212 H212       -4.1751  -26.6033  -50.3859 H         1 UNK         0.0600 
    213 H213       -5.6264  -26.3423  -51.3521 H         1 UNK         0.0600 
    214 H214       -5.6758  -27.4168  -49.9656 H         1 UNK         0.0600 
    215 H215       -3.5008  -24.6252  -50.6483 H         1 UNK         0.3000 
    216 H216       -3.7174  -21.7856  -50.6100 H         1 UNK         0.0600 
    217 H217       -3.8444  -21.4961  -53.1137 H         1 UNK         0.0600 
    218 H218       -5.3425  -22.1436  -52.4724 H         1 UNK         0.0600 
    219 H219       -4.2027  -23.2092  -53.2941 H         1 UNK         0.0600 
    220 H220       -1.7162  -20.8815  -51.3979 H         1 UNK         0.3000 
    221 H221        0.5793  -22.7557  -51.4359 H         1 UNK         0.0600 
    222 H222        0.4391  -19.6968  -51.2606 H         1 UNK         0.0600 
    223 H223        0.6596  -20.7960  -49.9032 H         1 UNK         0.0600 
    224 H224        1.8981  -20.6713  -51.1349 H         1 UNK         0.0600 
    225 H225       -0.8197  -23.2684  -53.5969 H         1 UNK         0.3000 
    226 H226       -1.1018  -23.2892  -55.8033 H         1 UNK         0.0600 
    227 H227        1.3180  -23.7465  -55.9805 H         1 UNK         0.0600 
    228 H228        0.8055  -22.7398  -57.3213 H         1 UNK         0.0600 
    229 H229        1.7011  -22.0323  -55.9794 H         1 UNK         0.0600 
    230 H230        0.6261  -20.4692  -56.7156 H         1 UNK         0.3000 
    231 H231       -1.8533  -18.7881  -56.7211 H         1 UNK         0.0600 
    232 H232        0.6417  -18.6618  -58.4978 H         1 UNK         0.0600 
    233 H233       -0.7673  -17.6139  -58.6156 H         1 UNK         0.0600 
    234 H234       -0.9213  -19.3256  -58.9734 H         1 UNK         0.0600 
    235 H235        1.0120  -19.2024  -54.9312 H         1 UNK         0.3000 
    236 H236        2.0755  -16.5569  -54.9631 H         1 UNK         0.0600 
    237 H237        3.3829  -18.6252  -54.3760 H         1 UNK         0.0600 
    238 H238        3.5226  -17.3663  -53.1578 H         1 UNK         0.0600 
    239 H239        2.4815  -18.7484  -52.8644 H         1 UNK         0.0600 
    240 H240       -0.4934  -18.0105  -53.0587 H         1 UNK         0.3000 
    241 H241       -0.6130  -15.7237  -51.2077 H         1 UNK         0.0600 
    242 H242       -2.9509  -14.8790  -54.2872 H         1 UNK         0.3800 
    243 H243       -1.5678  -15.9314  -54.4256 H         1 UNK         0.3800 
    244 H244       -0.9685  -17.9215  -50.2412 H         1 UNK         0.0800 
    245 H245       -2.3161  -16.8836  -50.0027 H         1 UNK         0.0800 
    246 H246       -5.2286  -18.7668  -51.7434 H         1 UNK         0.0800 
    247 H247       -4.6381  -17.1359  -51.6519 H         1 UNK         0.0800 
@<TRIPOS>BOND
     1    1    2 1    
     2    1  127 1    
     3    1  128 1    
     4    1  129 1    
     5    2    3 2    
     6    2    4 am   BACKBONE|DICT|INTERRES
     7    4    5 1    
     8    4  130 1    
     9    5    6 1    
    10    5   65 1    
    11    5  131 1    
    12    6    7 1    
    13    6  132 1    
    14    6  133 1    
    15    7    8 1    
    16    8    9 1    
    17    8  134 1    
    18    8  135 1    
    19    9   10 ar   
    20    9   14 ar   
    21   10   11 ar   
    22   10  136 1    
    23   11   12 ar   
    24   11  126 1    
    25   12   13 ar   
    26   12  137 1    
    27   13   14 ar   
    28   13   15 1    
    29   14  138 1    
    30   15   16 1    
    31   15  139 1    
    32   15  140 1    
    33   16   17 1    
    34   17   18 1    
    35   17  141 1    
    36   17  142 1    
    37   18   19 1    
    38   18   67 1    
    39   18  143 1    
    40   19   20 am   BACKBONE|DICT|INTERRES
    41   19  144 1    
    42   20   21 2    
    43   20   22 1    
    44   22   23 1    
    45   22   24 1    
    46   22  145 1    
    47   23  146 1    
    48   23  147 1    
    49   23  148 1    
    50   24   25 am   BACKBONE|DICT|INTERRES
    51   24  149 1    
    52   25   26 2    
    53   25   27 1    
    54   27   28 1    
    55   27   29 1    
    56   27  150 1    
    57   28  151 1    
    58   28  152 1    
    59   28  153 1    
    60   29   30 am   BACKBONE|DICT|INTERRES
    61   29  154 1    
    62   30   31 2    
    63   30   32 1    
    64   32   33 1    
    65   32   34 1    
    66   32  155 1    
    67   33  156 1    
    68   33  157 1    
    69   33  158 1    
    70   34   35 am   BACKBONE|DICT|INTERRES
    71   34  159 1    
    72   35   36 2    
    73   35   37 1    
    74   37   38 1    
    75   37   39 1    
    76   37  160 1    
    77   38  161 1    
    78   38  162 1    
    79   38  163 1    
    80   39   40 am   BACKBONE|DICT|INTERRES
    81   39  164 1    
    82   40   41 2    
    83   40   42 1    
    84   42   43 1    
    85   42   44 1    
    86   42  165 1    
    87   43  166 1    
    88   43  167 1    
    89   43  168 1    
    90   44   45 am   BACKBONE|DICT|INTERRES
    91   44  169 1    
    92   45   46 2    
    93   45   47 1    
    94   47   48 1    
    95   47   49 1    
    96   47  170 1    
    97   48  171 1    
    98   48  172 1    
    99   48  173 1    
   100   49   50 am   BACKBONE|DICT|INTERRES
   101   49  174 1    
   102   50   51 2    
   103   50   52 1    
   104   52   53 1    
   105   52   54 1    
   106   52  175 1    
   107   53  176 1    
   108   53  177 1    
   109   53  178 1    
   110   54   55 am   BACKBONE|DICT|INTERRES
   111   54  179 1    
   112   55   56 2    
   113   55   57 1    
   114   57   58 1    
   115   57   59 1    
   116   57  180 1    
   117   58  181 1    
   118   58  182 1    
   119   58  183 1    
   120   59   60 am   BACKBONE|DICT|INTERRES
   121   59  184 1    
   122   60   61 2    
   123   60   62 1    
   124   62   63 1    
   125   62   64 1    
   126   62  185 1    
   127   63  186 1    
   128   63  187 1    
   129   63  188 1    
   130   64   65 am   BACKBONE|DICT|INTERRES
   131   64  189 1    
   132   65   66 2    
   133   67   68 2    
   134   67   69 am   BACKBONE|DICT|INTERRES
   135   69   70 1    
   136   69  190 1    
   137   70   71 1    
   138   70   72 1    
   139   70  191 1    
   140   71  192 1    
   141   71  193 1    
   142   71  194 1    
   143   72   73 2    
   144   72   74 am   BACKBONE|DICT|INTERRES
   145   74   75 1    
   146   74  195 1    
   147   75   76 1    
   148   75   77 1    
   149   75  196 1    
   150   76  197 1    
   151   76  198 1    
   152   76  199 1    
   153   77   78 2    
   154   77   79 am   BACKBONE|DICT|INTERRES
   155   79   80 1    
   156   79  200 1    
   157   80   81 1    
   158   80   82 1    
   159   80  201 1    
   160   81  202 1    
   161   81  203 1    
   162   81  204 1    
   163   82   83 2    
   164   82   84 am   BACKBONE|DICT|INTERRES
   165   84   85 1    
   166   84  205 1    
   167   85   86 1    
   168   85   87 1    
   169   85  206 1    
   170   86  207 1    
   171   86  208 1    
   172   86  209 1    
   173   87   88 2    
   174   87   89 am   BACKBONE|DICT|INTERRES
   175   89   90 1    
   176   89  210 1    
   177   90   91 1    
   178   90   92 1    
   179   90  211 1    
   180   91  212 1    
   181   91  213 1    
   182   91  214 1    
   183   92   93 2    
   184   92   94 am   BACKBONE|DICT|INTERRES
   185   94   95 1    
   186   94  215 1    
   187   95   96 1    
   188   95   97 1    
   189   95  216 1    
   190   96  217 1    
   191   96  218 1    
   192   96  219 1    
   193   97   98 2    
   194   97   99 am   BACKBONE|DICT|INTERRES
   195   99  100 1    
   196   99  220 1    
   197  100  101 1    
   198  100  102 1    
   199  100  221 1    
   200  101  222 1    
   201  101  223 1    
   202  101  224 1    
   203  102  103 2    
   204  102  104 am   BACKBONE|DICT|INTERRES
   205  104  105 1    
   206  104  225 1    
   207  105  106 1    
   208  105  107 1    
   209  105  226 1    
   210  106  227 1    
   211  106  228 1    
   212  106  229 1    
   213  107  108 2    
   214  107  109 am   BACKBONE|DICT|INTERRES
   215  109  110 1    
   216  109  230 1    
   217  110  111 1    
   218  110  112 1    
   219  110  231 1    
   220  111  232 1    
   221  111  233 1    
   222  111  234 1    
   223  112  113 2    
   224  112  114 am   BACKBONE|DICT|INTERRES
   225  114  115 1    
   226  114  235 1    
   227  115  116 1    
   228  115  117 1    
   229  115  236 1    
   230  116  237 1    
   231  116  238 1    
   232  116  239 1    
   233  117  118 2    
   234  117  119 am   BACKBONE|DICT|INTERRES
   235  119  120 1    
   236  119  240 1    
   237  120  121 1    
   238  120  124 1    
   239  120  241 1    
   240  121  122 am   BACKBONE|DICT|INTERRES
   241  121  123 2    
   242  122  242 1    
   243  122  243 1    
   244  124  125 1    
   245  124  244 1    
   246  124  245 1    
   247  125  126 1    
   248  126  246 1    
   249  126  247 1    
@<TRIPOS>SUBSTRUCTURE
     1 UNK         1 GROUP             0       ****    0 ROOT    
