@<TRIPOS>MOLECULE
3R540
247   249    1
SMALL
USER_CHARGES


@<TRIPOS>ATOM
      1 CA          1.7510   -8.1550  -44.6289 C.3       0 UNK        -0.1800 
      2 C           0.9262   -9.1522  -45.4308 C.2       0 UNK         0.5000 
      3 O          -0.0562   -8.7651  -46.0646 O.2       0 UNK        -0.5000 
      4 N           1.3151  -10.4329  -45.3981 N.am      1 UNK        -0.5000 
      5 CA          0.6912  -11.5174  -46.1610 C.3       1 UNK         0.1400 
      6 C6          1.0682  -12.8965  -45.5584 C.3       23 UNK        -0.0398 
      7 S7          0.3043  -14.3389  -46.3756 S.3       23 UNK        -0.2404 
      8 C8         -1.4416  -14.1894  -45.8792 C.3       23 UNK        -0.0205 
      9 C9         -2.2708  -15.2737  -46.5470 C.ar      23 UNK        -0.0193 
     10 C10        -2.7964  -15.0793  -47.8290 C.ar      23 UNK        -0.1150 
     11 C11        -3.4895  -16.1083  -48.4751 C.ar      23 UNK        -0.0193 
     12 C12        -3.6648  -17.3318  -47.8212 C.ar      23 UNK        -0.1150 
     13 C13        -3.1613  -17.5333  -46.5337 C.ar      23 UNK        -0.0193 
     14 C14        -2.4670  -16.4971  -45.9032 C.ar      23 UNK        -0.1150 
     15 C15        -3.2862  -18.9042  -45.8831 C.3       23 UNK        -0.0205 
     16 S16        -3.6645  -18.8433  -44.0959 S.3       23 UNK        -0.2404 
     17 C17        -3.7094  -20.5905  -43.5443 C.3       23 UNK        -0.0398 
     18 CA         -3.0311  -21.6436  -44.4541 C.3       11 UNK         0.1400 
     19 N          -1.5930  -21.4125  -44.6525 N.am      11 UNK        -0.5000 
     20 C          -0.8447  -22.0470  -45.5679 C.2       10 UNK         0.5000 
     21 O          -1.3121  -22.8401  -46.3847 O.2       10 UNK        -0.5000 
     22 CA          0.6715  -21.7972  -45.5565 C.3       10 UNK         0.1400 
     23 CB          1.0482  -20.6561  -46.5065 C.3       10 UNK        -0.1800 
     24 N           1.1608  -21.5045  -44.2115 N.am      10 UNK        -0.5000 
     25 C           1.4834  -22.4432  -43.3115 C.2       9 UNK         0.5000 
     26 O           1.4819  -23.6497  -43.5553 O.2       9 UNK        -0.5000 
     27 CA          1.8351  -21.9600  -41.8909 C.3       9 UNK         0.1400 
     28 CB          3.3459  -21.7265  -41.7546 C.3       9 UNK        -0.1800 
     29 N           1.1217  -20.7408  -41.5056 N.am      9 UNK        -0.5000 
     30 C          -0.2008  -20.6769  -41.2965 C.2       8 UNK         0.5000 
     31 O          -0.9527  -21.6471  -41.3914 O.2       8 UNK        -0.5000 
     32 CA         -0.7954  -19.2903  -40.9824 C.3       8 UNK         0.1400 
     33 CB         -0.7947  -19.0388  -39.4677 C.3       8 UNK        -0.1800 
     34 N          -0.1276  -18.1730  -41.6558 N.am      8 UNK        -0.5000 
     35 C           0.0646  -18.0548  -42.9770 C.2       7 UNK         0.5000 
     36 O          -0.2472  -18.9260  -43.7900 O.2       7 UNK        -0.5000 
     37 CA          0.7338  -16.7643  -43.4891 C.3       7 UNK         0.1400 
     38 CB          0.9746  -15.6903  -42.4053 C.3       7 UNK        -0.1800 
     39 N           1.9718  -17.0469  -44.2152 N.am      7 UNK        -0.5000 
     40 C           3.0610  -17.6752  -43.7494 C.2       6 UNK         0.5000 
     41 O           3.1475  -18.1405  -42.6114 O.2       6 UNK        -0.5000 
     42 CA          4.2574  -17.8200  -44.7118 C.3       6 UNK         0.1400 
     43 CB          4.6339  -19.2979  -44.9027 C.3       6 UNK        -0.1800 
     44 N           4.0289  -17.2227  -46.0300 N.am      6 UNK        -0.5000 
     45 C           4.1800  -15.9319  -46.3451 C.2       5 UNK         0.5000 
     46 O           4.4760  -15.0643  -45.5234 O.2       5 UNK        -0.5000 
     47 CA          3.9763  -15.5365  -47.8226 C.3       5 UNK         0.1400 
     48 CB          5.2106  -15.9073  -48.6650 C.3       5 UNK        -0.1800 
     49 N           2.7470  -16.0325  -48.4551 N.am      5 UNK        -0.5000 
     50 C           2.3440  -17.2925  -48.6852 C.2       4 UNK         0.5000 
     51 O           2.9687  -18.2944  -48.3361 O.2       4 UNK        -0.5000 
     52 CA          1.0128  -17.4678  -49.4403 C.3       4 UNK         0.1400 
     53 CB         -0.1452  -17.6292  -48.4503 C.3       4 UNK        -0.1800 
     54 N           0.7150  -16.3538  -50.3417 N.am      4 UNK        -0.5000 
     55 C           1.3650  -16.1263  -51.4907 C.2       3 UNK         0.5000 
     56 O           2.2386  -16.8710  -51.9365 O.2       3 UNK        -0.5000 
     57 CA          0.9869  -14.8602  -52.2850 C.3       3 UNK         0.1400 
     58 CB          0.0392  -15.2236  -53.4390 C.3       3 UNK        -0.1800 
     59 N           0.3805  -13.7678  -51.5149 N.am      3 UNK        -0.5000 
     60 C           0.9094  -13.1361  -50.4570 C.2       2 UNK         0.5000 
     61 O           1.9379  -13.5108  -49.8917 O.2       2 UNK        -0.5000 
     62 CA          0.1725  -11.8685  -49.9640 C.3       2 UNK         0.1400 
     63 CB         -1.2502  -11.7112  -50.5411 C.3       2 UNK        -0.1800 
     64 N           0.0803  -11.8330  -48.5075 N.am      2 UNK        -0.5000 
     65 C           1.0267  -11.3964  -47.6668 C.2       1 UNK         0.5000 
     66 O           2.1064  -10.9177  -48.0258 O.2       1 UNK        -0.5000 
     67 C          -3.2938  -23.0695  -43.9289 C.2       11 UNK         0.5000 
     68 O          -4.2319  -23.7197  -44.3897 O.2       11 UNK        -0.5000 
     69 N          -2.4113  -23.5625  -43.0472 N.am      12 UNK        -0.5000 
     70 CA         -2.3685  -24.9516  -42.5800 C.3       12 UNK         0.1400 
     71 CB         -1.3301  -25.0675  -41.4542 C.3       12 UNK        -0.1800 
     72 C          -2.0691  -25.9711  -43.7012 C.2       12 UNK         0.5000 
     73 O          -2.4493  -27.1351  -43.5772 O.2       12 UNK        -0.5000 
     74 N          -1.4348  -25.5084  -44.7871 N.am      13 UNK        -0.5000 
     75 CA         -1.1851  -26.2523  -46.0217 C.3       13 UNK         0.1400 
     76 CB          0.2303  -25.9170  -46.5265 C.3       13 UNK        -0.1800 
     77 C          -2.2604  -25.9634  -47.0929 C.2       13 UNK         0.5000 
     78 O          -1.9889  -26.1339  -48.2815 O.2       13 UNK        -0.5000 
     79 N          -3.4541  -25.5210  -46.6667 N.am      14 UNK        -0.5000 
     80 CA         -4.6368  -25.2182  -47.4794 C.3       14 UNK         0.1400 
     81 CB         -5.1853  -26.4983  -48.1453 C.3       14 UNK        -0.1800 
     82 C          -4.3957  -24.0729  -48.4821 C.2       14 UNK         0.5000 
     83 O          -4.7167  -24.2082  -49.6623 O.2       14 UNK        -0.5000 
     84 N          -3.8067  -22.9731  -47.9911 N.am      15 UNK        -0.5000 
     85 CA         -3.4060  -21.7764  -48.7440 C.3       15 UNK         0.1400 
     86 CB         -4.6364  -21.0337  -49.3088 C.3       15 UNK        -0.1800 
     87 C          -2.3440  -22.1100  -49.8099 C.2       15 UNK         0.5000 
     88 O          -2.4736  -21.7125  -50.9707 O.2       15 UNK        -0.5000 
     89 N          -1.3316  -22.8754  -49.3733 N.am      16 UNK        -0.5000 
     90 CA         -0.2397  -23.4438  -50.1682 C.3       16 UNK         0.1400 
     91 CB          0.7005  -22.3246  -50.6653 C.3       16 UNK        -0.1800 
     92 C          -0.7669  -24.3437  -51.3059 C.2       16 UNK         0.5000 
     93 O          -0.4327  -24.1286  -52.4704 O.2       16 UNK        -0.5000 
     94 N          -1.6279  -25.3084  -50.9484 N.am      17 UNK        -0.5000 
     95 CA         -2.3678  -26.2073  -51.8440 C.3       17 UNK         0.1400 
     96 CB         -1.4136  -27.2261  -52.5005 C.3       17 UNK        -0.1800 
     97 C          -3.2312  -25.4355  -52.8668 C.2       17 UNK         0.5000 
     98 O          -3.2347  -25.7577  -54.0560 O.2       17 UNK        -0.5000 
     99 N          -3.9127  -24.3959  -52.3676 N.am      18 UNK        -0.5000 
    100 CA        -4.7478  -23.4146  -53.0634 C.3       18 UNK         0.1400 
    101 CB        -5.9553  -24.0978  -53.7361 C.3       18 UNK        -0.1800 
    102 C         -3.9982  -22.4794  -54.0367 C.2       18 UNK         0.5000 
    103 O         -4.6493  -21.6476  -54.6715 O.2       18 UNK        -0.5000 
    104 N         -2.6631  -22.5797  -54.1329 N.am      19 UNK        -0.5000 
    105 CA        -1.8390  -21.7933  -55.0561 C.3       19 UNK         0.1400 
    106 CB        -0.4146  -22.3641  -55.1002 C.3       19 UNK        -0.1800 
    107 C         -1.8012  -20.2904  -54.7268 C.2       19 UNK         0.5000 
    108 O         -1.5730  -19.4847  -55.6301 O.2       19 UNK        -0.5000 
    109 N         -2.0443  -19.9320  -53.4578 N.am      20 UNK        -0.5000 
    110 CA        -2.1349  -18.5428  -53.0079 C.3       20 UNK         0.1400 
    111 CB        -1.8696  -18.4923  -51.5011 C.3       20 UNK        -0.1800 
    112 C         -3.4793  -17.8694  -53.3602 C.2       20 UNK         0.5000 
    113 O         -3.5859  -16.6507  -53.2316 O.2       20 UNK        -0.5000 
    114 N         -4.4695  -18.6630  -53.7987 N.am      21 UNK        -0.5000 
    115 CA        -5.7694  -18.2631  -54.3529 C.3       21 UNK         0.1400 
    116 CB        -5.5831  -17.3973  -55.6169 C.3       21 UNK        -0.1800 
    117 C         -6.7699  -17.6343  -53.3570 C.2       21 UNK         0.5000 
    118 O         -7.8215  -17.1615  -53.7927 O.2       21 UNK        -0.5000 
    119 N         -6.4762  -17.6727  -52.0498 N.am      22 UNK        -0.5000 
    120 CA        -7.4103  -17.2514  -50.9846 C.3       22 UNK         0.1400 
    121 C         -8.4871  -18.3209  -50.6282 C.2       22 UNK         0.5000 
    122 N         -8.4058  -19.5488  -51.1275 N.am      22 UNK        -0.7600 
    123 O         -9.4234  -18.0272  -49.8900 O.2       22 UNK        -0.5000 
    124 C124       -6.6795  -16.7681  -49.7052 C.3       23 UNK        -0.0398 
    125 S125       -5.6785  -15.2649  -49.9766 S.3       23 UNK        -0.2404 
    126 C126       -3.9858  -15.9207  -49.9023 C.3       23 UNK        -0.0205 
    127 H127        2.5796   -8.6377  -44.1101 H         1 UNK         0.0600 
    128 H128        1.1251   -7.6623  -43.8848 H         1 UNK         0.0600 
    129 H129        2.1623   -7.3917  -45.2896 H         1 UNK         0.0600 
    130 H130        2.1503  -10.6791  -44.8865 H         1 UNK         0.3000 
    131 H131       -0.3880  -11.3939  -46.0541 H         1 UNK         0.0600 
    132 H132        2.1503  -13.0363  -45.5918 H         1 UNK         0.0800 
    133 H133        0.7956  -12.9252  -44.5026 H         1 UNK         0.0800 
    134 H134       -1.5212  -14.2628  -44.7934 H         1 UNK         0.0800 
    135 H135       -1.8341  -13.2106  -46.1543 H         1 UNK         0.0800 
    136 H136       -2.6384  -14.1390  -48.3372 H         1 UNK         0.1150 
    137 H137       -4.1626  -18.1446  -48.3270 H         1 UNK         0.1150 
    138 H138       -2.0522  -16.6574  -44.9202 H         1 UNK         0.1150 
    139 H139       -4.0591  -19.4896  -46.3825 H         1 UNK         0.0800 
    140 H140       -2.3356  -19.4057  -46.0507 H         1 UNK         0.0800 
    141 H141       -4.7647  -20.8417  -43.4218 H         1 UNK         0.0800 
    142 H142       -3.2841  -20.6340  -42.5418 H         1 UNK         0.0800 
    143 H143       -3.5111  -21.5927  -45.4319 H         1 UNK         0.0600 
    144 H144       -1.1563  -20.7022  -44.0742 H         1 UNK         0.3000 
    145 H145        1.1509  -22.7049  -45.9288 H         1 UNK         0.0600 
    146 H146        2.1220  -20.6334  -46.6869 H         1 UNK         0.0600 
    147 H147        0.5659  -20.7770  -47.4775 H         1 UNK         0.0600 
    148 H148        0.7582  -19.6875  -46.1012 H         1 UNK         0.0600 
    149 H149        1.1098  -20.5372  -43.9153 H         1 UNK         0.3000 
    150 H150        1.5501  -22.7528  -41.1959 H         1 UNK         0.0600 
    151 H151        3.9076  -22.6199  -42.0303 H         1 UNK         0.0600 
    152 H152        3.6152  -21.4766  -40.7283 H         1 UNK         0.0600 
    153 H153        3.6836  -20.9135  -42.3963 H         1 UNK         0.0600 
    154 H154        1.6654  -19.8896  -41.4493 H         1 UNK         0.3000 
    155 H155       -1.8316  -19.2934  -41.3224 H         1 UNK         0.0600 
    156 H156       -1.3072  -19.8429  -38.9376 H         1 UNK         0.0600 
    157 H157       -1.3096  -18.1101  -39.2209 H         1 UNK         0.0600 
    158 H158        0.2194  -18.9776  -39.0706 H         1 UNK         0.0600 
    159 H159        0.1906  -17.4210  -41.0625 H         1 UNK         0.3000 
    160 H160        0.0478  -16.3406  -44.2192 H         1 UNK         0.0600 
    161 H161        1.6609  -16.0312  -41.6294 H         1 UNK         0.0600 
    162 H162        0.0403  -15.3975  -41.9247 H         1 UNK         0.0600 
    163 H163        1.4016  -14.7889  -42.8448 H         1 UNK         0.0600 
    164 H164        1.9963  -16.7338  -45.1745 H         1 UNK         0.3000 
    165 H165        5.1063  -17.3151  -44.2465 H         1 UNK         0.0600 
    166 H166        5.4446  -19.4113  -45.6226 H         1 UNK         0.0600 
    167 H167        4.9759  -19.7360  -43.9651 H         1 UNK         0.0600 
    168 H168        3.7877  -19.8880  -45.2530 H         1 UNK         0.0600 
    169 H169        3.7463  -17.8511  -46.7806 H         1 UNK         0.3000 
    170 H170        3.8864  -14.4489  -47.8406 H         1 UNK         0.0600 
    171 H171        6.1160  -15.4673  -48.2452 H         1 UNK         0.0600 
    172 H172        5.3632  -16.9859  -48.7122 H         1 UNK         0.0600 
    173 H173        5.1129  -15.5383  -49.6862 H         1 UNK         0.0600 
    174 H174        2.1563  -15.2920  -48.8186 H         1 UNK         0.3000 
    175 H175        1.0861  -18.3827  -50.0320 H         1 UNK         0.0600 
    176 H176       -0.2294  -16.7685  -47.7917 H         1 UNK         0.0600 
    177 H177       -1.0974  -17.7546  -48.9587 H         1 UNK         0.0600 
    178 H178       -0.0092  -18.5039  -47.8229 H         1 UNK         0.0600 
    179 H179        0.0184  -15.6894  -50.0398 H         1 UNK         0.3000 
    180 H180        1.9126  -14.4727  -52.7150 H         1 UNK         0.0600 
    181 H181       -0.9367  -15.5404  -53.0693 H         1 UNK         0.0600 
    182 H182        0.4436  -16.0377  -54.0423 H         1 UNK         0.0600 
    183 H183       -0.1150  -14.3752  -54.1058 H         1 UNK         0.0600 
    184 H184       -0.4772  -13.3953  -51.8957 H         1 UNK         0.3000 
    185 H185        0.7621  -11.0129  -50.2994 H         1 UNK         0.0600 
    186 H186       -1.8870  -12.5623  -50.2954 H         1 UNK         0.0600 
    187 H187       -1.7324  -10.8159  -50.1475 H         1 UNK         0.0600 
    188 H188       -1.2330  -11.6034  -51.6263 H         1 UNK         0.0600 
    189 H189       -0.7525  -12.2438  -48.1145 H         1 UNK         0.3000 
    190 H190       -1.7093  -22.9369  -42.6617 H         1 UNK         0.3000 
    191 H191       -3.3499  -25.1959  -42.1684 H         1 UNK         0.0600 
    192 H192       -0.3287  -24.8156  -41.8043 H         1 UNK         0.0600 
    193 H193       -1.5714  -24.4021  -40.6250 H         1 UNK         0.0600 
    194 H194       -1.2942  -26.0826  -41.0568 H         1 UNK         0.0600 
    195 H195       -1.1851  -24.5297  -44.8128 H         1 UNK         0.3000 
    196 H196       -1.2200  -27.3242  -45.8187 H         1 UNK         0.0600 
    197 H197        0.9763  -26.0842  -45.7493 H         1 UNK         0.0600 
    198 H198        0.3115  -24.8797  -46.8494 H         1 UNK         0.0600 
    199 H199        0.5023  -26.5449  -47.3758 H         1 UNK         0.0600 
    200 H200       -3.5647  -25.3440  -45.6761 H         1 UNK         0.3000 
    201 H201       -5.3992  -24.8582  -46.7871 H         1 UNK         0.0600 
    202 H202       -6.1314  -26.3001  -48.6502 H         1 UNK         0.0600 
    203 H203       -5.3698  -27.2783  -47.4068 H         1 UNK         0.0600 
    204 H204       -4.4969  -26.8981  -48.8904 H         1 UNK         0.0600 
    205 H205       -3.4800  -23.0147  -47.0354 H         1 UNK         0.3000 
    206 H206       -2.9185  -21.1088  -48.0329 H         1 UNK         0.0600 
    207 H207       -5.3465  -20.7916  -48.5183 H         1 UNK         0.0600 
    208 H208       -5.1616  -21.6233  -50.0598 H         1 UNK         0.0600 
    209 H209       -4.3471  -20.0959  -49.7812 H         1 UNK         0.0600 
    210 H210       -1.3402  -23.1332  -48.3917 H         1 UNK         0.3000 
    211 H211        0.3320  -24.0889  -49.4995 H         1 UNK         0.0600 
    212 H212        1.0738  -21.7251  -49.8352 H         1 UNK         0.0600 
    213 H213        1.5665  -22.7436  -51.1788 H         1 UNK         0.0600 
    214 H214        0.2011  -21.6530  -51.3646 H         1 UNK         0.0600 
    215 H215       -1.8221  -25.4390  -49.9566 H         1 UNK         0.3000 
    216 H216       -3.0631  -26.7627  -51.2129 H         1 UNK         0.0600 
    217 H217       -1.9697  -27.9671  -53.0757 H         1 UNK         0.0600 
    218 H218       -0.7107  -26.7441  -53.1807 H         1 UNK         0.0600 
    219 H219       -0.8371  -27.7652  -51.7488 H         1 UNK         0.0600 
    220 H220       -3.8761  -24.2568  -51.3605 H         1 UNK         0.3000 
    221 H221       -5.1378  -22.7650  -52.2790 H         1 UNK         0.0600 
    222 H222       -5.6524  -24.7221  -54.5769 H         1 UNK         0.0600 
    223 H223       -6.4971  -24.7252  -53.0283 H         1 UNK         0.0600 
    224 H224       -6.6610  -23.3592  -54.1180 H         1 UNK         0.0600 
    225 H225       -2.1759  -23.2477  -53.5472 H         1 UNK         0.3000 
    226 H226       -2.2734  -21.8986  -56.0524 H         1 UNK         0.0600 
    227 H227       -0.4204  -23.4343  -55.3083 H         1 UNK         0.0600 
    228 H228        0.1726  -21.8826  -55.8830 H         1 UNK         0.0600 
    229 H229        0.1100  -22.2051  -54.1576 H         1 UNK         0.0600 
    230 H230       -2.2081  -20.6529  -52.7609 H         1 UNK         0.3000 
    231 H231       -1.3465  -17.9710  -53.5011 H         1 UNK         0.0600 
    232 H232       -2.6718  -18.9582  -50.9311 H         1 UNK         0.0600 
    233 H233       -1.7778  -17.4590  -51.1686 H         1 UNK         0.0600 
    234 H234       -0.9400  -19.0014  -51.2479 H         1 UNK         0.0600 
    235 H235       -4.2730  -19.6545  -53.8718 H         1 UNK         0.3000 
    236 H236       -6.2367  -19.1949  -54.6743 H         1 UNK         0.0600 
    237 H237       -4.9017  -17.8723  -56.3228 H         1 UNK         0.0600 
    238 H238       -6.5309  -17.2487  -56.1355 H         1 UNK         0.0600 
    239 H239       -5.1859  -16.4105  -55.3778 H         1 UNK         0.0600 
    240 H240       -5.5946  -18.0668  -51.7624 H         1 UNK         0.3000 
    241 H241       -7.9764  -16.3959  -51.3586 H         1 UNK         0.0600 
    242 H242       -7.6524  -19.8074  -51.7423 H         1 UNK         0.3800 
    243 H243       -9.1148  -20.2250  -50.8913 H         1 UNK         0.3800 
    244 H244       -7.3997  -16.5196  -48.9236 H         1 UNK         0.0800 
    245 H245       -6.0693  -17.5721  -49.2986 H         1 UNK         0.0800 
    246 H246       -3.3221  -15.2412  -50.4391 H         1 UNK         0.0800 
    247 H247       -3.9497  -16.8653  -50.4422 H         1 UNK         0.0800 
@<TRIPOS>BOND
     1    1    2 1    
     2    1  127 1    
     3    1  128 1    
     4    1  129 1    
     5    2    3 2    
     6    2    4 am   BACKBONE|DICT|INTERRES
     7    4    5 1    
     8    4  130 1    
     9    5    6 1    
    10    5   65 1    
    11    5  131 1    
    12    6    7 1    
    13    6  132 1    
    14    6  133 1    
    15    7    8 1    
    16    8    9 1    
    17    8  134 1    
    18    8  135 1    
    19    9   10 ar   
    20    9   14 ar   
    21   10   11 ar   
    22   10  136 1    
    23   11   12 ar   
    24   11  126 1    
    25   12   13 ar   
    26   12  137 1    
    27   13   14 ar   
    28   13   15 1    
    29   14  138 1    
    30   15   16 1    
    31   15  139 1    
    32   15  140 1    
    33   16   17 1    
    34   17   18 1    
    35   17  141 1    
    36   17  142 1    
    37   18   19 1    
    38   18   67 1    
    39   18  143 1    
    40   19   20 am   BACKBONE|DICT|INTERRES
    41   19  144 1    
    42   20   21 2    
    43   20   22 1    
    44   22   23 1    
    45   22   24 1    
    46   22  145 1    
    47   23  146 1    
    48   23  147 1    
    49   23  148 1    
    50   24   25 am   BACKBONE|DICT|INTERRES
    51   24  149 1    
    52   25   26 2    
    53   25   27 1    
    54   27   28 1    
    55   27   29 1    
    56   27  150 1    
    57   28  151 1    
    58   28  152 1    
    59   28  153 1    
    60   29   30 am   BACKBONE|DICT|INTERRES
    61   29  154 1    
    62   30   31 2    
    63   30   32 1    
    64   32   33 1    
    65   32   34 1    
    66   32  155 1    
    67   33  156 1    
    68   33  157 1    
    69   33  158 1    
    70   34   35 am   BACKBONE|DICT|INTERRES
    71   34  159 1    
    72   35   36 2    
    73   35   37 1    
    74   37   38 1    
    75   37   39 1    
    76   37  160 1    
    77   38  161 1    
    78   38  162 1    
    79   38  163 1    
    80   39   40 am   BACKBONE|DICT|INTERRES
    81   39  164 1    
    82   40   41 2    
    83   40   42 1    
    84   42   43 1    
    85   42   44 1    
    86   42  165 1    
    87   43  166 1    
    88   43  167 1    
    89   43  168 1    
    90   44   45 am   BACKBONE|DICT|INTERRES
    91   44  169 1    
    92   45   46 2    
    93   45   47 1    
    94   47   48 1    
    95   47   49 1    
    96   47  170 1    
    97   48  171 1    
    98   48  172 1    
    99   48  173 1    
   100   49   50 am   BACKBONE|DICT|INTERRES
   101   49  174 1    
   102   50   51 2    
   103   50   52 1    
   104   52   53 1    
   105   52   54 1    
   106   52  175 1    
   107   53  176 1    
   108   53  177 1    
   109   53  178 1    
   110   54   55 am   BACKBONE|DICT|INTERRES
   111   54  179 1    
   112   55   56 2    
   113   55   57 1    
   114   57   58 1    
   115   57   59 1    
   116   57  180 1    
   117   58  181 1    
   118   58  182 1    
   119   58  183 1    
   120   59   60 am   BACKBONE|DICT|INTERRES
   121   59  184 1    
   122   60   61 2    
   123   60   62 1    
   124   62   63 1    
   125   62   64 1    
   126   62  185 1    
   127   63  186 1    
   128   63  187 1    
   129   63  188 1    
   130   64   65 am   BACKBONE|DICT|INTERRES
   131   64  189 1    
   132   65   66 2    
   133   67   68 2    
   134   67   69 am   BACKBONE|DICT|INTERRES
   135   69   70 1    
   136   69  190 1    
   137   70   71 1    
   138   70   72 1    
   139   70  191 1    
   140   71  192 1    
   141   71  193 1    
   142   71  194 1    
   143   72   73 2    
   144   72   74 am   BACKBONE|DICT|INTERRES
   145   74   75 1    
   146   74  195 1    
   147   75   76 1    
   148   75   77 1    
   149   75  196 1    
   150   76  197 1    
   151   76  198 1    
   152   76  199 1    
   153   77   78 2    
   154   77   79 am   BACKBONE|DICT|INTERRES
   155   79   80 1    
   156   79  200 1    
   157   80   81 1    
   158   80   82 1    
   159   80  201 1    
   160   81  202 1    
   161   81  203 1    
   162   81  204 1    
   163   82   83 2    
   164   82   84 am   BACKBONE|DICT|INTERRES
   165   84   85 1    
   166   84  205 1    
   167   85   86 1    
   168   85   87 1    
   169   85  206 1    
   170   86  207 1    
   171   86  208 1    
   172   86  209 1    
   173   87   88 2    
   174   87   89 am   BACKBONE|DICT|INTERRES
   175   89   90 1    
   176   89  210 1    
   177   90   91 1    
   178   90   92 1    
   179   90  211 1    
   180   91  212 1    
   181   91  213 1    
   182   91  214 1    
   183   92   93 2    
   184   92   94 am   BACKBONE|DICT|INTERRES
   185   94   95 1    
   186   94  215 1    
   187   95   96 1    
   188   95   97 1    
   189   95  216 1    
   190   96  217 1    
   191   96  218 1    
   192   96  219 1    
   193   97   98 2    
   194   97   99 am   BACKBONE|DICT|INTERRES
   195   99  100 1    
   196   99  220 1    
   197  100  101 1    
   198  100  102 1    
   199  100  221 1    
   200  101  222 1    
   201  101  223 1    
   202  101  224 1    
   203  102  103 2    
   204  102  104 am   BACKBONE|DICT|INTERRES
   205  104  105 1    
   206  104  225 1    
   207  105  106 1    
   208  105  107 1    
   209  105  226 1    
   210  106  227 1    
   211  106  228 1    
   212  106  229 1    
   213  107  108 2    
   214  107  109 am   BACKBONE|DICT|INTERRES
   215  109  110 1    
   216  109  230 1    
   217  110  111 1    
   218  110  112 1    
   219  110  231 1    
   220  111  232 1    
   221  111  233 1    
   222  111  234 1    
   223  112  113 2    
   224  112  114 am   BACKBONE|DICT|INTERRES
   225  114  115 1    
   226  114  235 1    
   227  115  116 1    
   228  115  117 1    
   229  115  236 1    
   230  116  237 1    
   231  116  238 1    
   232  116  239 1    
   233  117  118 2    
   234  117  119 am   BACKBONE|DICT|INTERRES
   235  119  120 1    
   236  119  240 1    
   237  120  121 1    
   238  120  124 1    
   239  120  241 1    
   240  121  122 am   BACKBONE|DICT|INTERRES
   241  121  123 2    
   242  122  242 1    
   243  122  243 1    
   244  124  125 1    
   245  124  244 1    
   246  124  245 1    
   247  125  126 1    
   248  126  246 1    
   249  126  247 1    
@<TRIPOS>SUBSTRUCTURE
     1 UNK         1 GROUP             0       ****    0 ROOT    
