@<TRIPOS>MOLECULE
3R540
247   249    1
SMALL
USER_CHARGES


@<TRIPOS>ATOM
      1 CA         -1.9858  -15.7915  -47.2640 C.3       0 UNK        -0.1800 
      2 C          -1.0932  -15.8392  -48.4936 C.2       0 UNK         0.5000 
      3 O          -1.3135  -15.0817  -49.4392 O.2       0 UNK        -0.5000 
      4 N          -0.0761  -16.7120  -48.4721 N.am      1 UNK        -0.5000 
      5 CA          0.9107  -16.9110  -49.5482 C.3       1 UNK         0.1400 
      6 C6          1.8654  -18.0906  -49.2085 C.3       23 UNK        -0.0398 
      7 S7          2.3689  -19.0550  -50.6708 S.3       23 UNK        -0.2404 
      8 C8          1.1452  -20.4042  -50.6417 C.3       23 UNK        -0.0205 
      9 C9         -0.2517  -19.8839  -50.9387 C.ar      23 UNK        -0.0193 
     10 C10        -0.6049  -19.5517  -52.2485 C.ar      23 UNK        -0.1150 
     11 C11        -1.8565  -18.9971  -52.5243 C.ar      23 UNK        -0.0193 
     12 C12        -2.7739  -18.8253  -51.4879 C.ar      23 UNK        -0.1150 
     13 C13        -2.4434  -19.1680  -50.1763 C.ar      23 UNK        -0.0193 
     14 C14        -1.1732  -19.6879  -49.9056 C.ar      23 UNK        -0.1150 
     15 C15        -3.4572  -18.9272  -49.0676 C.3       23 UNK        -0.0205 
     16 S16        -3.8954  -20.4467  -48.1717 S.3       23 UNK        -0.2404 
     17 C17        -2.7102  -20.4198  -46.7846 C.3       23 UNK        -0.0398 
     18 CA         -1.8090  -21.6751  -46.7440 C.3       11 UNK         0.1400 
     19 N          -0.5959  -21.4719  -45.9492 N.am      11 UNK        -0.5000 
     20 C           0.4038  -22.3594  -45.8452 C.2       10 UNK         0.5000 
     21 O           0.4402  -23.4173  -46.4746 O.2       10 UNK        -0.5000 
     22 CA          1.5271  -22.0405  -44.8399 C.3       10 UNK         0.1400 
     23 CB          2.6533  -21.2605  -45.5320 C.3       10 UNK        -0.1800 
     24 N           1.0592  -21.3011  -43.6628 N.am      10 UNK        -0.5000 
     25 C           0.1653  -21.7654  -42.7753 C.2       9 UNK         0.5000 
     26 O          -0.3243  -22.8933  -42.8277 O.2       9 UNK        -0.5000 
     27 CA         -0.3304  -20.7770  -41.7025 C.3       9 UNK         0.1400 
     28 CB          0.6703  -20.6543  -40.5442 C.3       9 UNK        -0.1800 
     29 N          -0.6146  -19.4567  -42.2695 N.am      9 UNK        -0.5000 
     30 C          -1.5761  -19.2265  -43.1757 C.2       8 UNK         0.5000 
     31 O          -2.3785  -20.0846  -43.5417 O.2       8 UNK        -0.5000 
     32 CA         -1.6053  -17.8368  -43.8356 C.3       8 UNK         0.1400 
     33 CB         -2.4060  -16.8325  -42.9950 C.3       8 UNK        -0.1800 
     34 N          -0.2559  -17.3234  -44.0690 N.am      8 UNK        -0.5000 
     35 C           0.5810  -17.7618  -45.0182 C.2       7 UNK         0.5000 
     36 O           0.2446  -18.5317  -45.9183 O.2       7 UNK        -0.5000 
     37 CA          2.0412  -17.2737  -44.9501 C.3       7 UNK         0.1400 
     38 CB          2.2690  -16.0644  -45.8618 C.3       7 UNK        -0.1800 
     39 N           2.4500  -16.9276  -43.5927 N.am      7 UNK        -0.5000 
     40 C           2.7777  -17.8212  -42.6519 C.2       6 UNK         0.5000 
     41 O           2.7878  -19.0365  -42.8450 O.2       6 UNK        -0.5000 
     42 CA          3.1079  -17.2598  -41.2556 C.3       6 UNK         0.1400 
     43 CB          4.6066  -16.9448  -41.1433 C.3       6 UNK        -0.1800 
     44 N           2.3357  -16.0546  -40.9405 N.am      6 UNK        -0.5000 
     45 C           1.0101  -16.0429  -40.7422 C.2       5 UNK         0.5000 
     46 O           0.3154  -17.0591  -40.7480 O.2       5 UNK        -0.5000 
     47 CA          0.3448  -14.6620  -40.5772 C.3       5 UNK         0.1400 
     48 CB          0.4080  -14.2035  -39.1128 C.3       5 UNK        -0.1800 
     49 N           0.9251  -13.6247  -41.4399 N.am      5 UNK        -0.5000 
     50 C           0.9234  -13.6609  -42.7798 C.2       4 UNK         0.5000 
     51 O           0.4602  -14.5998  -43.4281 O.2       4 UNK        -0.5000 
     52 CA          1.6184  -12.4916  -43.5051 C.3       4 UNK         0.1400 
     53 CB          3.1411  -12.7026  -43.4983 C.3       4 UNK        -0.1800 
     54 N           1.1870  -12.3266  -44.8959 N.am      4 UNK        -0.5000 
     55 C          -0.0458  -12.0123  -45.3111 C.2       3 UNK         0.5000 
     56 O          -0.9861  -11.8099  -44.5413 O.2       3 UNK        -0.5000 
     57 CA         -0.2926  -11.8825  -46.8333 C.3       3 UNK         0.1400 
     58 CB         -0.3276  -10.3998  -47.2512 C.3       3 UNK        -0.1800 
     59 N           0.5978  -12.6499  -47.7230 N.am      3 UNK        -0.5000 
     60 C           1.9195  -12.5199  -47.9253 C.2       2 UNK         0.5000 
     61 O           2.6316  -11.7378  -47.2957 O.2       2 UNK        -0.5000 
     62 CA          2.5466  -13.4624  -48.9718 C.3       2 UNK         0.1400 
     63 CB          4.0695  -13.6265  -48.8042 C.3       2 UNK        -0.1800 
     64 N           1.9001  -14.7681  -48.8960 N.am      2 UNK        -0.5000 
     65 C           1.6990  -15.6257  -49.9033 C.2       1 UNK         0.5000 
     66 O           2.0754  -15.4282  -51.0586 O.2       1 UNK        -0.5000 
     67 C          -2.5987  -22.9158  -46.2836 C.2       11 UNK         0.5000 
     68 O          -3.0171  -23.7151  -47.1198 O.2       11 UNK        -0.5000 
     69 N          -2.7583  -23.0727  -44.9646 N.am      12 UNK        -0.5000 
     70 CA         -3.4067  -24.2345  -44.3651 C.3       12 UNK         0.1400 
     71 CB         -3.8069  -23.9036  -42.9189 C.3       12 UNK        -0.1800 
     72 C          -2.5132  -25.4866  -44.4192 C.2       12 UNK         0.5000 
     73 O          -2.9868  -26.5547  -44.8078 O.2       12 UNK        -0.5000 
     74 N          -1.2469  -25.3327  -44.0108 N.am      13 UNK        -0.5000 
     75 CA         -0.3104  -26.4348  -43.8016 C.3       13 UNK         0.1400 
     76 CB          0.8480  -25.9525  -42.9143 C.3       13 UNK        -0.1800 
     77 C           0.2352  -27.0617  -45.0957 C.2       13 UNK         0.5000 
     78 O           0.3321  -28.2880  -45.1666 O.2       13 UNK        -0.5000 
     79 N           0.6186  -26.2258  -46.0693 N.am      14 UNK        -0.5000 
     80 CA          1.3479  -26.6469  -47.2661 C.3       14 UNK         0.1400 
     81 CB          2.6629  -25.8551  -47.3658 C.3       14 UNK        -0.1800 
     82 C           0.5157  -26.4743  -48.5429 C.2       14 UNK         0.5000 
     83 O           0.4883  -27.3906  -49.3658 O.2       14 UNK        -0.5000 
     84 N          -0.1379  -25.3141  -48.7035 N.am      15 UNK        -0.5000 
     85 CA         -0.8889  -24.9819  -49.9219 C.3       15 UNK         0.1400 
     86 CB         -1.0454  -23.4579  -50.0382 C.3       15 UNK        -0.1800 
     87 C          -2.2603  -25.6816  -50.0056 C.2       15 UNK         0.5000 
     88 O          -2.8116  -25.7875  -51.1013 O.2       15 UNK        -0.5000 
     89 N          -2.7752  -26.1387  -48.8545 N.am      16 UNK        -0.5000 
     90 CA         -4.0646  -26.8041  -48.6508 C.3       16 UNK         0.1400 
     91 CB         -4.0811  -28.1868  -49.3356 C.3       16 UNK        -0.1800 
     92 C          -5.2607  -25.9101  -49.0424 C.2       16 UNK         0.5000 
     93 O          -6.1618  -26.3561  -49.7552 O.2       16 UNK        -0.5000 
     94 N          -5.2349  -24.6619  -48.5521 N.am      17 UNK        -0.5000 
     95 CA         -6.2246  -23.5995  -48.7558 C.3       17 UNK         0.1400 
     96 CB         -7.5850  -23.9792  -48.1335 C.3       17 UNK        -0.1800 
     97 C          -6.3220  -23.1697  -50.2335 C.2       17 UNK         0.5000 
     98 O          -7.3985  -23.2145  -50.8335 O.2       17 UNK        -0.5000 
     99 N          -5.1732  -22.7716  -50.7931 N.am      18 UNK        -0.5000 
    100 CA        -5.0399  -22.2164  -52.1402 C.3       18 UNK         0.1400 
    101 CB        -3.5500  -22.2133  -52.5161 C.3       18 UNK        -0.1800 
    102 C         -5.6556  -20.8053  -52.2659 C.2       18 UNK         0.5000 
    103 O         -5.9576  -20.1605  -51.2588 O.2       18 UNK        -0.5000 
    104 N         -5.8241  -20.3453  -53.5096 N.am      19 UNK        -0.5000 
    105 CA        -6.3963  -19.0488  -53.8639 C.3       19 UNK         0.1400 
    106 CB        -7.9339  -19.1176  -53.7646 C.3       19 UNK        -0.1800 
    107 C         -5.9399  -18.6546  -55.2799 C.2       19 UNK         0.5000 
    108 O         -5.2972  -19.4631  -55.9547 O.2       19 UNK        -0.5000 
    109 N         -6.3189  -17.4358  -55.6932 N.am      20 UNK        -0.5000 
    110 CA        -6.0451  -16.7597  -56.9680 C.3       20 UNK         0.1400 
    111 CB        -6.4192  -17.6213  -58.1907 C.3       20 UNK        -0.1800 
    112 C         -4.5994  -16.2357  -57.0440 C.2       20 UNK         0.5000 
    113 O         -3.6553  -17.0248  -57.0532 O.2       20 UNK        -0.5000 
    114 N         -4.4679  -14.8995  -57.0761 N.am      21 UNK        -0.5000 
    115 CA        -3.2261  -14.1034  -57.0571 C.3       21 UNK         0.1400 
    116 CB        -2.3206  -14.4414  -58.2596 C.3       21 UNK        -0.1800 
    117 C         -2.4576  -14.1530  -55.7155 C.2       21 UNK         0.5000 
    118 O         -1.3585  -13.6055  -55.6154 O.2       21 UNK        -0.5000 
    119 N         -3.0622  -14.7813  -54.7064 N.am      22 UNK        -0.5000 
    120 CA        -2.5628  -15.0223  -53.3517 C.3       22 UNK         0.1400 
    121 C         -3.7207  -15.5552  -52.4656 C.2       22 UNK         0.5000 
    122 N         -3.5689  -15.5459  -51.1490 N.am      22 UNK        -0.7600 
    123 O         -4.7681  -15.9737  -52.9582 O.2       22 UNK        -0.5000 
    124 C124       -1.2791  -15.9083  -53.2850 C.3       23 UNK        -0.0398 
    125 S125       -1.1131  -17.2361  -54.5415 S.3       23 UNK        -0.2404 
    126 C126       -2.2132  -18.5530  -53.9322 C.3       23 UNK        -0.0205 
    127 H127       -1.6770  -14.9812  -46.6028 H         1 UNK         0.0600 
    128 H128       -1.9383  -16.7261  -46.7082 H         1 UNK         0.0600 
    129 H129       -3.0233  -15.6238  -47.5541 H         1 UNK         0.0600 
    130 H130        0.0156  -17.3322  -47.6757 H         1 UNK         0.3000 
    131 H131        0.3296  -17.1703  -50.4350 H         1 UNK         0.0600 
    132 H132        1.3940  -18.7793  -48.5059 H         1 UNK         0.0800 
    133 H133        2.7688  -17.7474  -48.7019 H         1 UNK         0.0800 
    134 H134        1.4198  -21.1517  -51.3874 H         1 UNK         0.0800 
    135 H135        1.1781  -20.9088  -49.6748 H         1 UNK         0.0800 
    136 H136        0.1118  -19.6807  -53.0473 H         1 UNK         0.1150 
    137 H137       -3.7472  -18.4069  -51.7010 H         1 UNK         0.1150 
    138 H138       -0.8908  -19.9205  -48.8909 H         1 UNK         0.1150 
    139 H139       -3.0842  -18.1688  -48.3823 H         1 UNK         0.0800 
    140 H140       -4.3793  -18.5200  -49.4853 H         1 UNK         0.0800 
    141 H141       -3.2838  -20.3095  -45.8649 H         1 UNK         0.0800 
    142 H142       -2.0920  -19.5254  -46.8557 H         1 UNK         0.0800 
    143 H143       -1.4610  -21.8671  -47.7567 H         1 UNK         0.0600 
    144 H144       -0.5237  -20.6024  -45.4383 H         1 UNK         0.3000 
    145 H145        1.9370  -22.9900  -44.4911 H         1 UNK         0.0600 
    146 H146        3.4598  -21.0258  -44.8371 H         1 UNK         0.0600 
    147 H147        3.0844  -21.8440  -46.3466 H         1 UNK         0.0600 
    148 H148        2.2922  -20.3257  -45.9592 H         1 UNK         0.0600 
    149 H149        1.4700  -20.3865  -43.5042 H         1 UNK         0.3000 
    150 H150       -1.2641  -21.1716  -41.2959 H         1 UNK         0.0600 
    151 H151        0.8282  -21.6216  -40.0658 H         1 UNK         0.0600 
    152 H152        0.3056  -19.9680  -39.7796 H         1 UNK         0.0600 
    153 H153        1.6423  -20.2952  -40.8788 H         1 UNK         0.0600 
    154 H154       -0.0396  -18.6825  -41.9560 H         1 UNK         0.3000 
    155 H155       -2.1096  -17.9443  -44.7966 H         1 UNK         0.0600 
    156 H156       -2.4320  -15.8528  -43.4729 H         1 UNK         0.0600 
    157 H157       -1.9836  -16.7070  -41.9986 H         1 UNK         0.0600 
    158 H158       -3.4377  -17.1643  -42.8729 H         1 UNK         0.0600 
    159 H159        0.0683  -16.5898  -43.4489 H         1 UNK         0.3000 
    160 H160        2.6835  -18.0821  -45.3042 H         1 UNK         0.0600 
    161 H161        3.2551  -15.6253  -45.7083 H         1 UNK         0.0600 
    162 H162        1.5223  -15.2838  -45.7137 H         1 UNK         0.0600 
    163 H163        2.2243  -16.3850  -46.8966 H         1 UNK         0.0600 
    164 H164        2.4000  -15.9516  -43.3412 H         1 UNK         0.3000 
    165 H165        2.8622  -18.0286  -40.5200 H         1 UNK         0.0600 
    166 H166        4.8651  -16.6106  -40.1383 H         1 UNK         0.0600 
    167 H167        5.2079  -17.8302  -41.3548 H         1 UNK         0.0600 
    168 H168        4.9097  -16.1667  -41.8451 H         1 UNK         0.0600 
    169 H169        2.8380  -15.1795  -40.9147 H         1 UNK         0.3000 
    170 H170       -0.7060  -14.7712  -40.8536 H         1 UNK         0.0600 
    171 H171       -0.0350  -14.9490  -38.4510 H         1 UNK         0.0600 
    172 H172        1.4353  -14.0415  -38.7841 H         1 UNK         0.0600 
    173 H173       -0.1426  -13.2739  -38.9664 H         1 UNK         0.0600 
    174 H174        1.3370  -12.8303  -40.9714 H         1 UNK         0.3000 
    175 H175        1.3848  -11.5689  -42.9703 H         1 UNK         0.0600 
    176 H176        3.4241  -13.6083  -44.0362 H         1 UNK         0.0600 
    177 H177        3.6565  -11.8632  -43.9660 H         1 UNK         0.0600 
    178 H178        3.5260  -12.7897  -42.4815 H         1 UNK         0.0600 
    179 H179        1.9063  -12.3889  -45.6074 H         1 UNK         0.3000 
    180 H180       -1.2898  -12.2904  -47.0072 H         1 UNK         0.0600 
    181 H181       -0.5933  -10.2923  -48.3028 H         1 UNK         0.0600 
    182 H182        0.6345   -9.9108  -47.0956 H         1 UNK         0.0600 
    183 H183       -1.0692   -9.8481  -46.6720 H         1 UNK         0.0600 
    184 H184        0.1169  -13.3172  -48.3119 H         1 UNK         0.3000 
    185 H185        2.3483  -13.0181  -49.9494 H         1 UNK         0.0600 
    186 H186        4.4824  -14.2846  -49.5689 H         1 UNK         0.0600 
    187 H187        4.5810  -12.6674  -48.8943 H         1 UNK         0.0600 
    188 H188        4.3215  -14.0462  -47.8296 H         1 UNK         0.0600 
    189 H189        1.5379  -15.0173  -47.9876 H         1 UNK         0.3000 
    190 H190       -2.3735  -22.3802  -44.3347 H         1 UNK         0.3000 
    191 H191       -4.3203  -24.4502  -44.9241 H         1 UNK         0.0600 
    192 H192       -4.3069  -24.7513  -42.4487 H         1 UNK         0.0600 
    193 H193       -4.4963  -23.0598  -42.8856 H         1 UNK         0.0600 
    194 H194       -2.9414  -23.6508  -42.3054 H         1 UNK         0.0600 
    195 H195       -0.9454  -24.4165  -43.6857 H         1 UNK         0.3000 
    196 H196       -0.8373  -27.2205  -43.2557 H         1 UNK         0.0600 
    197 H197        1.4081  -25.1452  -43.3869 H         1 UNK         0.0600 
    198 H198        0.4833  -25.5876  -41.9539 H         1 UNK         0.0600 
    199 H199        1.5488  -26.7629  -42.7095 H         1 UNK         0.0600 
    200 H200        0.4708  -25.2260  -45.9637 H         1 UNK         0.3000 
    201 H201        1.6153  -27.7036  -47.1999 H         1 UNK         0.0600 
    202 H202        2.4904  -24.7829  -47.4615 H         1 UNK         0.0600 
    203 H203        3.2424  -26.1710  -48.2341 H         1 UNK         0.0600 
    204 H204        3.2847  -26.0151  -46.4850 H         1 UNK         0.0600 
    205 H205       -0.0575  -24.5969  -47.9895 H         1 UNK         0.3000 
    206 H206       -0.2973  -25.3139  -50.7781 H         1 UNK         0.0600 
    207 H207       -0.1834  -22.9287  -49.6338 H         1 UNK         0.0600 
    208 H208       -1.1389  -23.1658  -51.0838 H         1 UNK         0.0600 
    209 H209       -1.9393  -23.1005  -49.5287 H         1 UNK         0.0600 
    210 H210       -2.2552  -25.9336  -48.0126 H         1 UNK         0.3000 
    211 H211       -4.1515  -26.9715  -47.5761 H         1 UNK         0.0600 
    212 H212       -4.9889  -28.7358  -49.0830 H         1 UNK         0.0600 
    213 H213       -3.2349  -28.7945  -49.0150 H         1 UNK         0.0600 
    214 H214       -4.0416  -28.1037  -50.4220 H         1 UNK         0.0600 
    215 H215       -4.4154  -24.3882  -48.0102 H         1 UNK         0.3000 
    216 H216       -5.8547  -22.7324  -48.2076 H         1 UNK         0.0600 
    217 H217       -8.2824  -23.1426  -48.1885 H         1 UNK         0.0600 
    218 H218       -8.0490  -24.8231  -48.6446 H         1 UNK         0.0600 
    219 H219       -7.4764  -24.2424  -47.0814 H         1 UNK         0.0600 
    220 H220       -4.3475  -22.7395  -50.2148 H         1 UNK         0.3000 
    221 H221       -5.5696  -22.8728  -52.8337 H         1 UNK         0.0600 
    222 H222       -3.1553  -23.2289  -52.5520 H         1 UNK         0.0600 
    223 H223       -2.9581  -21.6514  -51.7942 H         1 UNK         0.0600 
    224 H224       -3.3824  -21.7676  -53.4971 H         1 UNK         0.0600 
    225 H225       -5.4963  -20.8789  -54.3054 H         1 UNK         0.3000 
    226 H226       -6.0205  -18.2950  -53.1701 H         1 UNK         0.0600 
    227 H227       -8.3460  -19.8512  -54.4584 H         1 UNK         0.0600 
    228 H228       -8.2557  -19.3921  -52.7599 H         1 UNK         0.0600 
    229 H229       -8.3925  -18.1550  -53.9923 H         1 UNK         0.0600 
    230 H230       -6.8167  -16.8661  -55.0232 H         1 UNK         0.3000 
    231 H231       -6.7147  -15.8983  -56.9808 H         1 UNK         0.0600 
    232 H232       -5.7533  -18.4755  -58.3125 H         1 UNK         0.0600 
    233 H233       -6.3569  -17.0342  -59.1076 H         1 UNK         0.0600 
    234 H234       -7.4392  -17.9971  -58.1129 H         1 UNK         0.0600 
    235 H235       -5.3144  -14.3468  -57.0635 H         1 UNK         0.3000 
    236 H236       -3.5420  -13.0660  -57.1743 H         1 UNK         0.0600 
    237 H237       -1.4992  -13.7289  -58.3410 H         1 UNK         0.0600 
    238 H238       -1.8781  -15.4336  -58.1695 H         1 UNK         0.0600 
    239 H239       -2.8760  -14.4032  -59.1966 H         1 UNK         0.0600 
    240 H240       -3.9728  -15.1895  -54.8683 H         1 UNK         0.3000 
    241 H241       -2.3143  -14.0427  -52.9396 H         1 UNK         0.0600 
    242 H242       -4.3328  -15.8703  -50.5804 H         1 UNK         0.3800 
    243 H243       -2.7133  -15.2356  -50.6954 H         1 UNK         0.3800 
    244 H244       -1.1335  -16.3283  -52.2888 H         1 UNK         0.0800 
    245 H245       -0.4166  -15.2571  -53.4313 H         1 UNK         0.0800 
    246 H246       -3.2433  -18.1995  -53.9835 H         1 UNK         0.0800 
    247 H247       -2.1509  -19.4091  -54.6050 H         1 UNK         0.0800 
@<TRIPOS>BOND
     1    1    2 1    
     2    1  127 1    
     3    1  128 1    
     4    1  129 1    
     5    2    3 2    
     6    2    4 am   BACKBONE|DICT|INTERRES
     7    4    5 1    
     8    4  130 1    
     9    5    6 1    
    10    5   65 1    
    11    5  131 1    
    12    6    7 1    
    13    6  132 1    
    14    6  133 1    
    15    7    8 1    
    16    8    9 1    
    17    8  134 1    
    18    8  135 1    
    19    9   10 ar   
    20    9   14 ar   
    21   10   11 ar   
    22   10  136 1    
    23   11   12 ar   
    24   11  126 1    
    25   12   13 ar   
    26   12  137 1    
    27   13   14 ar   
    28   13   15 1    
    29   14  138 1    
    30   15   16 1    
    31   15  139 1    
    32   15  140 1    
    33   16   17 1    
    34   17   18 1    
    35   17  141 1    
    36   17  142 1    
    37   18   19 1    
    38   18   67 1    
    39   18  143 1    
    40   19   20 am   BACKBONE|DICT|INTERRES
    41   19  144 1    
    42   20   21 2    
    43   20   22 1    
    44   22   23 1    
    45   22   24 1    
    46   22  145 1    
    47   23  146 1    
    48   23  147 1    
    49   23  148 1    
    50   24   25 am   BACKBONE|DICT|INTERRES
    51   24  149 1    
    52   25   26 2    
    53   25   27 1    
    54   27   28 1    
    55   27   29 1    
    56   27  150 1    
    57   28  151 1    
    58   28  152 1    
    59   28  153 1    
    60   29   30 am   BACKBONE|DICT|INTERRES
    61   29  154 1    
    62   30   31 2    
    63   30   32 1    
    64   32   33 1    
    65   32   34 1    
    66   32  155 1    
    67   33  156 1    
    68   33  157 1    
    69   33  158 1    
    70   34   35 am   BACKBONE|DICT|INTERRES
    71   34  159 1    
    72   35   36 2    
    73   35   37 1    
    74   37   38 1    
    75   37   39 1    
    76   37  160 1    
    77   38  161 1    
    78   38  162 1    
    79   38  163 1    
    80   39   40 am   BACKBONE|DICT|INTERRES
    81   39  164 1    
    82   40   41 2    
    83   40   42 1    
    84   42   43 1    
    85   42   44 1    
    86   42  165 1    
    87   43  166 1    
    88   43  167 1    
    89   43  168 1    
    90   44   45 am   BACKBONE|DICT|INTERRES
    91   44  169 1    
    92   45   46 2    
    93   45   47 1    
    94   47   48 1    
    95   47   49 1    
    96   47  170 1    
    97   48  171 1    
    98   48  172 1    
    99   48  173 1    
   100   49   50 am   BACKBONE|DICT|INTERRES
   101   49  174 1    
   102   50   51 2    
   103   50   52 1    
   104   52   53 1    
   105   52   54 1    
   106   52  175 1    
   107   53  176 1    
   108   53  177 1    
   109   53  178 1    
   110   54   55 am   BACKBONE|DICT|INTERRES
   111   54  179 1    
   112   55   56 2    
   113   55   57 1    
   114   57   58 1    
   115   57   59 1    
   116   57  180 1    
   117   58  181 1    
   118   58  182 1    
   119   58  183 1    
   120   59   60 am   BACKBONE|DICT|INTERRES
   121   59  184 1    
   122   60   61 2    
   123   60   62 1    
   124   62   63 1    
   125   62   64 1    
   126   62  185 1    
   127   63  186 1    
   128   63  187 1    
   129   63  188 1    
   130   64   65 am   BACKBONE|DICT|INTERRES
   131   64  189 1    
   132   65   66 2    
   133   67   68 2    
   134   67   69 am   BACKBONE|DICT|INTERRES
   135   69   70 1    
   136   69  190 1    
   137   70   71 1    
   138   70   72 1    
   139   70  191 1    
   140   71  192 1    
   141   71  193 1    
   142   71  194 1    
   143   72   73 2    
   144   72   74 am   BACKBONE|DICT|INTERRES
   145   74   75 1    
   146   74  195 1    
   147   75   76 1    
   148   75   77 1    
   149   75  196 1    
   150   76  197 1    
   151   76  198 1    
   152   76  199 1    
   153   77   78 2    
   154   77   79 am   BACKBONE|DICT|INTERRES
   155   79   80 1    
   156   79  200 1    
   157   80   81 1    
   158   80   82 1    
   159   80  201 1    
   160   81  202 1    
   161   81  203 1    
   162   81  204 1    
   163   82   83 2    
   164   82   84 am   BACKBONE|DICT|INTERRES
   165   84   85 1    
   166   84  205 1    
   167   85   86 1    
   168   85   87 1    
   169   85  206 1    
   170   86  207 1    
   171   86  208 1    
   172   86  209 1    
   173   87   88 2    
   174   87   89 am   BACKBONE|DICT|INTERRES
   175   89   90 1    
   176   89  210 1    
   177   90   91 1    
   178   90   92 1    
   179   90  211 1    
   180   91  212 1    
   181   91  213 1    
   182   91  214 1    
   183   92   93 2    
   184   92   94 am   BACKBONE|DICT|INTERRES
   185   94   95 1    
   186   94  215 1    
   187   95   96 1    
   188   95   97 1    
   189   95  216 1    
   190   96  217 1    
   191   96  218 1    
   192   96  219 1    
   193   97   98 2    
   194   97   99 am   BACKBONE|DICT|INTERRES
   195   99  100 1    
   196   99  220 1    
   197  100  101 1    
   198  100  102 1    
   199  100  221 1    
   200  101  222 1    
   201  101  223 1    
   202  101  224 1    
   203  102  103 2    
   204  102  104 am   BACKBONE|DICT|INTERRES
   205  104  105 1    
   206  104  225 1    
   207  105  106 1    
   208  105  107 1    
   209  105  226 1    
   210  106  227 1    
   211  106  228 1    
   212  106  229 1    
   213  107  108 2    
   214  107  109 am   BACKBONE|DICT|INTERRES
   215  109  110 1    
   216  109  230 1    
   217  110  111 1    
   218  110  112 1    
   219  110  231 1    
   220  111  232 1    
   221  111  233 1    
   222  111  234 1    
   223  112  113 2    
   224  112  114 am   BACKBONE|DICT|INTERRES
   225  114  115 1    
   226  114  235 1    
   227  115  116 1    
   228  115  117 1    
   229  115  236 1    
   230  116  237 1    
   231  116  238 1    
   232  116  239 1    
   233  117  118 2    
   234  117  119 am   BACKBONE|DICT|INTERRES
   235  119  120 1    
   236  119  240 1    
   237  120  121 1    
   238  120  124 1    
   239  120  241 1    
   240  121  122 am   BACKBONE|DICT|INTERRES
   241  121  123 2    
   242  122  242 1    
   243  122  243 1    
   244  124  125 1    
   245  124  244 1    
   246  124  245 1    
   247  125  126 1    
   248  126  246 1    
   249  126  247 1    
@<TRIPOS>SUBSTRUCTURE
     1 UNK         1 GROUP             0       ****    0 ROOT    
