@<TRIPOS>MOLECULE
3R540
247   249    1
SMALL
USER_CHARGES


@<TRIPOS>ATOM
      1 CA         -3.0518  -14.2460  -49.6267 C.3       0 UNK        -0.1800 
      2 C          -1.5636  -13.9383  -49.7133 C.2       0 UNK         0.5000 
      3 O          -1.1469  -13.1441  -50.5561 O.2       0 UNK        -0.5000 
      4 N          -0.7657  -14.5605  -48.8378 N.am      1 UNK        -0.5000 
      5 CA          0.6692  -14.3137  -48.6895 C.3       1 UNK         0.1400 
      6 C6          1.3381  -15.4407  -47.8662 C.3       23 UNK        -0.0398 
      7 S7          3.1605  -15.3661  -47.7513 S.3       23 UNK        -0.2404 
      8 C8          3.7236  -15.4416  -49.4855 C.3       23 UNK        -0.0205 
      9 C9          3.0408  -16.5289  -50.3041 C.ar      23 UNK        -0.0193 
     10 C10         2.4025  -16.2020  -51.5020 C.ar      23 UNK        -0.1150 
     11 C11         1.7712  -17.1856  -52.2675 C.ar      23 UNK        -0.0193 
     12 C12         1.7707  -18.5113  -51.8162 C.ar      23 UNK        -0.1150 
     13 C13         2.4249  -18.8585  -50.6272 C.ar      23 UNK        -0.0193 
     14 C14         3.0663  -17.8610  -49.8849 C.ar      23 UNK        -0.1150 
     15 C15         2.5123  -20.3158  -50.1833 C.3       23 UNK        -0.0205 
     16 S16         2.0732  -20.5637  -48.4277 S.3       23 UNK        -0.2404 
     17 C17         0.2891  -20.9345  -48.4966 C.3       23 UNK        -0.0398 
     18 CA         -0.0504  -22.1918  -47.6574 C.3       11 UNK         0.1400 
     19 N           0.0688  -21.9513  -46.2151 N.am      11 UNK        -0.5000 
     20 C          -0.0324  -22.8977  -45.2702 C.2       10 UNK         0.5000 
     21 O          -0.1809  -24.0955  -45.5125 O.2       10 UNK        -0.5000 
     22 CA         -0.0306  -22.4212  -43.8068 C.3       10 UNK         0.1400 
     23 CB          1.3932  -22.0966  -43.3313 C.3       10 UNK        -0.1800 
     24 N          -0.9073  -21.2678  -43.5956 N.am      10 UNK        -0.5000 
     25 C          -2.2373  -21.2915  -43.7659 C.2       9 UNK         0.5000 
     26 O          -2.8669  -22.3050  -44.0664 O.2       9 UNK        -0.5000 
     27 CA         -2.9916  -19.9581  -43.6180 C.3       9 UNK         0.1400 
     28 CB         -3.2741  -19.6526  -42.1399 C.3       9 UNK        -0.1800 
     29 N          -2.2871  -18.8315  -44.2290 N.am      9 UNK        -0.5000 
     30 C          -2.0124  -18.7174  -45.5360 C.2       8 UNK         0.5000 
     31 O          -2.3530  -19.5410  -46.3836 O.2       8 UNK        -0.5000 
     32 CA         -1.1622  -17.5063  -45.9602 C.3       8 UNK         0.1400 
     33 CB         -2.0150  -16.2285  -46.0102 C.3       8 UNK        -0.1800 
     34 N          -0.0093  -17.3041  -45.0806 N.am      8 UNK        -0.5000 
     35 C           0.9696  -18.2045  -44.9005 C.2       7 UNK         0.5000 
     36 O           1.0267  -19.2799  -45.4941 O.2       7 UNK        -0.5000 
     37 CA          2.0167  -17.8832  -43.8217 C.3       7 UNK         0.1400 
     38 CB          3.1032  -16.9382  -44.3579 C.3       7 UNK        -0.1800 
     39 N           1.3953  -17.3115  -42.6269 N.am      7 UNK        -0.5000 
     40 C           0.6119  -18.0026  -41.7851 C.2       6 UNK         0.5000 
     41 O           0.3819  -19.2059  -41.8994 O.2       6 UNK        -0.5000 
     42 CA         -0.0633  -17.2069  -40.6526 C.3       6 UNK         0.1400 
     43 CB          0.8826  -17.0690  -39.4505 C.3       6 UNK        -0.1800 
     44 N          -0.4956  -15.8770  -41.0834 N.am      6 UNK        -0.5000 
     45 C          -1.4516  -15.6434  -41.9948 C.2       5 UNK         0.5000 
     46 O          -2.1250  -16.5301  -42.5162 O.2       5 UNK        -0.5000 
     47 CA         -1.6447  -14.1800  -42.4386 C.3       5 UNK         0.1400 
     48 CB         -2.6983  -13.4844  -41.5646 C.3       5 UNK        -0.1800 
     49 N          -0.3946  -13.4160  -42.3982 N.am      5 UNK        -0.5000 
     50 C           0.6606  -13.6604  -43.1852 C.2       4 UNK         0.5000 
     51 O           0.6644  -14.5030  -44.0872 O.2       4 UNK        -0.5000 
     52 CA          1.9512  -12.9144  -42.8301 C.3       4 UNK         0.1400 
     53 CB          2.6894  -13.6763  -41.7081 C.3       4 UNK        -0.1800 
     54 N           2.7891  -12.8074  -44.0196 N.am      4 UNK        -0.5000 
     55 C           3.9204  -12.0976  -44.1136 C.2       3 UNK         0.5000 
     56 O           4.3896  -11.4237  -43.1954 O.2       3 UNK        -0.5000 
     57 CA          4.6472  -12.1319  -45.4689 C.3       3 UNK         0.1400 
     58 CB          5.4509  -13.4333  -45.6187 C.3       3 UNK        -0.1800 
     59 N           3.7391  -11.9744  -46.6063 N.am      3 UNK        -0.5000 
     60 C           3.0866  -10.8389  -46.9004 C.2       2 UNK         0.5000 
     61 O           3.1692   -9.8117  -46.2257 O.2       2 UNK        -0.5000 
     62 CA          2.2150  -10.8260  -48.1718 C.3       2 UNK         0.1400 
     63 CB          2.9436  -10.0972  -49.3118 C.3       2 UNK        -0.1800 
     64 N           1.8362  -12.1604  -48.6368 N.am      2 UNK        -0.5000 
     65 C           0.9057  -12.9275  -48.0564 C.2       1 UNK         0.5000 
     66 O           0.2646  -12.5918  -47.0582 O.2       1 UNK        -0.5000 
     67 C          -1.4365  -22.7587  -48.0244 C.2       11 UNK         0.5000 
     68 O          -1.5075  -23.7296  -48.7790 O.2       11 UNK        -0.5000 
     69 N          -2.5037  -22.1857  -47.4470 N.am      12 UNK        -0.5000 
     70 CA         -3.8809  -22.6445  -47.6225 C.3       12 UNK         0.1400 
     71 CB         -4.8619  -21.6785  -46.9387 C.3       12 UNK        -0.1800 
     72 C          -4.1034  -24.0825  -47.1289 C.2       12 UNK         0.5000 
     73 O          -4.6807  -24.8893  -47.8574 O.2       12 UNK        -0.5000 
     74 N          -3.6151  -24.3809  -45.9179 N.am      13 UNK        -0.5000 
     75 CA         -3.6893  -25.7002  -45.2918 C.3       13 UNK         0.1400 
     76 CB         -3.2086  -25.6013  -43.8361 C.3       13 UNK        -0.1800 
     77 C          -2.8948  -26.7758  -46.0535 C.2       13 UNK         0.5000 
     78 O          -3.3671  -27.9076  -46.1664 O.2       13 UNK        -0.5000 
     79 N          -1.7141  -26.4045  -46.5669 N.am      14 UNK        -0.5000 
     80 CA         -0.8440  -27.2792  -47.3497 C.3       14 UNK         0.1400 
     81 CB          0.5416  -26.6302  -47.4932 C.3       14 UNK        -0.1800 
     82 C          -1.4290  -27.6215  -48.7311 C.2       14 UNK         0.5000 
     83 O          -1.4149  -28.7896  -49.1223 O.2       14 UNK        -0.5000 
     84 N          -1.9156  -26.6012  -49.4492 N.am      15 UNK        -0.5000 
     85 CA         -2.4084  -26.7383  -50.8199 C.3       15 UNK         0.1400 
     86 CB         -2.2824  -25.3833  -51.5232 C.3       15 UNK        -0.1800 
     87 C          -3.8596  -27.2362  -50.9160 C.2       15 UNK         0.5000 
     88 O          -4.2160  -27.8300  -51.9344 O.2       15 UNK        -0.5000 
     89 N          -4.6732  -26.9504  -49.8883 N.am      16 UNK        -0.5000 
     90 CA         -6.1312  -27.1232  -49.8476 C.3       16 UNK         0.1400 
     91 CB         -6.5282  -28.6122  -49.9320 C.3       16 UNK        -0.1800 
     92 C          -6.8547  -26.2315  -50.8839 C.2       16 UNK         0.5000 
     93 O          -7.8685  -26.6336  -51.4577 O.2       16 UNK        -0.5000 
     94 N          -6.3114  -25.0283  -51.0982 N.am      17 UNK        -0.5000 
     95 CA         -6.8084  -23.9868  -51.9899 C.3       17 UNK         0.1400 
     96 CB         -6.2140  -24.1787  -53.3951 C.3       17 UNK        -0.1800 
     97 C          -6.3786  -22.6408  -51.3959 C.2       17 UNK         0.5000 
     98 O          -5.3183  -22.5877  -50.7709 O.2       17 UNK        -0.5000 
     99 N          -7.1914  -21.5947  -51.6007 N.am      18 UNK        -0.5000 
    100 CA        -7.0818  -20.2487  -51.0189 C.3       18 UNK         0.1400 
    101 CB        -8.1165  -19.3350  -51.6966 C.3       18 UNK        -0.1800 
    102 C         -5.6688  -19.6340  -51.0927 C.2       18 UNK         0.5000 
    103 O         -5.2793  -19.1149  -52.1399 O.2       18 UNK        -0.5000 
    104 N         -4.9161  -19.7665  -49.9905 N.am      19 UNK        -0.5000 
    105 CA        -3.5154  -19.3636  -49.8093 C.3       19 UNK         0.1400 
    106 CB        -3.4060  -17.8275  -49.7385 C.3       19 UNK        -0.1800 
    107 C         -2.5424  -19.9935  -50.8307 C.2       19 UNK         0.5000 
    108 O         -1.5289  -19.3808  -51.1570 O.2       19 UNK        -0.5000 
    109 N         -2.8691  -21.2022  -51.3138 N.am      20 UNK        -0.5000 
    110 CA        -2.2198  -21.9151  -52.4199 C.3       20 UNK         0.1400 
    111 CB        -0.7443  -22.2449  -52.1093 C.3       20 UNK        -0.1800 
    112 C         -2.4131  -21.1982  -53.7709 C.2       20 UNK         0.5000 
    113 O         -1.4724  -21.0966  -54.5600 O.2       20 UNK        -0.5000 
    114 N         -3.6471  -20.7237  -54.0001 N.am      21 UNK        -0.5000 
    115 CA        -4.1060  -19.9337  -55.1461 C.3       21 UNK         0.1400 
    116 CB        -4.0201  -20.7438  -56.4569 C.3       21 UNK        -0.1800 
    117 C         -3.3816  -18.5755  -55.2059 C.2       21 UNK         0.5000 
    118 O         -2.7406  -18.2499  -56.2074 O.2       21 UNK        -0.5000 
    119 N         -3.4827  -17.8269  -54.1034 N.am      22 UNK        -0.5000 
    120 CA        -2.8256  -16.5324  -53.8880 C.3       22 UNK         0.1400 
    121 C         -3.8217  -15.4512  -53.3852 C.2       22 UNK         0.5000 
    122 N         -3.3763  -14.2103  -53.2478 N.am      22 UNK        -0.7600 
    123 O         -4.9932  -15.7130  -53.1215 O.2       22 UNK        -0.5000 
    124 C124       -1.5870  -16.6893  -52.9626 C.3       23 UNK        -0.0398 
    125 S125       -0.2046  -15.6060  -53.4446 S.3       23 UNK        -0.2404 
    126 C126        1.1542  -16.8108  -53.6100 C.3       23 UNK        -0.0205 
    127 H127       -3.3056  -14.7662  -48.7033 H         1 UNK         0.0600 
    128 H128       -3.3563  -14.8715  -50.4640 H         1 UNK         0.0600 
    129 H129       -3.6300  -13.3228  -49.6626 H         1 UNK         0.0600 
    130 H130       -1.1780  -15.1672  -48.1469 H         1 UNK         0.3000 
    131 H131        1.0983  -14.3185  -49.6927 H         1 UNK         0.0600 
    132 H132        0.9544  -15.4327  -46.8457 H         1 UNK         0.0800 
    133 H133        1.0679  -16.4144  -48.2774 H         1 UNK         0.0800 
    134 H134        3.5802  -14.4632  -49.9451 H         1 UNK         0.0800 
    135 H135        4.7992  -15.6225  -49.4932 H         1 UNK         0.0800 
    136 H136        2.4026  -15.1790  -51.8517 H         1 UNK         0.1150 
    137 H137        1.2876  -19.2769  -52.4069 H         1 UNK         0.1150 
    138 H138        3.5849  -18.1203  -48.9724 H         1 UNK         0.1150 
    139 H139        1.9051  -20.9612  -50.8184 H         1 UNK         0.0800 
    140 H140        3.5427  -20.6445  -50.3228 H         1 UNK         0.0800 
    141 H141        0.0021  -21.0745  -49.5382 H         1 UNK         0.0800 
    142 H142       -0.2668  -20.0647  -48.1438 H         1 UNK         0.0800 
    143 H143        0.6721  -22.9704  -47.9120 H         1 UNK         0.0600 
    144 H144        0.2421  -20.9902  -45.9312 H         1 UNK         0.3000 
    145 H145       -0.4100  -23.2407  -43.1928 H         1 UNK         0.0600 
    146 H146        1.4038  -21.8275  -42.2750 H         1 UNK         0.0600 
    147 H147        2.0504  -22.9582  -43.4543 H         1 UNK         0.0600 
    148 H148        1.8295  -21.2697  -43.8911 H         1 UNK         0.0600 
    149 H149       -0.4644  -20.4060  -43.2947 H         1 UNK         0.3000 
    150 H150       -3.9502  -20.0623  -44.1298 H         1 UNK         0.0600 
    151 H151       -3.8240  -20.4692  -41.6704 H         1 UNK         0.0600 
    152 H152       -3.8763  -18.7503  -42.0323 H         1 UNK         0.0600 
    153 H153       -2.3531  -19.5089  -41.5749 H         1 UNK         0.0600 
    154 H154       -2.0174  -18.0747  -43.6060 H         1 UNK         0.3000 
    155 H155       -0.7782  -17.7018  -46.9636 H         1 UNK         0.0600 
    156 H156       -2.5423  -16.0565  -45.0726 H         1 UNK         0.0600 
    157 H157       -1.4099  -15.3444  -46.2076 H         1 UNK         0.0600 
    158 H158       -2.7705  -16.3003  -46.7930 H         1 UNK         0.0600 
    159 H159        0.0362  -16.4301  -44.5686 H         1 UNK         0.3000 
    160 H160        2.5004  -18.8202  -43.5375 H         1 UNK         0.0600 
    161 H161        2.6948  -15.9799  -44.6754 H         1 UNK         0.0600 
    162 H162        3.6047  -17.3771  -45.2215 H         1 UNK         0.0600 
    163 H163        3.8659  -16.7437  -43.6040 H         1 UNK         0.0600 
    164 H164        1.4949  -16.3170  -42.4950 H         1 UNK         0.3000 
    165 H165       -0.9462  -17.7642  -40.3325 H         1 UNK         0.0600 
    166 H166        0.3893  -16.5706  -38.6158 H         1 UNK         0.0600 
    167 H167        1.2079  -18.0482  -39.0965 H         1 UNK         0.0600 
    168 H168        1.7767  -16.4973  -39.7027 H         1 UNK         0.0600 
    169 H169       -0.0050  -15.0888  -40.6894 H         1 UNK         0.3000 
    170 H170       -2.0049  -14.1889  -43.4694 H         1 UNK         0.0600 
    171 H171       -3.6465  -14.0230  -41.5949 H         1 UNK         0.0600 
    172 H172       -2.3854  -13.4287  -40.5213 H         1 UNK         0.0600 
    173 H173       -2.8915  -12.4695  -41.9128 H         1 UNK         0.0600 
    174 H174       -0.3210  -12.7107  -41.6788 H         1 UNK         0.3000 
    175 H175        1.6943  -11.9091  -42.4903 H         1 UNK         0.0600 
    176 H176        3.0293  -14.6562  -42.0451 H         1 UNK         0.0600 
    177 H177        3.5617  -13.1282  -41.3537 H         1 UNK         0.0600 
    178 H178        2.0452  -13.8306  -40.8418 H         1 UNK         0.0600 
    179 H179        2.4411  -13.3147  -44.8236 H         1 UNK         0.3000 
    180 H180        5.3539  -11.2994  -45.4898 H         1 UNK         0.0600 
    181 H181        4.8143  -14.3149  -45.5421 H         1 UNK         0.0600 
    182 H182        6.2071  -13.5124  -44.8367 H         1 UNK         0.0600 
    183 H183        5.9690  -13.4732  -46.5770 H         1 UNK         0.0600 
    184 H184        3.6139  -12.7764  -47.2065 H         1 UNK         0.3000 
    185 H185        1.3049  -10.2687  -47.9391 H         1 UNK         0.0600 
    186 H186        3.2149   -9.0825  -49.0173 H         1 UNK         0.0600 
    187 H187        3.8618  -10.6122  -49.5974 H         1 UNK         0.0600 
    188 H188        2.3123  -10.0181  -50.1971 H         1 UNK         0.0600 
    189 H189        2.3090  -12.4947  -49.4634 H         1 UNK         0.3000 
    190 H190       -2.3671  -21.3692  -46.8563 H         1 UNK         0.3000 
    191 H191       -4.0749  -22.6311  -48.6913 H         1 UNK         0.0600 
    192 H192       -4.7549  -21.6947  -45.8547 H         1 UNK         0.0600 
    193 H193       -5.8931  -21.9508  -47.1670 H         1 UNK         0.0600 
    194 H194       -4.7163  -20.6504  -47.2647 H         1 UNK         0.0600 
    195 H195       -3.1852  -23.6414  -45.3671 H         1 UNK         0.3000 
    196 H196       -4.7375  -26.0062  -45.2843 H         1 UNK         0.0600 
    197 H197       -3.2625  -26.5703  -43.3384 H         1 UNK         0.0600 
    198 H198       -3.8247  -24.9069  -43.2647 H         1 UNK         0.0600 
    199 H199       -2.1754  -25.2567  -43.7772 H         1 UNK         0.0600 
    200 H200       -1.3709  -25.4669  -46.3815 H         1 UNK         0.3000 
    201 H201       -0.7211  -28.2144  -46.7993 H         1 UNK         0.0600 
    202 H202        1.0056  -26.4753  -46.5190 H         1 UNK         0.0600 
    203 H203        0.4841  -25.6621  -47.9924 H         1 UNK         0.0600 
    204 H204        1.2124  -27.2626  -48.0760 H         1 UNK         0.0600 
    205 H205       -1.8668  -25.6584  -49.0723 H         1 UNK         0.3000 
    206 H206       -1.7782  -27.4523  -51.3547 H         1 UNK         0.0600 
    207 H207       -1.2435  -25.0565  -51.5500 H         1 UNK         0.0600 
    208 H208       -2.6353  -25.4371  -52.5540 H         1 UNK         0.0600 
    209 H209       -2.8670  -24.6182  -51.0105 H         1 UNK         0.0600 
    210 H210       -4.2932  -26.4179  -49.1119 H         1 UNK         0.3000 
    211 H211       -6.4483  -26.7607  -48.8690 H         1 UNK         0.0600 
    212 H212       -6.3274  -29.0346  -50.9166 H         1 UNK         0.0600 
    213 H213       -7.5929  -28.7418  -49.7350 H         1 UNK         0.0600 
    214 H214       -5.9879  -29.2057  -49.1945 H         1 UNK         0.0600 
    215 H215       -5.5151  -24.7436  -50.5407 H         1 UNK         0.3000 
    216 H216       -7.8987  -24.0265  -52.0353 H         1 UNK         0.0600 
    217 H217       -5.1237  -24.1429  -53.3781 H         1 UNK         0.0600 
    218 H218       -6.5590  -23.4006  -54.0770 H         1 UNK         0.0600 
    219 H219       -6.5090  -25.1385  -53.8196 H         1 UNK         0.0600 
    220 H220       -8.0168  -21.7480  -52.1617 H         1 UNK         0.3000 
    221 H221       -7.3575  -20.3310  -49.9658 H         1 UNK         0.0600 
    222 H222       -7.9533  -19.2713  -52.7734 H         1 UNK         0.0600 
    223 H223       -9.1319  -19.6957  -51.5319 H         1 UNK         0.0600 
    224 H224       -8.0646  -18.3211  -51.2974 H         1 UNK         0.0600 
    225 H225       -5.3239  -20.2582  -49.2092 H         1 UNK         0.3000 
    226 H226       -3.2036  -19.7543  -48.8425 H         1 UNK         0.0600 
    227 H227       -4.0397  -17.4268  -48.9475 H         1 UNK         0.0600 
    228 H228       -2.3847  -17.5107  -49.5234 H         1 UNK         0.0600 
    229 H229       -3.7089  -17.3618  -50.6762 H         1 UNK         0.0600 
    230 H230       -3.7272  -21.6319  -50.9745 H         1 UNK         0.3000 
    231 H231       -2.7562  -22.8572  -52.5194 H         1 UNK         0.0600 
    232 H232       -0.1207  -21.3518  -52.1018 H         1 UNK         0.0600 
    233 H233       -0.3321  -22.9189  -52.8608 H         1 UNK         0.0600 
    234 H234       -0.6420  -22.7377  -51.1441 H         1 UNK         0.0600 
    235 H235       -4.3102  -20.7734  -53.2383 H         1 UNK         0.3000 
    236 H236       -5.1599  -19.7150  -54.9672 H         1 UNK         0.0600 
    237 H237       -4.4646  -20.1890  -57.2839 H         1 UNK         0.0600 
    238 H238       -2.9902  -20.9692  -56.7343 H         1 UNK         0.0600 
    239 H239       -4.5588  -21.6875  -56.3719 H         1 UNK         0.0600 
    240 H240       -4.0865  -18.1450  -53.3488 H         1 UNK         0.3000 
    241 H241       -2.4920  -16.1662  -54.8606 H         1 UNK         0.0600 
    242 H242       -4.0089  -13.4929  -52.9309 H         1 UNK         0.3800 
    243 H243       -2.4112  -13.9780  -53.4290 H         1 UNK         0.3800 
    244 H244       -1.8303  -16.5145  -51.9141 H         1 UNK         0.0800 
    245 H245       -1.2253  -17.7158  -53.0091 H         1 UNK         0.0800 
    246 H246        1.9319  -16.3683  -54.2338 H         1 UNK         0.0800 
    247 H247        0.8058  -17.6947  -54.1468 H         1 UNK         0.0800 
@<TRIPOS>BOND
     1    1    2 1    
     2    1  127 1    
     3    1  128 1    
     4    1  129 1    
     5    2    3 2    
     6    2    4 am   BACKBONE|DICT|INTERRES
     7    4    5 1    
     8    4  130 1    
     9    5    6 1    
    10    5   65 1    
    11    5  131 1    
    12    6    7 1    
    13    6  132 1    
    14    6  133 1    
    15    7    8 1    
    16    8    9 1    
    17    8  134 1    
    18    8  135 1    
    19    9   10 ar   
    20    9   14 ar   
    21   10   11 ar   
    22   10  136 1    
    23   11   12 ar   
    24   11  126 1    
    25   12   13 ar   
    26   12  137 1    
    27   13   14 ar   
    28   13   15 1    
    29   14  138 1    
    30   15   16 1    
    31   15  139 1    
    32   15  140 1    
    33   16   17 1    
    34   17   18 1    
    35   17  141 1    
    36   17  142 1    
    37   18   19 1    
    38   18   67 1    
    39   18  143 1    
    40   19   20 am   BACKBONE|DICT|INTERRES
    41   19  144 1    
    42   20   21 2    
    43   20   22 1    
    44   22   23 1    
    45   22   24 1    
    46   22  145 1    
    47   23  146 1    
    48   23  147 1    
    49   23  148 1    
    50   24   25 am   BACKBONE|DICT|INTERRES
    51   24  149 1    
    52   25   26 2    
    53   25   27 1    
    54   27   28 1    
    55   27   29 1    
    56   27  150 1    
    57   28  151 1    
    58   28  152 1    
    59   28  153 1    
    60   29   30 am   BACKBONE|DICT|INTERRES
    61   29  154 1    
    62   30   31 2    
    63   30   32 1    
    64   32   33 1    
    65   32   34 1    
    66   32  155 1    
    67   33  156 1    
    68   33  157 1    
    69   33  158 1    
    70   34   35 am   BACKBONE|DICT|INTERRES
    71   34  159 1    
    72   35   36 2    
    73   35   37 1    
    74   37   38 1    
    75   37   39 1    
    76   37  160 1    
    77   38  161 1    
    78   38  162 1    
    79   38  163 1    
    80   39   40 am   BACKBONE|DICT|INTERRES
    81   39  164 1    
    82   40   41 2    
    83   40   42 1    
    84   42   43 1    
    85   42   44 1    
    86   42  165 1    
    87   43  166 1    
    88   43  167 1    
    89   43  168 1    
    90   44   45 am   BACKBONE|DICT|INTERRES
    91   44  169 1    
    92   45   46 2    
    93   45   47 1    
    94   47   48 1    
    95   47   49 1    
    96   47  170 1    
    97   48  171 1    
    98   48  172 1    
    99   48  173 1    
   100   49   50 am   BACKBONE|DICT|INTERRES
   101   49  174 1    
   102   50   51 2    
   103   50   52 1    
   104   52   53 1    
   105   52   54 1    
   106   52  175 1    
   107   53  176 1    
   108   53  177 1    
   109   53  178 1    
   110   54   55 am   BACKBONE|DICT|INTERRES
   111   54  179 1    
   112   55   56 2    
   113   55   57 1    
   114   57   58 1    
   115   57   59 1    
   116   57  180 1    
   117   58  181 1    
   118   58  182 1    
   119   58  183 1    
   120   59   60 am   BACKBONE|DICT|INTERRES
   121   59  184 1    
   122   60   61 2    
   123   60   62 1    
   124   62   63 1    
   125   62   64 1    
   126   62  185 1    
   127   63  186 1    
   128   63  187 1    
   129   63  188 1    
   130   64   65 am   BACKBONE|DICT|INTERRES
   131   64  189 1    
   132   65   66 2    
   133   67   68 2    
   134   67   69 am   BACKBONE|DICT|INTERRES
   135   69   70 1    
   136   69  190 1    
   137   70   71 1    
   138   70   72 1    
   139   70  191 1    
   140   71  192 1    
   141   71  193 1    
   142   71  194 1    
   143   72   73 2    
   144   72   74 am   BACKBONE|DICT|INTERRES
   145   74   75 1    
   146   74  195 1    
   147   75   76 1    
   148   75   77 1    
   149   75  196 1    
   150   76  197 1    
   151   76  198 1    
   152   76  199 1    
   153   77   78 2    
   154   77   79 am   BACKBONE|DICT|INTERRES
   155   79   80 1    
   156   79  200 1    
   157   80   81 1    
   158   80   82 1    
   159   80  201 1    
   160   81  202 1    
   161   81  203 1    
   162   81  204 1    
   163   82   83 2    
   164   82   84 am   BACKBONE|DICT|INTERRES
   165   84   85 1    
   166   84  205 1    
   167   85   86 1    
   168   85   87 1    
   169   85  206 1    
   170   86  207 1    
   171   86  208 1    
   172   86  209 1    
   173   87   88 2    
   174   87   89 am   BACKBONE|DICT|INTERRES
   175   89   90 1    
   176   89  210 1    
   177   90   91 1    
   178   90   92 1    
   179   90  211 1    
   180   91  212 1    
   181   91  213 1    
   182   91  214 1    
   183   92   93 2    
   184   92   94 am   BACKBONE|DICT|INTERRES
   185   94   95 1    
   186   94  215 1    
   187   95   96 1    
   188   95   97 1    
   189   95  216 1    
   190   96  217 1    
   191   96  218 1    
   192   96  219 1    
   193   97   98 2    
   194   97   99 am   BACKBONE|DICT|INTERRES
   195   99  100 1    
   196   99  220 1    
   197  100  101 1    
   198  100  102 1    
   199  100  221 1    
   200  101  222 1    
   201  101  223 1    
   202  101  224 1    
   203  102  103 2    
   204  102  104 am   BACKBONE|DICT|INTERRES
   205  104  105 1    
   206  104  225 1    
   207  105  106 1    
   208  105  107 1    
   209  105  226 1    
   210  106  227 1    
   211  106  228 1    
   212  106  229 1    
   213  107  108 2    
   214  107  109 am   BACKBONE|DICT|INTERRES
   215  109  110 1    
   216  109  230 1    
   217  110  111 1    
   218  110  112 1    
   219  110  231 1    
   220  111  232 1    
   221  111  233 1    
   222  111  234 1    
   223  112  113 2    
   224  112  114 am   BACKBONE|DICT|INTERRES
   225  114  115 1    
   226  114  235 1    
   227  115  116 1    
   228  115  117 1    
   229  115  236 1    
   230  116  237 1    
   231  116  238 1    
   232  116  239 1    
   233  117  118 2    
   234  117  119 am   BACKBONE|DICT|INTERRES
   235  119  120 1    
   236  119  240 1    
   237  120  121 1    
   238  120  124 1    
   239  120  241 1    
   240  121  122 am   BACKBONE|DICT|INTERRES
   241  121  123 2    
   242  122  242 1    
   243  122  243 1    
   244  124  125 1    
   245  124  244 1    
   246  124  245 1    
   247  125  126 1    
   248  126  246 1    
   249  126  247 1    
@<TRIPOS>SUBSTRUCTURE
     1 UNK         1 GROUP             0       ****    0 ROOT    
