@<TRIPOS>MOLECULE
3R540
247   249    1
SMALL
USER_CHARGES


@<TRIPOS>ATOM
      1 CA         -2.2663  -16.5810  -48.8316 C.3       0 UNK        -0.1800 
      2 C          -0.9956  -17.3772  -49.1264 C.2       0 UNK         0.5000 
      3 O          -1.0331  -18.6000  -49.0426 O.2       0 UNK        -0.5000 
      4 N           0.1284  -16.7436  -49.4948 N.am      1 UNK        -0.5000 
      5 CA          0.3353  -15.2940  -49.5793 C.3       1 UNK         0.1400 
      6 C6          1.5848  -14.9243  -50.4214 C.3       23 UNK        -0.0398 
      7 S7          3.1877  -15.4779  -49.7323 S.3       23 UNK        -0.2404 
      8 C8          3.8288  -16.5542  -51.0522 C.3       23 UNK        -0.0205 
      9 C9          3.0878  -17.8795  -51.1035 C.ar      23 UNK        -0.0193 
     10 C10         2.1115  -18.1095  -52.0764 C.ar      23 UNK        -0.1150 
     11 C11         1.4150  -19.3207  -52.1076 C.ar      23 UNK        -0.0193 
     12 C12         1.7136  -20.3099  -51.1664 C.ar      23 UNK        -0.1150 
     13 C13         2.6982  -20.0969  -50.1980 C.ar      23 UNK        -0.0193 
     14 C14         3.3830  -18.8794  -50.1735 C.ar      23 UNK        -0.1150 
     15 C15         3.0321  -21.1816  -49.1839 C.3       23 UNK        -0.0205 
     16 S16         2.5088  -20.7276  -47.5011 S.3       23 UNK        -0.2404 
     17 C17         0.6921  -20.8252  -47.6403 C.3       23 UNK        -0.0398 
     18 CA          0.1235  -22.0426  -46.8846 C.3       11 UNK         0.1400 
     19 N           0.2662  -21.9025  -45.4314 N.am      11 UNK        -0.5000 
     20 C           0.0726  -22.8866  -44.5448 C.2       10 UNK         0.5000 
     21 O          -0.2876  -24.0210  -44.8566 O.2       10 UNK        -0.5000 
     22 CA          0.2676  -22.5362  -43.0610 C.3       10 UNK         0.1400 
     23 CB          1.7554  -22.3504  -42.7268 C.3       10 UNK        -0.1800 
     24 N          -0.4862  -21.3439  -42.6768 N.am      10 UNK        -0.5000 
     25 C          -1.8249  -21.2780  -42.6440 C.2       9 UNK         0.5000 
     26 O          -2.5618  -22.2369  -42.8760 O.2       9 UNK        -0.5000 
     27 CA         -2.4508  -19.9081  -42.3222 C.3       9 UNK         0.1400 
     28 CB         -2.5036  -19.6801  -40.8044 C.3       9 UNK        -0.1800 
     29 N          -1.7578  -18.7898  -42.9651 N.am      9 UNK        -0.5000 
     30 C          -1.6651  -18.6167  -44.2924 C.2       8 UNK         0.5000 
     31 O          -2.1728  -19.3735  -45.1170 O.2       8 UNK        -0.5000 
     32 CA         -0.8194  -17.4301  -44.7852 C.3       8 UNK         0.1400 
     33 CB         -1.5977  -16.1121  -44.6585 C.3       8 UNK        -0.1800 
     34 N           0.4525  -17.3206  -44.0743 N.am      8 UNK        -0.5000 
     35 C           1.4004  -18.2682  -44.0615 C.2       7 UNK         0.5000 
     36 O           1.3135  -19.3372  -44.6633 O.2       7 UNK        -0.5000 
     37 CA          2.6192  -18.0064  -43.1640 C.3       7 UNK         0.1400 
     38 CB          3.5766  -16.9928  -43.8106 C.3       7 UNK        -0.1800 
     39 N           2.2196  -17.5471  -41.8331 N.am      7 UNK        -0.5000 
     40 C           1.5571  -18.2998  -40.9418 C.2       6 UNK         0.5000 
     41 O           1.2431  -19.4737  -41.1347 O.2       6 UNK        -0.5000 
     42 CA          1.1465  -17.6150  -39.6262 C.3       6 UNK         0.1400 
     43 CB          2.3022  -17.6473  -38.6151 C.3       6 UNK        -0.1800 
     44 N           0.7132  -16.2318  -39.8238 N.am      6 UNK        -0.5000 
     45 C          -0.4021  -15.8719  -40.4749 C.2       5 UNK         0.5000 
     46 O          -1.2013  -16.6705  -40.9629 O.2       5 UNK        -0.5000 
     47 CA         -0.6235  -14.3591  -40.6595 C.3       5 UNK         0.1400 
     48 CB         -1.2295  -13.7370  -39.3925 C.3       5 UNK        -0.1800 
     49 N           0.6080  -13.6467  -41.0176 N.am      5 UNK        -0.5000 
     50 C           1.2960  -13.8737  -42.1428 C.2       4 UNK         0.5000 
     51 O           0.9599  -14.7079  -42.9892 O.2       4 UNK        -0.5000 
     52 CA          2.5860  -13.0706  -42.3523 C.3       4 UNK         0.1400 
     53 CB          3.7522  -13.6828  -41.5546 C.3       4 UNK        -0.1800 
     54 N           2.8632  -13.1095  -43.7798 N.am      4 UNK        -0.5000 
     55 C           3.7121  -12.3521  -44.4786 C.2       3 UNK         0.5000 
     56 O           4.4766  -11.5255  -43.9800 O.2       3 UNK        -0.5000 
     57 CA          3.6622  -12.5377  -46.0080 C.3       3 UNK         0.1400 
     58 CB          4.6191  -13.6557  -46.4491 C.3       3 UNK        -0.1800 
     59 N           2.3098  -12.8506  -46.4807 N.am      3 UNK        -0.5000 
     60 C           1.2831  -11.9899  -46.4876 C.2       2 UNK         0.5000 
     61 O           1.3992  -10.8007  -46.1862 O.2       2 UNK        -0.5000 
     62 CA         -0.0962  -12.5550  -46.8963 C.3       2 UNK         0.1400 
     63 CB         -1.1580  -11.4565  -47.0850 C.3       2 UNK        -0.1800 
     64 N          -0.0410  -13.3656  -48.1154 N.am      2 UNK        -0.5000 
     65 C           0.3694  -14.6375  -48.1823 C.2       1 UNK         0.5000 
     66 O           0.7810  -15.2674  -47.2055 O.2       1 UNK        -0.5000 
     67 C          -1.3247  -22.3494  -47.3203 C.2       11 UNK         0.5000 
     68 O          -1.5149  -23.0727  -48.3000 O.2       11 UNK        -0.5000 
     69 N          -2.3220  -21.8733  -46.5615 N.am      12 UNK        -0.5000 
     70 CA         -3.7338  -22.2126  -46.7490 C.3       12 UNK         0.1400 
     71 CB         -4.6103  -21.3415  -45.8378 C.3       12 UNK        -0.1800 
     72 C          -4.0497  -23.7074  -46.5446 C.2       12 UNK         0.5000 
     73 O          -5.0326  -24.1893  -47.1067 O.2       12 UNK        -0.5000 
     74 N          -3.2113  -24.4151  -45.7764 N.am      13 UNK        -0.5000 
     75 CA         -3.2699  -25.8633  -45.6081 C.3       13 UNK         0.1400 
     76 CB         -2.9721  -26.2198  -44.1425 C.3       13 UNK        -0.1800 
     77 C          -2.2823  -26.5594  -46.5592 C.2       13 UNK         0.5000 
     78 O          -2.6863  -27.4487  -47.3080 O.2       13 UNK        -0.5000 
     79 N          -1.0081  -26.1450  -46.5147 N.am      14 UNK        -0.5000 
     80 CA          0.1151  -26.8020  -47.1874 C.3       14 UNK         0.1400 
     81 CB          1.4335  -26.2288  -46.6448 C.3       14 UNK        -0.1800 
     82 C           0.0814  -26.7077  -48.7226 C.2       14 UNK         0.5000 
     83 O           0.4470  -27.6747  -49.3919 O.2       14 UNK        -0.5000 
     84 N          -0.3557  -25.5578  -49.2492 N.am      15 UNK        -0.5000 
     85 CA         -0.4891  -25.2897  -50.6833 C.3       15 UNK         0.1400 
     86 CB          0.2926  -24.0073  -51.0201 C.3       15 UNK        -0.1800 
     87 C          -1.9665  -25.1592  -51.0974 C.2       15 UNK         0.5000 
     88 O          -2.2415  -24.7922  -52.2405 O.2       15 UNK        -0.5000 
     89 N          -2.8930  -25.4154  -50.1590 N.am      16 UNK        -0.5000 
     90 CA         -4.3526  -25.3086  -50.2880 C.3       16 UNK         0.1400 
     91 CB         -4.8823  -26.3949  -51.2470 C.3       16 UNK        -0.1800 
     92 C          -4.8440  -23.8934  -50.6754 C.2       16 UNK         0.5000 
     93 O          -5.9306  -23.7616  -51.2399 O.2       16 UNK        -0.5000 
     94 N          -4.0159  -22.8699  -50.4041 N.am      17 UNK        -0.5000 
     95 CA         -4.1511  -21.4731  -50.8404 C.3       17 UNK         0.1400 
     96 CB         -5.3976  -20.8125  -50.2110 C.3       17 UNK        -0.1800 
     97 C          -4.1230  -21.3011  -52.3783 C.2       17 UNK         0.5000 
     98 O          -4.6279  -20.2955  -52.8796 O.2       17 UNK        -0.5000 
     99 N          -3.5479  -22.2794  -53.0982 N.am      18 UNK        -0.5000 
    100 CA        -3.4401  -22.4247  -54.5560 C.3       18 UNK         0.1400 
    101 CB        -2.6055  -21.2907  -55.1814 C.3       18 UNK        -0.1800 
    102 C         -4.7902  -22.5921  -55.2820 C.2       18 UNK         0.5000 
    103 O         -4.9758  -23.5721  -56.0047 O.2       18 UNK        -0.5000 
    104 N         -5.6996  -21.6381  -55.0783 N.am      19 UNK        -0.5000 
    105 CA        -7.0463  -21.5691  -55.6282 C.3       19 UNK         0.1400 
    106 CB        -6.9990  -21.1773  -57.1224 C.3       19 UNK        -0.1800 
    107 C         -7.8429  -20.5997  -54.7387 C.2       19 UNK         0.5000 
    108 O         -7.8751  -20.7880  -53.5209 O.2       19 UNK        -0.5000 
    109 N         -8.4336  -19.5528  -55.3281 N.am      20 UNK        -0.5000 
    110 CA        -9.1125  -18.4566  -54.6322 C.3       20 UNK         0.1400 
    111 CB       -10.1299  -17.8178  -55.5953 C.3       20 UNK        -0.1800 
    112 C         -8.0958  -17.4376  -54.0687 C.2       20 UNK         0.5000 
    113 O         -8.1270  -16.2632  -54.4418 O.2       20 UNK        -0.5000 
    114 N         -7.2059  -17.9324  -53.1965 N.am      21 UNK        -0.5000 
    115 CA        -6.0293  -17.2879  -52.6035 C.3       21 UNK         0.1400 
    116 CB        -6.4002  -15.9871  -51.8624 C.3       21 UNK        -0.1800 
    117 C         -4.8808  -17.0651  -53.6097 C.2       21 UNK         0.5000 
    118 O         -5.0896  -17.0410  -54.8250 O.2       21 UNK        -0.5000 
    119 N         -3.6693  -16.9066  -53.0654 N.am      22 UNK        -0.5000 
    120 CA        -2.4247  -16.6986  -53.8263 C.3       22 UNK         0.1400 
    121 C         -2.2176  -15.2416  -54.3377 C.2       22 UNK         0.5000 
    122 N         -3.0438  -14.2739  -53.9590 N.am      22 UNK        -0.7600 
    123 O         -1.2893  -14.9842  -55.0989 O.2       22 UNK        -0.5000 
    124 C124       -1.1858  -17.1817  -53.0297 C.3       23 UNK        -0.0398 
    125 S125       -1.2786  -18.9562  -52.6077 S.3       23 UNK        -0.2404 
    126 C126        0.3433  -19.5703  -53.1565 C.3       23 UNK        -0.0205 
    127 H127       -3.1136  -17.2561  -48.7079 H         1 UNK         0.0600 
    128 H128       -2.5094  -15.8991  -49.6457 H         1 UNK         0.0600 
    129 H129       -2.1625  -16.0123  -47.9079 H         1 UNK         0.0600 
    130 H130        0.9559  -17.2992  -49.6624 H         1 UNK         0.3000 
    131 H131       -0.5220  -14.8773  -50.1103 H         1 UNK         0.0600 
    132 H132        1.4664  -15.3194  -51.4304 H         1 UNK         0.0800 
    133 H133        1.6403  -13.8419  -50.5490 H         1 UNK         0.0800 
    134 H134        4.8878  -16.7414  -50.8685 H         1 UNK         0.0800 
    135 H135        3.7745  -16.0368  -52.0113 H         1 UNK         0.0800 
    136 H136        1.8900  -17.3434  -52.8048 H         1 UNK         0.1150 
    137 H137        1.1759  -21.2460  -51.1897 H         1 UNK         0.1150 
    138 H138        4.1394  -18.7060  -49.4207 H         1 UNK         0.1150 
    139 H139        2.5755  -22.1330  -49.4610 H         1 UNK         0.0800 
    140 H140        4.1101  -21.3480  -49.1841 H         1 UNK         0.0800 
    141 H141        0.4134  -20.8550  -48.6945 H         1 UNK         0.0800 
    142 H142        0.2698  -19.9033  -47.2380 H         1 UNK         0.0800 
    143 H143        0.7106  -22.9142  -47.1803 H         1 UNK         0.0600 
    144 H144        0.5778  -20.9911  -45.0999 H         1 UNK         0.3000 
    145 H145       -0.1056  -23.3758  -42.4707 H         1 UNK         0.0600 
    146 H146        1.9007  -22.1936  -41.6579 H         1 UNK         0.0600 
    147 H147        2.3318  -23.2326  -43.0078 H         1 UNK         0.0600 
    148 H148        2.1860  -21.4961  -43.2496 H         1 UNK         0.0600 
    149 H149        0.0556  -20.5232  -42.4267 H         1 UNK         0.3000 
    150 H150       -3.4760  -19.9195  -42.6981 H         1 UNK         0.0600 
    151 H151       -3.0247  -20.4970  -40.3036 H         1 UNK         0.0600 
    152 H152       -3.0350  -18.7596  -40.5626 H         1 UNK         0.0600 
    153 H153       -1.5045  -19.6133  -40.3730 H         1 UNK         0.0600 
    154 H154       -1.3415  -18.0988  -42.3483 H         1 UNK         0.3000 
    155 H155       -0.5942  -17.5935  -45.8414 H         1 UNK         0.0600 
    156 H156       -1.8286  -15.8778  -43.6188 H         1 UNK         0.0600 
    157 H157       -2.5400  -16.1603  -45.2053 H         1 UNK         0.0600 
    158 H158       -1.0255  -15.2802  -45.0670 H         1 UNK         0.0600 
    159 H159        0.6141  -16.4543  -43.5672 H         1 UNK         0.3000 
    160 H160        3.1564  -18.9502  -43.0474 H         1 UNK         0.0600 
    161 H161        3.1044  -16.0222  -43.9580 H         1 UNK         0.0600 
    162 H162        3.9074  -17.3435  -44.7891 H         1 UNK         0.0600 
    163 H163        4.4678  -16.8455  -43.2007 H         1 UNK         0.0600 
    164 H164        2.3976  -16.5804  -41.6107 H         1 UNK         0.3000 
    165 H165        0.3095  -18.1766  -39.2056 H         1 UNK         0.0600 
    166 H166        1.9967  -17.2334  -37.6540 H         1 UNK         0.0600 
    167 H167        2.6347  -18.6707  -38.4361 H         1 UNK         0.0600 
    168 H168        3.1639  -17.0789  -38.9674 H         1 UNK         0.0600 
    169 H169        1.3136  -15.5074  -39.4590 H         1 UNK         0.3000 
    170 H170       -1.3363  -14.2284  -41.4767 H         1 UNK         0.0600 
    171 H171       -2.1547  -14.2434  -39.1140 H         1 UNK         0.0600 
    172 H172       -0.5493  -13.8050  -38.5428 H         1 UNK         0.0600 
    173 H173       -1.4704  -12.6851  -39.5467 H         1 UNK         0.0600 
    174 H174        0.9381  -12.9505  -40.3646 H         1 UNK         0.3000 
    175 H175        2.4182  -12.0363  -42.0458 H         1 UNK         0.0600 
    176 H176        3.9517  -14.7111  -41.8560 H         1 UNK         0.0600 
    177 H177        4.6706  -13.1126  -41.6929 H         1 UNK         0.0600 
    178 H178        3.5368  -13.6886  -40.4856 H         1 UNK         0.0600 
    179 H179        2.2542  -13.7481  -44.2776 H         1 UNK         0.3000 
    180 H180        3.9855  -11.6034  -46.4716 H         1 UNK         0.0600 
    181 H181        4.3209  -14.6248  -46.0466 H         1 UNK         0.0600 
    182 H182        5.6363  -13.4567  -46.1094 H         1 UNK         0.0600 
    183 H183        4.6507  -13.7400  -47.5354 H         1 UNK         0.0600 
    184 H184        2.1179  -13.8138  -46.7357 H         1 UNK         0.3000 
    185 H185       -0.4281  -13.1873  -46.0707 H         1 UNK         0.0600 
    186 H186       -1.2834  -10.8700  -46.1739 H         1 UNK         0.0600 
    187 H187       -0.8869  -10.7677  -47.8860 H         1 UNK         0.0600 
    188 H188       -2.1308  -11.8858  -47.3256 H         1 UNK         0.0600 
    189 H189       -0.3272  -12.8961  -48.9626 H         1 UNK         0.3000 
    190 H190       -2.1091  -21.2133  -45.8191 H         1 UNK         0.3000 
    191 H191       -3.9839  -21.9747  -47.7810 H         1 UNK         0.0600 
    192 H192       -4.3527  -21.4727  -44.7869 H         1 UNK         0.0600 
    193 H193       -5.6657  -21.5918  -45.9520 H         1 UNK         0.0600 
    194 H194       -4.5032  -20.2849  -46.0826 H         1 UNK         0.0600 
    195 H195       -2.4185  -23.9436  -45.3586 H         1 UNK         0.3000 
    196 H196       -4.2722  -26.2309  -45.8383 H         1 UNK         0.0600 
    197 H197       -3.0046  -27.2991  -43.9893 H         1 UNK         0.0600 
    198 H198       -3.7096  -25.7740  -43.4748 H         1 UNK         0.0600 
    199 H199       -1.9879  -25.8725  -43.8268 H         1 UNK         0.0600 
    200 H200       -0.7624  -25.3908  -45.8747 H         1 UNK         0.3000 
    201 H201        0.0786  -27.8617  -46.9260 H         1 UNK         0.0600 
    202 H202        1.5065  -26.3617  -45.5652 H         1 UNK         0.0600 
    203 H203        1.5279  -25.1636  -46.8567 H         1 UNK         0.0600 
    204 H204        2.2924  -26.7301  -47.0929 H         1 UNK         0.0600 
    205 H205       -0.6601  -24.8075  -48.6363 H         1 UNK         0.3000 
    206 H206       -0.0676  -26.1064  -51.2722 H         1 UNK         0.0600 
    207 H207        1.3365  -24.0917  -50.7181 H         1 UNK         0.0600 
    208 H208        0.2817  -23.8099  -52.0927 H         1 UNK         0.0600 
    209 H209       -0.1308  -23.1342  -50.5241 H         1 UNK         0.0600 
    210 H210       -2.5589  -25.7181  -49.2550 H         1 UNK         0.3000 
    211 H211       -4.7635  -25.5205  -49.3016 H         1 UNK         0.0600 
    212 H212       -4.5728  -26.2121  -52.2765 H         1 UNK         0.0600 
    213 H213       -5.9722  -26.4314  -51.2352 H         1 UNK         0.0600 
    214 H214       -4.5242  -27.3833  -50.9589 H         1 UNK         0.0600 
    215 H215       -3.1502  -23.0906  -49.9261 H         1 UNK         0.3000 
    216 H216       -3.2707  -20.9533  -50.4587 H         1 UNK         0.0600 
    217 H217       -5.3545  -19.7289  -50.3155 H         1 UNK         0.0600 
    218 H218       -5.4837  -21.0260  -49.1474 H         1 UNK         0.0600 
    219 H219       -6.3173  -21.1489  -50.6913 H         1 UNK         0.0600 
    220 H220       -3.1821  -23.0771  -52.5872 H         1 UNK         0.3000 
    221 H221       -2.8886  -23.3531  -54.7126 H         1 UNK         0.0600 
    222 H222       -3.0552  -20.3101  -55.0230 H         1 UNK         0.0600 
    223 H223       -1.6010  -21.2702  -54.7619 H         1 UNK         0.0600 
    224 H224       -2.5029  -21.4311  -56.2580 H         1 UNK         0.0600 
    225 H225       -5.4702  -20.9254  -54.3866 H         1 UNK         0.3000 
    226 H226       -7.5165  -22.5497  -55.5336 H         1 UNK         0.0600 
    227 H227       -6.4510  -21.9170  -57.7061 H         1 UNK         0.0600 
    228 H228       -8.0007  -21.1211  -57.5501 H         1 UNK         0.0600 
    229 H229       -6.5098  -20.2140  -57.2734 H         1 UNK         0.0600 
    230 H230       -8.3251  -19.4439  -56.3260 H         1 UNK         0.3000 
    231 H231       -9.6702  -18.8616  -53.7850 H         1 UNK         0.0600 
    232 H232      -10.8609  -18.5502  -55.9382 H         1 UNK         0.0600 
    233 H233       -9.6428  -17.3934  -56.4741 H         1 UNK         0.0600 
    234 H234      -10.6825  -17.0155  -55.1047 H         1 UNK         0.0600 
    235 H235       -7.2709  -18.9300  -53.0186 H         1 UNK         0.3000 
    236 H236       -5.6636  -17.9945  -51.8590 H         1 UNK         0.0600 
    237 H237       -5.5608  -15.6226  -51.2695 H         1 UNK         0.0600 
    238 H238       -6.6788  -15.1886  -52.5503 H         1 UNK         0.0600 
    239 H239       -7.2328  -16.1467  -51.1772 H         1 UNK         0.0600 
    240 H240       -3.5681  -16.9667  -52.0640 H         1 UNK         0.3000 
    241 H241       -2.4836  -17.3143  -54.7262 H         1 UNK         0.0600 
    242 H242       -2.9008  -13.3373  -54.3032 H         1 UNK         0.3800 
    243 H243       -3.8202  -14.4707  -53.3492 H         1 UNK         0.3800 
    244 H244       -1.0759  -16.6097  -52.1086 H         1 UNK         0.0800 
    245 H245       -0.2786  -17.0026  -53.6073 H         1 UNK         0.0800 
    246 H246        0.2616  -20.6415  -53.3454 H         1 UNK         0.0800 
    247 H247        0.6211  -19.1179  -54.1095 H         1 UNK         0.0800 
@<TRIPOS>BOND
     1    1    2 1    
     2    1  127 1    
     3    1  128 1    
     4    1  129 1    
     5    2    3 2    
     6    2    4 am   BACKBONE|DICT|INTERRES
     7    4    5 1    
     8    4  130 1    
     9    5    6 1    
    10    5   65 1    
    11    5  131 1    
    12    6    7 1    
    13    6  132 1    
    14    6  133 1    
    15    7    8 1    
    16    8    9 1    
    17    8  134 1    
    18    8  135 1    
    19    9   10 ar   
    20    9   14 ar   
    21   10   11 ar   
    22   10  136 1    
    23   11   12 ar   
    24   11  126 1    
    25   12   13 ar   
    26   12  137 1    
    27   13   14 ar   
    28   13   15 1    
    29   14  138 1    
    30   15   16 1    
    31   15  139 1    
    32   15  140 1    
    33   16   17 1    
    34   17   18 1    
    35   17  141 1    
    36   17  142 1    
    37   18   19 1    
    38   18   67 1    
    39   18  143 1    
    40   19   20 am   BACKBONE|DICT|INTERRES
    41   19  144 1    
    42   20   21 2    
    43   20   22 1    
    44   22   23 1    
    45   22   24 1    
    46   22  145 1    
    47   23  146 1    
    48   23  147 1    
    49   23  148 1    
    50   24   25 am   BACKBONE|DICT|INTERRES
    51   24  149 1    
    52   25   26 2    
    53   25   27 1    
    54   27   28 1    
    55   27   29 1    
    56   27  150 1    
    57   28  151 1    
    58   28  152 1    
    59   28  153 1    
    60   29   30 am   BACKBONE|DICT|INTERRES
    61   29  154 1    
    62   30   31 2    
    63   30   32 1    
    64   32   33 1    
    65   32   34 1    
    66   32  155 1    
    67   33  156 1    
    68   33  157 1    
    69   33  158 1    
    70   34   35 am   BACKBONE|DICT|INTERRES
    71   34  159 1    
    72   35   36 2    
    73   35   37 1    
    74   37   38 1    
    75   37   39 1    
    76   37  160 1    
    77   38  161 1    
    78   38  162 1    
    79   38  163 1    
    80   39   40 am   BACKBONE|DICT|INTERRES
    81   39  164 1    
    82   40   41 2    
    83   40   42 1    
    84   42   43 1    
    85   42   44 1    
    86   42  165 1    
    87   43  166 1    
    88   43  167 1    
    89   43  168 1    
    90   44   45 am   BACKBONE|DICT|INTERRES
    91   44  169 1    
    92   45   46 2    
    93   45   47 1    
    94   47   48 1    
    95   47   49 1    
    96   47  170 1    
    97   48  171 1    
    98   48  172 1    
    99   48  173 1    
   100   49   50 am   BACKBONE|DICT|INTERRES
   101   49  174 1    
   102   50   51 2    
   103   50   52 1    
   104   52   53 1    
   105   52   54 1    
   106   52  175 1    
   107   53  176 1    
   108   53  177 1    
   109   53  178 1    
   110   54   55 am   BACKBONE|DICT|INTERRES
   111   54  179 1    
   112   55   56 2    
   113   55   57 1    
   114   57   58 1    
   115   57   59 1    
   116   57  180 1    
   117   58  181 1    
   118   58  182 1    
   119   58  183 1    
   120   59   60 am   BACKBONE|DICT|INTERRES
   121   59  184 1    
   122   60   61 2    
   123   60   62 1    
   124   62   63 1    
   125   62   64 1    
   126   62  185 1    
   127   63  186 1    
   128   63  187 1    
   129   63  188 1    
   130   64   65 am   BACKBONE|DICT|INTERRES
   131   64  189 1    
   132   65   66 2    
   133   67   68 2    
   134   67   69 am   BACKBONE|DICT|INTERRES
   135   69   70 1    
   136   69  190 1    
   137   70   71 1    
   138   70   72 1    
   139   70  191 1    
   140   71  192 1    
   141   71  193 1    
   142   71  194 1    
   143   72   73 2    
   144   72   74 am   BACKBONE|DICT|INTERRES
   145   74   75 1    
   146   74  195 1    
   147   75   76 1    
   148   75   77 1    
   149   75  196 1    
   150   76  197 1    
   151   76  198 1    
   152   76  199 1    
   153   77   78 2    
   154   77   79 am   BACKBONE|DICT|INTERRES
   155   79   80 1    
   156   79  200 1    
   157   80   81 1    
   158   80   82 1    
   159   80  201 1    
   160   81  202 1    
   161   81  203 1    
   162   81  204 1    
   163   82   83 2    
   164   82   84 am   BACKBONE|DICT|INTERRES
   165   84   85 1    
   166   84  205 1    
   167   85   86 1    
   168   85   87 1    
   169   85  206 1    
   170   86  207 1    
   171   86  208 1    
   172   86  209 1    
   173   87   88 2    
   174   87   89 am   BACKBONE|DICT|INTERRES
   175   89   90 1    
   176   89  210 1    
   177   90   91 1    
   178   90   92 1    
   179   90  211 1    
   180   91  212 1    
   181   91  213 1    
   182   91  214 1    
   183   92   93 2    
   184   92   94 am   BACKBONE|DICT|INTERRES
   185   94   95 1    
   186   94  215 1    
   187   95   96 1    
   188   95   97 1    
   189   95  216 1    
   190   96  217 1    
   191   96  218 1    
   192   96  219 1    
   193   97   98 2    
   194   97   99 am   BACKBONE|DICT|INTERRES
   195   99  100 1    
   196   99  220 1    
   197  100  101 1    
   198  100  102 1    
   199  100  221 1    
   200  101  222 1    
   201  101  223 1    
   202  101  224 1    
   203  102  103 2    
   204  102  104 am   BACKBONE|DICT|INTERRES
   205  104  105 1    
   206  104  225 1    
   207  105  106 1    
   208  105  107 1    
   209  105  226 1    
   210  106  227 1    
   211  106  228 1    
   212  106  229 1    
   213  107  108 2    
   214  107  109 am   BACKBONE|DICT|INTERRES
   215  109  110 1    
   216  109  230 1    
   217  110  111 1    
   218  110  112 1    
   219  110  231 1    
   220  111  232 1    
   221  111  233 1    
   222  111  234 1    
   223  112  113 2    
   224  112  114 am   BACKBONE|DICT|INTERRES
   225  114  115 1    
   226  114  235 1    
   227  115  116 1    
   228  115  117 1    
   229  115  236 1    
   230  116  237 1    
   231  116  238 1    
   232  116  239 1    
   233  117  118 2    
   234  117  119 am   BACKBONE|DICT|INTERRES
   235  119  120 1    
   236  119  240 1    
   237  120  121 1    
   238  120  124 1    
   239  120  241 1    
   240  121  122 am   BACKBONE|DICT|INTERRES
   241  121  123 2    
   242  122  242 1    
   243  122  243 1    
   244  124  125 1    
   245  124  244 1    
   246  124  245 1    
   247  125  126 1    
   248  126  246 1    
   249  126  247 1    
@<TRIPOS>SUBSTRUCTURE
     1 UNK         1 GROUP             0       ****    0 ROOT    
