@<TRIPOS>MOLECULE
3R540
247   249    1
SMALL
USER_CHARGES


@<TRIPOS>ATOM
      1 CA         -2.3713  -14.3828  -51.9999 C.3       0 UNK        -0.1800 
      2 C          -2.0387  -13.3450  -50.9366 C.2       0 UNK         0.5000 
      3 O          -2.5660  -12.2337  -50.9733 O.2       0 UNK        -0.5000 
      4 N          -1.1622  -13.7063  -49.9904 N.am      1 UNK        -0.5000 
      5 CA         -0.6576  -12.8396  -48.9165 C.3       1 UNK         0.1400 
      6 C6          0.6733  -13.3980  -48.3379 C.3       23 UNK        -0.0398 
      7 S7          0.5545  -14.6001  -46.9625 S.3       23 UNK        -0.2404 
      8 C8         -0.2360  -16.0584  -47.7125 C.3       23 UNK        -0.0205 
      9 C9          0.5756  -16.7057  -48.8278 C.ar      23 UNK        -0.0193 
     10 C10        -0.0176  -16.9353  -50.0724 C.ar      23 UNK        -0.1150 
     11 C11         0.6886  -17.5823  -51.0894 C.ar      23 UNK        -0.0193 
     12 C12         1.9977  -18.0086  -50.8537 C.ar      23 UNK        -0.1150 
     13 C13         2.6023  -17.7943  -49.6129 C.ar      23 UNK        -0.0193 
     14 C14         1.8872  -17.1381  -48.6050 C.ar      23 UNK        -0.1150 
     15 C15         4.0278  -18.2727  -49.3725 C.3       23 UNK        -0.0205 
     16 S16         4.1359  -20.0859  -49.1977 S.3       23 UNK        -0.2404 
     17 C17         3.3652  -20.3344  -47.5638 C.3       23 UNK        -0.0398 
     18 CA          2.4166  -21.5549  -47.4669 C.3       11 UNK         0.1400 
     19 N           2.0370  -21.8071  -46.0723 N.am      11 UNK        -0.5000 
     20 C           1.4349  -22.9113  -45.6091 C.2       10 UNK         0.5000 
     21 O           1.1861  -23.8970  -46.3020 O.2       10 UNK        -0.5000 
     22 CA          1.0008  -22.8999  -44.1282 C.3       10 UNK         0.1400 
     23 CB          2.1378  -23.3816  -43.2150 C.3       10 UNK        -0.1800 
     24 N           0.5359  -21.5836  -43.6837 N.am      10 UNK        -0.5000 
     25 C          -0.5782  -20.9881  -44.1341 C.2       9 UNK         0.5000 
     26 O          -1.3676  -21.5260  -44.9087 O.2       9 UNK        -0.5000 
     27 CA         -0.8175  -19.5292  -43.6984 C.3       9 UNK         0.1400 
     28 CB         -1.4873  -19.4706  -42.3177 C.3       9 UNK        -0.1800 
     29 N           0.4191  -18.7462  -43.6793 N.am      9 UNK        -0.5000 
     30 C           1.1756  -18.4921  -44.7552 C.2       8 UNK         0.5000 
     31 O           0.8552  -18.8238  -45.8936 O.2       8 UNK        -0.5000 
     32 CA          2.5440  -17.8269  -44.5130 C.3       8 UNK         0.1400 
     33 CB          2.4339  -16.2986  -44.4283 C.3       8 UNK        -0.1800 
     34 N           3.1736  -18.3342  -43.2972 N.am      8 UNK        -0.5000 
     35 C           3.7313  -19.5463  -43.1848 C.2       7 UNK         0.5000 
     36 O           3.8021  -20.3499  -44.1136 O.2       7 UNK        -0.5000 
     37 CA          4.2650  -19.9326  -41.7925 C.3       7 UNK         0.1400 
     38 CB          5.7324  -19.5061  -41.6415 C.3       7 UNK        -0.1800 
     39 N           3.4759  -19.3414  -40.7091 N.am      7 UNK        -0.5000 
     40 C           2.2153  -19.6927  -40.4186 C.2       6 UNK         0.5000 
     41 O           1.6109  -20.5958  -40.9975 O.2       6 UNK        -0.5000 
     42 CA          1.4949  -18.8491  -39.3474 C.3       6 UNK         0.1400 
     43 CB          1.8237  -19.3661  -37.9391 C.3       6 UNK        -0.1800 
     44 N           1.8110  -17.4168  -39.4301 N.am      6 UNK        -0.5000 
     45 C           1.5199  -16.6429  -40.4839 C.2       5 UNK         0.5000 
     46 O           0.9490  -17.0637  -41.4933 O.2       5 UNK        -0.5000 
     47 CA          1.9804  -15.1784  -40.4347 C.3       5 UNK         0.1400 
     48 CB          3.5161  -15.0792  -40.5065 C.3       5 UNK        -0.1800 
     49 N           1.3841  -14.4877  -41.5729 N.am      5 UNK        -0.5000 
     50 C           1.2230  -13.1702  -41.7259 C.2       4 UNK         0.5000 
     51 O           1.6073  -12.3378  -40.9034 O.2       4 UNK        -0.5000 
     52 CA          0.5146  -12.6919  -43.0140 C.3       4 UNK         0.1400 
     53 CB          1.5456  -12.1709  -44.0276 C.3       4 UNK        -0.1800 
     54 N          -0.3150  -13.7013  -43.6819 N.am      4 UNK        -0.5000 
     55 C          -1.4078  -14.2794  -43.1660 C.2       3 UNK         0.5000 
     56 O          -1.8338  -14.0512  -42.0325 O.2       3 UNK        -0.5000 
     57 CA         -2.1418  -15.2623  -44.1007 C.3       3 UNK         0.1400 
     58 CB         -3.2722  -16.0388  -43.3943 C.3       3 UNK        -0.1800 
     59 N          -2.6463  -14.6124  -45.3175 N.am      3 UNK        -0.5000 
     60 C          -3.5096  -13.5862  -45.4024 C.2       2 UNK         0.5000 
     61 O          -3.9914  -13.0056  -44.4284 O.2       2 UNK        -0.5000 
     62 CA         -3.9241  -13.1680  -46.8311 C.3       2 UNK         0.1400 
     63 CB         -4.6245  -11.7933  -46.8883 C.3       2 UNK        -0.1800 
     64 N          -2.8234  -13.2449  -47.7994 N.am      2 UNK        -0.5000 
     65 C          -1.7025  -12.5051  -47.8216 C.2       1 UNK         0.5000 
     66 O          -1.4553  -11.6084  -47.0145 O.2       1 UNK        -0.5000 
     67 C           1.1770  -21.4379  -48.3868 C.2       11 UNK         0.5000 
     68 O           1.1716  -22.0239  -49.4697 O.2       11 UNK        -0.5000 
     69 N           0.1317  -20.7374  -47.9201 N.am      12 UNK        -0.5000 
     70 CA         -1.1755  -20.6443  -48.5807 C.3       12 UNK         0.1400 
     71 CB         -2.0041  -19.5402  -47.9072 C.3       12 UNK        -0.1800 
     72 C          -1.9660  -21.9686  -48.5792 C.2       12 UNK         0.5000 
     73 O          -2.7699  -22.1955  -49.4879 O.2       12 UNK        -0.5000 
     74 N          -1.6982  -22.8045  -47.5676 N.am      13 UNK        -0.5000 
     75 CA         -2.2846  -24.1076  -47.2555 C.3       13 UNK         0.1400 
     76 CB         -2.1985  -25.0696  -48.4576 C.3       13 UNK        -0.1800 
     77 C          -3.7174  -24.0069  -46.7007 C.2       13 UNK         0.5000 
     78 O          -4.3579  -22.9537  -46.7694 O.2       13 UNK        -0.5000 
     79 N          -4.1950  -25.1282  -46.1430 N.am      14 UNK        -0.5000 
     80 CA         -5.5401  -25.2896  -45.5890 C.3       14 UNK         0.1400 
     81 CB         -5.6854  -26.7070  -45.0153 C.3       14 UNK        -0.1800 
     82 C          -6.6224  -25.0172  -46.6475 C.2       14 UNK         0.5000 
     83 O          -6.5206  -25.5294  -47.7638 O.2       14 UNK        -0.5000 
     84 N          -7.6022  -24.1764  -46.2890 N.am      15 UNK        -0.5000 
     85 CA         -8.6844  -23.6738  -47.1465 C.3       15 UNK         0.1400 
     86 CB         -9.6525  -24.8157  -47.5224 C.3       15 UNK        -0.1800 
     87 C          -8.1892  -22.8849  -48.3826 C.2       15 UNK         0.5000 
     88 O          -8.9166  -22.7915  -49.3725 O.2       15 UNK        -0.5000 
     89 N          -6.9646  -22.3357  -48.3027 N.am      16 UNK        -0.5000 
     90 CA         -6.2450  -21.6077  -49.3533 C.3       16 UNK         0.1400 
     91 CB         -6.9697  -20.2878  -49.6986 C.3       16 UNK        -0.1800 
     92 C          -5.9465  -22.4761  -50.5955 C.2       16 UNK         0.5000 
     93 O          -5.9219  -21.9574  -51.7119 O.2       16 UNK        -0.5000 
     94 N          -5.7333  -23.7853  -50.3892 N.am      17 UNK        -0.5000 
     95 CA         -5.5649  -24.7831  -51.4492 C.3       17 UNK         0.1400 
     96 CB         -5.4798  -26.1845  -50.8263 C.3       17 UNK        -0.1800 
     97 C          -4.3717  -24.5382  -52.3929 C.2       17 UNK         0.5000 
     98 O          -4.4822  -24.8423  -53.5813 O.2       17 UNK        -0.5000 
     99 N          -3.2685  -23.9875  -51.8682 N.am      18 UNK        -0.5000 
    100 CA        -2.1033  -23.6019  -52.6651 C.3       18 UNK         0.1400 
    101 CB        -0.8182  -23.8042  -51.8505 C.3       18 UNK        -0.1800 
    102 C         -2.2280  -22.1498  -53.1494 C.2       18 UNK         0.5000 
    103 O         -1.8495  -21.8554  -54.2841 O.2       18 UNK        -0.5000 
    104 N         -2.7932  -21.2723  -52.3064 N.am      19 UNK        -0.5000 
    105 CA        -3.0315  -19.8565  -52.6017 C.3       19 UNK         0.1400 
    106 CB        -3.3890  -19.1003  -51.3142 C.3       19 UNK        -0.1800 
    107 C         -4.0408  -19.5807  -53.7290 C.2       19 UNK         0.5000 
    108 O         -4.0118  -18.4929  -54.3047 O.2       19 UNK        -0.5000 
    109 N         -4.8609  -20.5809  -54.0723 N.am      20 UNK        -0.5000 
    110 CA        -5.6997  -20.6151  -55.2704 C.3       20 UNK         0.1400 
    111 CB        -6.5409  -21.9003  -55.2456 C.3       20 UNK        -0.1800 
    112 C         -4.8963  -20.5188  -56.5871 C.2       20 UNK         0.5000 
    113 O         -5.4418  -20.0497  -57.5869 O.2       20 UNK        -0.5000 
    114 N         -3.6244  -20.9429  -56.5601 N.am      21 UNK        -0.5000 
    115 CA        -2.6682  -20.8023  -57.6550 C.3       21 UNK         0.1400 
    116 CB        -2.0445  -22.1737  -57.9636 C.3       21 UNK        -0.1800 
    117 C         -1.5844  -19.7717  -57.2951 C.2       21 UNK         0.5000 
    118 O         -1.3690  -18.8295  -58.0580 O.2       21 UNK        -0.5000 
    119 N         -0.9238  -19.9689  -56.1440 N.am      22 UNK        -0.5000 
    120 CA         0.2136  -19.1730  -55.6452 C.3       22 UNK         0.1400 
    121 C          1.4834  -19.2140  -56.5563 C.2       22 UNK         0.5000 
    122 N          1.6861  -20.2667  -57.3402 N.am      22 UNK        -0.7600 
    123 O          2.3060  -18.3026  -56.5506 O.2       22 UNK        -0.5000 
    124 C124       -0.2135  -17.7411  -55.2045 C.3       23 UNK        -0.0398 
    125 S125        0.7955  -17.0697  -53.8324 S.3       23 UNK        -0.2404 
    126 C126        0.0108  -17.8901  -52.4132 C.3       23 UNK        -0.0205 
    127 H127       -2.5237  -13.9003  -52.9654 H         1 UNK         0.0600 
    128 H128       -3.2847  -14.9157  -51.7360 H         1 UNK         0.0600 
    129 H129       -1.5669  -15.1090  -52.1157 H         1 UNK         0.0600 
    130 H130       -0.7369  -14.6203  -50.0388 H         1 UNK         0.3000 
    131 H131       -0.4142  -11.8850  -49.3885 H         1 UNK         0.0600 
    132 H132        1.2905  -13.8262  -49.1293 H         1 UNK         0.0800 
    133 H133        1.2565  -12.5605  -47.9519 H         1 UNK         0.0800 
    134 H134       -1.2323  -15.7882  -48.0615 H         1 UNK         0.0800 
    135 H135       -0.3896  -16.7966  -46.9265 H         1 UNK         0.0800 
    136 H136       -1.0451  -16.6466  -50.2398 H         1 UNK         0.1150 
    137 H137        2.5415  -18.5247  -51.6326 H         1 UNK         0.1150 
    138 H138        2.3422  -16.9775  -47.6386 H         1 UNK         0.1150 
    139 H139        4.6517  -17.9643  -50.2126 H         1 UNK         0.0800 
    140 H140        4.4534  -17.7960  -48.4880 H         1 UNK         0.0800 
    141 H141        2.8400  -19.4275  -47.2779 H         1 UNK         0.0800 
    142 H142        4.1775  -20.4450  -46.8442 H         1 UNK         0.0800 
    143 H143        2.9778  -22.4304  -47.8005 H         1 UNK         0.0600 
    144 H144        2.2562  -21.0730  -45.4103 H         1 UNK         0.3000 
    145 H145        0.1686  -23.5994  -44.0240 H         1 UNK         0.0600 
    146 H146        1.8201  -23.4123  -42.1725 H         1 UNK         0.0600 
    147 H147        2.4561  -24.3882  -43.4887 H         1 UNK         0.0600 
    148 H148        3.0118  -22.7344  -43.2786 H         1 UNK         0.0600 
    149 H149        1.1012  -21.1014  -42.9942 H         1 UNK         0.3000 
    150 H150       -1.4903  -19.0665  -44.4234 H         1 UNK         0.0600 
    151 H151       -2.4734  -19.9354  -42.3455 H         1 UNK         0.0600 
    152 H152       -1.6181  -18.4423  -41.9829 H         1 UNK         0.0600 
    153 H153       -0.9022  -19.9916  -41.5605 H         1 UNK         0.0600 
    154 H154        0.7121  -18.3730  -42.7803 H         1 UNK         0.3000 
    155 H155        3.1992  -18.0674  -45.3523 H         1 UNK         0.0600 
    156 H156        1.5043  -15.9774  -43.9606 H         1 UNK         0.0600 
    157 H157        2.4698  -15.8687  -45.4262 H         1 UNK         0.0600 
    158 H158        3.2620  -15.8578  -43.8731 H         1 UNK         0.0600 
    159 H159        3.1072  -17.7552  -42.4747 H         1 UNK         0.3000 
    160 H160        4.2122  -21.0199  -41.7047 H         1 UNK         0.0600 
    161 H161        5.8471  -18.4232  -41.7038 H         1 UNK         0.0600 
    162 H162        6.3492  -19.9475  -42.4256 H         1 UNK         0.0600 
    163 H163        6.1415  -19.8332  -40.6854 H         1 UNK         0.0600 
    164 H164        3.9050  -18.5951  -40.1822 H         1 UNK         0.3000 
    165 H165        0.4208  -18.9634  -39.5090 H         1 UNK         0.0600 
    166 H166        1.2488  -18.8351  -37.1802 H         1 UNK         0.0600 
    167 H167        1.5812  -20.4256  -37.8460 H         1 UNK         0.0600 
    168 H168        2.8819  -19.2492  -37.7024 H         1 UNK         0.0600 
    169 H169        2.2821  -17.0108  -38.6343 H         1 UNK         0.3000 
    170 H170        1.6164  -14.7312  -39.5077 H         1 UNK         0.0600 
    171 H171        3.9865  -15.5847  -39.6625 H         1 UNK         0.0600 
    172 H172        3.9066  -15.5294  -41.4198 H         1 UNK         0.0600 
    173 H173        3.8479  -14.0412  -40.4807 H         1 UNK         0.0600 
    174 H174        0.9785  -15.1147  -42.2550 H         1 UNK         0.3000 
    175 H175       -0.1385  -11.8631  -42.7336 H         1 UNK         0.0600 
    176 H176        2.2109  -12.9661  -44.3672 H         1 UNK         0.0600 
    177 H177        1.0568  -11.7458  -44.9049 H         1 UNK         0.0600 
    178 H178        2.1656  -11.3872  -43.5902 H         1 UNK         0.0600 
    179 H179       -0.0586  -13.9223  -44.6347 H         1 UNK         0.3000 
    180 H180       -1.3986  -15.9951  -44.4204 H         1 UNK         0.0600 
    181 H181       -3.6956  -16.8001  -44.0494 H         1 UNK         0.0600 
    182 H182       -4.0819  -15.3816  -43.0760 H         1 UNK         0.0600 
    183 H183       -2.9004  -16.5460  -42.5042 H         1 UNK         0.0600 
    184 H184       -2.2959  -14.9861  -46.1859 H         1 UNK         0.3000 
    185 H185       -4.6552  -13.9110  -47.1530 H         1 UNK         0.0600 
    186 H186       -5.5394  -11.7967  -46.2949 H         1 UNK         0.0600 
    187 H187       -3.9899  -10.9956  -46.5015 H         1 UNK         0.0600 
    188 H188       -4.9031  -11.5351  -47.9100 H         1 UNK         0.0600 
    189 H189       -2.9312  -13.9351  -48.5283 H         1 UNK         0.3000 
    190 H190        0.2469  -20.2149  -47.0559 H         1 UNK         0.3000 
    191 H191       -1.0031  -20.3678  -49.6223 H         1 UNK         0.0600 
    192 H192       -3.0080  -19.4836  -48.3295 H         1 UNK         0.0600 
    193 H193       -1.5402  -18.5663  -48.0432 H         1 UNK         0.0600 
    194 H194       -2.1126  -19.7147  -46.8368 H         1 UNK         0.0600 
    195 H195       -1.0961  -22.4383  -46.8407 H         1 UNK         0.3000 
    196 H196       -1.6638  -24.5146  -46.4560 H         1 UNK         0.0600 
    197 H197       -2.9061  -24.8018  -49.2398 H         1 UNK         0.0600 
    198 H198       -1.1984  -25.0719  -48.8916 H         1 UNK         0.0600 
    199 H199       -2.4234  -26.0938  -48.1593 H         1 UNK         0.0600 
    200 H200       -3.6176  -25.9558  -46.1458 H         1 UNK         0.3000 
    201 H201       -5.6495  -24.5730  -44.7724 H         1 UNK         0.0600 
    202 H202       -5.5545  -27.4681  -45.7858 H         1 UNK         0.0600 
    203 H203       -6.6738  -26.8508  -44.5770 H         1 UNK         0.0600 
    204 H204       -4.9524  -26.8934  -44.2301 H         1 UNK         0.0600 
    205 H205       -7.5846  -23.7942  -45.3533 H         1 UNK         0.3000 
    206 H206       -9.2420  -22.9577  -46.5413 H         1 UNK         0.0600 
    207 H207       -9.9893  -25.3550  -46.6372 H         1 UNK         0.0600 
    208 H208      -10.5417  -24.4284  -48.0211 H         1 UNK         0.0600 
    209 H209       -9.1880  -25.5352  -48.1974 H         1 UNK         0.0600 
    210 H210       -6.4220  -22.5049  -47.4636 H         1 UNK         0.3000 
    211 H211       -5.2749  -21.3456  -48.9300 H         1 UNK         0.0600 
    212 H212       -6.3900  -19.6834  -50.3953 H         1 UNK         0.0600 
    213 H213       -7.1324  -19.6837  -48.8062 H         1 UNK         0.0600 
    214 H214       -7.9389  -20.4657  -50.1646 H         1 UNK         0.0600 
    215 H215       -5.8024  -24.1420  -49.4443 H         1 UNK         0.3000 
    216 H216       -6.4660  -24.7472  -52.0649 H         1 UNK         0.0600 
    217 H217       -4.6608  -26.2607  -50.1108 H         1 UNK         0.0600 
    218 H218       -5.3219  -26.9466  -51.5906 H         1 UNK         0.0600 
    219 H219       -6.4036  -26.4388  -50.3066 H         1 UNK         0.0600 
    220 H220       -3.2691  -23.7043  -50.8949 H         1 UNK         0.3000 
    221 H221       -2.0305  -24.2398  -53.5485 H         1 UNK         0.0600 
    222 H222        0.0623  -23.5634  -52.4473 H         1 UNK         0.0600 
    223 H223       -0.7174  -24.8391  -51.5240 H         1 UNK         0.0600 
    224 H224       -0.7911  -23.1711  -50.9657 H         1 UNK         0.0600 
    225 H225       -3.0589  -21.5970  -51.3829 H         1 UNK         0.3000 
    226 H226       -2.0947  -19.4614  -52.9830 H         1 UNK         0.0600 
    227 H227       -2.5082  -18.9650  -50.6903 H         1 UNK         0.0600 
    228 H228       -3.7799  -18.1041  -51.5261 H         1 UNK         0.0600 
    229 H229       -4.1362  -19.6339  -50.7296 H         1 UNK         0.0600 
    230 H230       -4.9043  -21.3893  -53.4621 H         1 UNK         0.3000 
    231 H231       -6.3744  -19.7578  -55.2304 H         1 UNK         0.0600 
    232 H232       -5.9116  -22.7915  -55.2518 H         1 UNK         0.0600 
    233 H233       -7.1995  -21.9550  -56.1132 H         1 UNK         0.0600 
    234 H234       -7.1702  -21.9423  -54.3562 H         1 UNK         0.0600 
    235 H235       -3.2517  -21.2947  -55.6857 H         1 UNK         0.3000 
    236 H236       -3.1675  -20.4525  -58.5609 H         1 UNK         0.0600 
    237 H237       -2.8041  -22.8812  -58.2961 H         1 UNK         0.0600 
    238 H238       -1.3029  -22.0958  -58.7596 H         1 UNK         0.0600 
    239 H239       -1.5504  -22.6038  -57.0915 H         1 UNK         0.0600 
    240 H240       -1.1829  -20.7624  -55.5615 H         1 UNK         0.3000 
    241 H241        0.5226  -19.7086  -54.7478 H         1 UNK         0.0600 
    242 H242        2.5064  -20.2969  -57.9254 H         1 UNK         0.3800 
    243 H243        1.0319  -21.0323  -57.3545 H         1 UNK         0.3800 
    244 H244       -1.2552  -17.7397  -54.8802 H         1 UNK         0.0800 
    245 H245       -0.1721  -17.0508  -56.0484 H         1 UNK         0.0800 
    246 H246       -1.0352  -17.5854  -52.3800 H         1 UNK         0.0800 
    247 H247        0.0372  -18.9700  -52.5584 H         1 UNK         0.0800 
@<TRIPOS>BOND
     1    1    2 1    
     2    1  127 1    
     3    1  128 1    
     4    1  129 1    
     5    2    3 2    
     6    2    4 am   BACKBONE|DICT|INTERRES
     7    4    5 1    
     8    4  130 1    
     9    5    6 1    
    10    5   65 1    
    11    5  131 1    
    12    6    7 1    
    13    6  132 1    
    14    6  133 1    
    15    7    8 1    
    16    8    9 1    
    17    8  134 1    
    18    8  135 1    
    19    9   10 ar   
    20    9   14 ar   
    21   10   11 ar   
    22   10  136 1    
    23   11   12 ar   
    24   11  126 1    
    25   12   13 ar   
    26   12  137 1    
    27   13   14 ar   
    28   13   15 1    
    29   14  138 1    
    30   15   16 1    
    31   15  139 1    
    32   15  140 1    
    33   16   17 1    
    34   17   18 1    
    35   17  141 1    
    36   17  142 1    
    37   18   19 1    
    38   18   67 1    
    39   18  143 1    
    40   19   20 am   BACKBONE|DICT|INTERRES
    41   19  144 1    
    42   20   21 2    
    43   20   22 1    
    44   22   23 1    
    45   22   24 1    
    46   22  145 1    
    47   23  146 1    
    48   23  147 1    
    49   23  148 1    
    50   24   25 am   BACKBONE|DICT|INTERRES
    51   24  149 1    
    52   25   26 2    
    53   25   27 1    
    54   27   28 1    
    55   27   29 1    
    56   27  150 1    
    57   28  151 1    
    58   28  152 1    
    59   28  153 1    
    60   29   30 am   BACKBONE|DICT|INTERRES
    61   29  154 1    
    62   30   31 2    
    63   30   32 1    
    64   32   33 1    
    65   32   34 1    
    66   32  155 1    
    67   33  156 1    
    68   33  157 1    
    69   33  158 1    
    70   34   35 am   BACKBONE|DICT|INTERRES
    71   34  159 1    
    72   35   36 2    
    73   35   37 1    
    74   37   38 1    
    75   37   39 1    
    76   37  160 1    
    77   38  161 1    
    78   38  162 1    
    79   38  163 1    
    80   39   40 am   BACKBONE|DICT|INTERRES
    81   39  164 1    
    82   40   41 2    
    83   40   42 1    
    84   42   43 1    
    85   42   44 1    
    86   42  165 1    
    87   43  166 1    
    88   43  167 1    
    89   43  168 1    
    90   44   45 am   BACKBONE|DICT|INTERRES
    91   44  169 1    
    92   45   46 2    
    93   45   47 1    
    94   47   48 1    
    95   47   49 1    
    96   47  170 1    
    97   48  171 1    
    98   48  172 1    
    99   48  173 1    
   100   49   50 am   BACKBONE|DICT|INTERRES
   101   49  174 1    
   102   50   51 2    
   103   50   52 1    
   104   52   53 1    
   105   52   54 1    
   106   52  175 1    
   107   53  176 1    
   108   53  177 1    
   109   53  178 1    
   110   54   55 am   BACKBONE|DICT|INTERRES
   111   54  179 1    
   112   55   56 2    
   113   55   57 1    
   114   57   58 1    
   115   57   59 1    
   116   57  180 1    
   117   58  181 1    
   118   58  182 1    
   119   58  183 1    
   120   59   60 am   BACKBONE|DICT|INTERRES
   121   59  184 1    
   122   60   61 2    
   123   60   62 1    
   124   62   63 1    
   125   62   64 1    
   126   62  185 1    
   127   63  186 1    
   128   63  187 1    
   129   63  188 1    
   130   64   65 am   BACKBONE|DICT|INTERRES
   131   64  189 1    
   132   65   66 2    
   133   67   68 2    
   134   67   69 am   BACKBONE|DICT|INTERRES
   135   69   70 1    
   136   69  190 1    
   137   70   71 1    
   138   70   72 1    
   139   70  191 1    
   140   71  192 1    
   141   71  193 1    
   142   71  194 1    
   143   72   73 2    
   144   72   74 am   BACKBONE|DICT|INTERRES
   145   74   75 1    
   146   74  195 1    
   147   75   76 1    
   148   75   77 1    
   149   75  196 1    
   150   76  197 1    
   151   76  198 1    
   152   76  199 1    
   153   77   78 2    
   154   77   79 am   BACKBONE|DICT|INTERRES
   155   79   80 1    
   156   79  200 1    
   157   80   81 1    
   158   80   82 1    
   159   80  201 1    
   160   81  202 1    
   161   81  203 1    
   162   81  204 1    
   163   82   83 2    
   164   82   84 am   BACKBONE|DICT|INTERRES
   165   84   85 1    
   166   84  205 1    
   167   85   86 1    
   168   85   87 1    
   169   85  206 1    
   170   86  207 1    
   171   86  208 1    
   172   86  209 1    
   173   87   88 2    
   174   87   89 am   BACKBONE|DICT|INTERRES
   175   89   90 1    
   176   89  210 1    
   177   90   91 1    
   178   90   92 1    
   179   90  211 1    
   180   91  212 1    
   181   91  213 1    
   182   91  214 1    
   183   92   93 2    
   184   92   94 am   BACKBONE|DICT|INTERRES
   185   94   95 1    
   186   94  215 1    
   187   95   96 1    
   188   95   97 1    
   189   95  216 1    
   190   96  217 1    
   191   96  218 1    
   192   96  219 1    
   193   97   98 2    
   194   97   99 am   BACKBONE|DICT|INTERRES
   195   99  100 1    
   196   99  220 1    
   197  100  101 1    
   198  100  102 1    
   199  100  221 1    
   200  101  222 1    
   201  101  223 1    
   202  101  224 1    
   203  102  103 2    
   204  102  104 am   BACKBONE|DICT|INTERRES
   205  104  105 1    
   206  104  225 1    
   207  105  106 1    
   208  105  107 1    
   209  105  226 1    
   210  106  227 1    
   211  106  228 1    
   212  106  229 1    
   213  107  108 2    
   214  107  109 am   BACKBONE|DICT|INTERRES
   215  109  110 1    
   216  109  230 1    
   217  110  111 1    
   218  110  112 1    
   219  110  231 1    
   220  111  232 1    
   221  111  233 1    
   222  111  234 1    
   223  112  113 2    
   224  112  114 am   BACKBONE|DICT|INTERRES
   225  114  115 1    
   226  114  235 1    
   227  115  116 1    
   228  115  117 1    
   229  115  236 1    
   230  116  237 1    
   231  116  238 1    
   232  116  239 1    
   233  117  118 2    
   234  117  119 am   BACKBONE|DICT|INTERRES
   235  119  120 1    
   236  119  240 1    
   237  120  121 1    
   238  120  124 1    
   239  120  241 1    
   240  121  122 am   BACKBONE|DICT|INTERRES
   241  121  123 2    
   242  122  242 1    
   243  122  243 1    
   244  124  125 1    
   245  124  244 1    
   246  124  245 1    
   247  125  126 1    
   248  126  246 1    
   249  126  247 1    
@<TRIPOS>SUBSTRUCTURE
     1 UNK         1 GROUP             0       ****    0 ROOT    
