@<TRIPOS>MOLECULE
3R540
247   249    1
SMALL
USER_CHARGES


@<TRIPOS>ATOM
      1 CA         -3.0787  -17.3765  -47.7034 C.3       0 UNK        -0.1800 
      2 C          -2.7047  -15.9164  -47.9037 C.2       0 UNK         0.5000 
      3 O          -3.4871  -15.0343  -47.5493 O.2       0 UNK        -0.5000 
      4 N          -1.5184  -15.6561  -48.4673 N.am      1 UNK        -0.5000 
      5 CA         -0.9651  -14.3114  -48.6504 C.3       1 UNK         0.1400 
      6 C6          0.2679  -14.3051  -49.5853 C.3       23 UNK        -0.0398 
      7 S7         -0.1994  -14.6137  -51.3211 S.3       23 UNK        -0.2404 
      8 C8          0.8308  -16.0551  -51.7487 C.3       23 UNK        -0.0205 
      9 C9          0.3725  -17.3489  -51.0874 C.ar      23 UNK        -0.0193 
     10 C10        -0.9668  -17.7534  -51.1464 C.ar      23 UNK        -0.1150 
     11 C11        -1.3710  -18.9574  -50.5654 C.ar      23 UNK        -0.0193 
     12 C12        -0.4209  -19.7698  -49.9430 C.ar      23 UNK        -0.1150 
     13 C13         0.9215  -19.3868  -49.8854 C.ar      23 UNK        -0.0193 
     14 C14         1.3090  -18.1700  -50.4516 C.ar      23 UNK        -0.1150 
     15 C15         1.9636  -20.3142  -49.2760 C.3       23 UNK        -0.0205 
     16 S16         2.4995  -19.8156  -47.6077 S.3       23 UNK        -0.2404 
     17 C17         1.0160  -20.0902  -46.5835 C.3       23 UNK        -0.0398 
     18 CA          0.7184  -21.5897  -46.2855 C.3       11 UNK         0.1400 
     19 N           0.3806  -21.8300  -44.8794 N.am      11 UNK        -0.5000 
     20 C           0.0997  -23.0220  -44.3302 C.2       10 UNK         0.5000 
     21 O           0.1761  -24.0932  -44.9297 O.2       10 UNK        -0.5000 
     22 CA         -0.4236  -23.0074  -42.8841 C.3       10 UNK         0.1400 
     23 CB          0.7314  -22.9517  -41.8726 C.3       10 UNK        -0.1800 
     24 N          -1.3453  -21.8939  -42.6557 N.am      10 UNK        -0.5000 
     25 C          -2.5675  -21.8044  -43.2005 C.2       9 UNK         0.5000 
     26 O          -3.0684  -22.6832  -43.9028 O.2       9 UNK        -0.5000 
     27 CA         -3.3391  -20.4944  -42.9525 C.3       9 UNK         0.1400 
     28 CB         -4.0535  -20.5340  -41.5937 C.3       9 UNK        -0.1800 
     29 N          -2.4777  -19.3116  -43.0133 N.am      9 UNK        -0.5000 
     30 C          -1.8710  -18.8762  -44.1265 C.2       8 UNK         0.5000 
     31 O          -1.9983  -19.4113  -45.2278 O.2       8 UNK        -0.5000 
     32 CA         -0.9090  -17.6828  -43.9724 C.3       8 UNK         0.1400 
     33 CB         -1.6681  -16.3523  -44.0653 C.3       8 UNK        -0.1800 
     34 N          -0.1219  -17.7114  -42.7336 N.am      8 UNK        -0.5000 
     35 C           0.7006  -18.7107  -42.3750 C.2       7 UNK         0.5000 
     36 O           0.8674  -19.7144  -43.0649 O.2       7 UNK        -0.5000 
     37 CA          1.4573  -18.6081  -41.0372 C.3       7 UNK         0.1400 
     38 CB          2.9755  -18.7166  -41.2534 C.3       7 UNK        -0.1800 
     39 N           1.1556  -17.3841  -40.2958 N.am      7 UNK        -0.5000 
     40 C           0.1031  -17.2351  -39.4782 C.2       6 UNK         0.5000 
     41 O          -0.7170  -18.1277  -39.2606 O.2       6 UNK        -0.5000 
     42 CA         -0.0844  -15.8609  -38.8022 C.3       6 UNK         0.1400 
     43 CB          0.4382  -15.8981  -37.3581 C.3       6 UNK        -0.1800 
     44 N           0.5625  -14.7545  -39.5116 N.am      6 UNK        -0.5000 
     45 C           0.2288  -14.3287  -40.7368 C.2       5 UNK         0.5000 
     46 O          -0.6819  -14.8273  -41.3991 O.2       5 UNK        -0.5000 
     47 CA          1.0651  -13.1852  -41.3486 C.3       5 UNK         0.1400 
     48 CB          2.1193  -12.5825  -40.3929 C.3       5 UNK        -0.1800 
     49 N           1.6974  -13.5943  -42.6051 N.am      5 UNK        -0.5000 
     50 C           2.5174  -14.6398  -42.7994 C.2       4 UNK         0.5000 
     51 O           2.8602  -15.4070  -41.8991 O.2       4 UNK        -0.5000 
     52 CA          3.0478  -14.8807  -44.2293 C.3       4 UNK         0.1400 
     53 CB          2.4427  -16.1586  -44.8289 C.3       4 UNK        -0.1800 
     54 N           2.7785  -13.7631  -45.1362 N.am      4 UNK        -0.5000 
     55 C           3.5068  -12.6377  -45.1888 C.2       3 UNK         0.5000 
     56 O           4.5355  -12.4624  -44.5349 O.2       3 UNK        -0.5000 
     57 CA          2.9944  -11.5035  -46.1023 C.3       3 UNK         0.1400 
     58 CB          3.7242  -11.5334  -47.4539 C.3       3 UNK        -0.1800 
     59 N           1.5502  -11.5406  -46.3453 N.am      3 UNK        -0.5000 
     60 C           0.5977  -11.4385  -45.4075 C.2       2 UNK         0.5000 
     61 O           0.8338  -11.2385  -44.2163 O.2       2 UNK        -0.5000 
     62 CA         -0.8605  -11.6433  -45.8616 C.3       2 UNK         0.1400 
     63 CB         -1.5649  -10.2882  -46.0258 C.3       2 UNK        -0.1800 
     64 N          -1.0146  -12.4142  -47.1008 N.am      2 UNK        -0.5000 
     65 C          -0.6153  -13.6803  -47.2880 C.2       1 UNK         0.5000 
     66 O           0.0289  -14.3271  -46.4588 O.2       1 UNK        -0.5000 
     67 C          -0.3886  -22.1282  -47.2111 C.2       11 UNK         0.5000 
     68 O          -0.1033  -22.9344  -48.0959 O.2       11 UNK        -0.5000 
     69 N          -1.6339  -21.6951  -46.9627 N.am      12 UNK        -0.5000 
     70 CA         -2.8293  -22.0981  -47.7021 C.3       12 UNK         0.1400 
     71 CB         -4.0482  -21.3371  -47.1583 C.3       12 UNK        -0.1800 
     72 C          -3.0754  -23.6147  -47.6817 C.2       12 UNK         0.5000 
     73 O          -3.3600  -24.1922  -48.7306 O.2       12 UNK        -0.5000 
     74 N          -2.9245  -24.2317  -46.5023 N.am      13 UNK        -0.5000 
     75 CA         -3.0430  -25.6759  -46.3084 C.3       13 UNK         0.1400 
     76 CB         -3.0317  -25.9891  -44.8044 C.3       13 UNK        -0.1800 
     77 C          -1.9491  -26.4773  -47.0401 C.2       13 UNK         0.5000 
     78 O          -2.2503  -27.5244  -47.6145 O.2       13 UNK        -0.5000 
     79 N          -0.7062  -25.9795  -47.0018 N.am      14 UNK        -0.5000 
     80 CA          0.4571  -26.6205  -47.6092 C.3       14 UNK         0.1400 
     81 CB          1.7413  -26.0466  -46.9892 C.3       14 UNK        -0.1800 
     82 C           0.4890  -26.4848  -49.1407 C.2       14 UNK         0.5000 
     83 O           0.6799  -27.4863  -49.8322 O.2       14 UNK        -0.5000 
     84 N           0.3408  -25.2518  -49.6427 N.am      15 UNK        -0.5000 
     85 CA          0.5281  -24.9271  -51.0572 C.3       15 UNK         0.1400 
     86 CB          0.9517  -23.4603  -51.1916 C.3       15 UNK        -0.1800 
     87 C          -0.7107  -25.1994  -51.9229 C.2       15 UNK         0.5000 
     88 O          -0.5574  -25.4304  -53.1229 O.2       15 UNK        -0.5000 
     89 N          -1.9055  -25.1432  -51.3184 N.am      16 UNK        -0.5000 
     90 CA         -3.2375  -25.3803  -51.8904 C.3       16 UNK         0.1400 
     91 CB         -3.3668  -26.8210  -52.4197 C.3       16 UNK        -0.1800 
     92 C          -3.7087  -24.3617  -52.9498 C.2       16 UNK         0.5000 
     93 O          -4.8965  -24.0379  -52.9641 O.2       16 UNK        -0.5000 
     94 N          -2.8105  -23.8712  -53.8117 N.am      17 UNK        -0.5000 
     95 CA         -3.1204  -22.9692  -54.9196 C.3       17 UNK         0.1400 
     96 CB         -3.8056  -23.7472  -56.0632 C.3       17 UNK        -0.1800 
     97 C          -1.8718  -22.1990  -55.3799 C.2       17 UNK         0.5000 
     98 O          -1.5550  -22.1974  -56.5710 O.2       17 UNK        -0.5000 
     99 N          -1.1761  -21.5496  -54.4358 N.am      18 UNK        -0.5000 
    100 CA        -0.0675  -20.6372  -54.7432 C.3       18 UNK         0.1400 
    101 CB         0.7779  -20.3857  -53.4875 C.3       18 UNK        -0.1800 
    102 C         -0.5598  -19.3039  -55.3363 C.2       18 UNK         0.5000 
    103 O          0.0240  -18.8127  -56.3032 O.2       18 UNK        -0.5000 
    104 N         -1.6359  -18.7621  -54.7577 N.am      19 UNK        -0.5000 
    105 CA        -2.3297  -17.5443  -55.1627 C.3       19 UNK         0.1400 
    106 CB        -1.4855  -16.2965  -54.8372 C.3       19 UNK        -0.1800 
    107 C         -3.6736  -17.5064  -54.4213 C.2       19 UNK         0.5000 
    108 O         -3.9161  -18.3507  -53.5569 O.2       19 UNK        -0.5000 
    109 N         -4.5239  -16.5307  -54.7619 N.am      20 UNK        -0.5000 
    110 CA        -5.8506  -16.2504  -54.1939 C.3       20 UNK         0.1400 
    111 CB        -5.7736  -15.9485  -52.6829 C.3       20 UNK        -0.1800 
    112 C         -6.9064  -17.3307  -54.5019 C.2       20 UNK         0.5000 
    113 O         -7.9381  -17.0073  -55.0922 O.2       20 UNK        -0.5000 
    114 N         -6.6270  -18.5836  -54.1262 N.am      21 UNK        -0.5000 
    115 CA        -7.4485  -19.7559  -54.4042 C.3       21 UNK         0.1400 
    116 CB        -8.7812  -19.7361  -53.6303 C.3       21 UNK        -0.1800 
    117 C         -6.6530  -21.0734  -54.2804 C.2       21 UNK         0.5000 
    118 O         -6.5992  -21.7967  -55.2730 O.2       21 UNK        -0.5000 
    119 N         -5.9946  -21.4195  -53.1608 N.am      22 UNK        -0.5000 
    120 CA        -6.0355  -20.8433  -51.8054 C.3       22 UNK         0.1400 
    121 C         -7.3257  -21.2046  -51.0121 C.2       22 UNK         0.5000 
    122 N         -8.0875  -22.2175  -51.4078 N.am      22 UNK        -0.7600 
    123 O         -7.6433  -20.5465  -50.0262 O.2       22 UNK        -0.5000 
    124 C124       -4.8110  -21.2904  -50.9591 C.3       23 UNK        -0.0398 
    125 S125       -3.1754  -20.8106  -51.6182 S.3       23 UNK        -0.2404 
    126 C126       -2.8351  -19.3653  -50.5648 C.3       23 UNK        -0.0205 
    127 H127       -3.8665  -17.6559  -48.4018 H         1 UNK         0.0600 
    128 H128       -3.4560  -17.5355  -46.6937 H         1 UNK         0.0600 
    129 H129       -2.2238  -18.0373  -47.8489 H         1 UNK         0.0600 
    130 H130       -0.9182  -16.4184  -48.7472 H         1 UNK         0.3000 
    131 H131       -1.7423  -13.6982  -49.1125 H         1 UNK         0.0600 
    132 H132        1.0087  -15.0346  -49.2527 H         1 UNK         0.0800 
    133 H133        0.7676  -13.3348  -49.5638 H         1 UNK         0.0800 
    134 H134        1.8680  -15.8322  -51.4937 H         1 UNK         0.0800 
    135 H135        0.8112  -16.1962  -52.8295 H         1 UNK         0.0800 
    136 H136       -1.6984  -17.1265  -51.6358 H         1 UNK         0.1150 
    137 H137       -0.7307  -20.7147  -49.5284 H         1 UNK         0.1150 
    138 H138        2.3492  -17.8776  -50.4181 H         1 UNK         0.1150 
    139 H139        1.5992  -21.3389  -49.2485 H         1 UNK         0.0800 
    140 H140        2.8392  -20.3338  -49.9263 H         1 UNK         0.0800 
    141 H141        0.1672  -19.5637  -47.0244 H         1 UNK         0.0800 
    142 H142        1.2152  -19.5602  -45.6526 H         1 UNK         0.0800 
    143 H143        1.6188  -22.1761  -46.4797 H         1 UNK         0.0600 
    144 H144        0.3543  -21.0128  -44.2745 H         1 UNK         0.3000 
    145 H145       -0.9703  -23.9383  -42.7185 H         1 UNK         0.0600 
    146 H146        0.3599  -22.9756  -40.8482 H         1 UNK         0.0600 
    147 H147        1.3951  -23.8083  -41.9972 H         1 UNK         0.0600 
    148 H148        1.3365  -22.0530  -41.9892 H         1 UNK         0.0600 
    149 H149       -0.9862  -21.1061  -42.1378 H         1 UNK         0.3000 
    150 H150       -4.0965  -20.4025  -43.7339 H         1 UNK         0.0600 
    151 H151       -4.7128  -21.4004  -41.5248 H         1 UNK         0.0600 
    152 H152       -4.6688  -19.6463  -41.4463 H         1 UNK         0.0600 
    153 H153       -3.3454  -20.5929  -40.7661 H         1 UNK         0.0600 
    154 H154       -2.3078  -18.8215  -42.1470 H         1 UNK         0.3000 
    155 H155       -0.2118  -17.7319  -44.8097 H         1 UNK         0.0600 
    156 H156       -2.3510  -16.2186  -43.2257 H         1 UNK         0.0600 
    157 H157       -2.2573  -16.2959  -44.9795 H         1 UNK         0.0600 
    158 H158       -0.9803  -15.5064  -44.0757 H         1 UNK         0.0600 
    159 H159       -0.2106  -16.9076  -42.1240 H         1 UNK         0.3000 
    160 H160        1.1537  -19.4682  -40.4369 H         1 UNK         0.0600 
    161 H161        3.3485  -17.9451  -41.9259 H         1 UNK         0.0600 
    162 H162        3.2381  -19.6805  -41.6912 H         1 UNK         0.0600 
    163 H163        3.5167  -18.6322  -40.3109 H         1 UNK         0.0600 
    164 H164        1.7614  -16.5910  -40.4773 H         1 UNK         0.3000 
    165 H165       -1.1569  -15.6574  -38.7727 H         1 UNK         0.0600 
    166 H166        0.2359  -14.9603  -36.8402 H         1 UNK         0.0600 
    167 H167       -0.0445  -16.6928  -36.7876 H         1 UNK         0.0600 
    168 H168        1.5137  -16.0766  -37.3243 H         1 UNK         0.0600 
    169 H169        1.3390  -14.3103  -39.0435 H         1 UNK         0.3000 
    170 H170        0.3577  -12.3944  -41.6020 H         1 UNK         0.0600 
    171 H171        1.6551  -12.1945  -39.4853 H         1 UNK         0.0600 
    172 H172        2.8769  -13.3102  -40.0996 H         1 UNK         0.0600 
    173 H173        2.6354  -11.7474  -40.8669 H         1 UNK         0.0600 
    174 H174        1.4736  -13.0067  -43.3996 H         1 UNK         0.3000 
    175 H175        4.1274  -15.0254  -44.1531 H         1 UNK         0.0600 
    176 H176        1.3643  -16.0655  -44.9437 H         1 UNK         0.0600 
    177 H177        2.8649  -16.3746  -45.8104 H         1 UNK         0.0600 
    178 H178        2.6352  -17.0248  -44.1952 H         1 UNK         0.0600 
    179 H179        1.9333  -13.8330  -45.6931 H         1 UNK         0.3000 
    180 H180        3.2235  -10.5574  -45.6077 H         1 UNK         0.0600 
    181 H181        3.5091  -12.4490  -48.0066 H         1 UNK         0.0600 
    182 H182        4.8050  -11.4794  -47.3162 H         1 UNK         0.0600 
    183 H183        3.4356  -10.6874  -48.0780 H         1 UNK         0.0600 
    184 H184        1.2581  -11.6998  -47.2975 H         1 UNK         0.3000 
    185 H185       -1.3667  -12.1977  -45.0684 H         1 UNK         0.0600 
    186 H186       -1.4959   -9.6975  -45.1111 H         1 UNK         0.0600 
    187 H187       -1.1223   -9.6998  -46.8305 H         1 UNK         0.0600 
    188 H188       -2.6246  -10.4176  -46.2464 H         1 UNK         0.0600 
    189 H189       -1.5290  -11.9559  -47.8395 H         1 UNK         0.3000 
    190 H190       -1.7730  -21.0076  -46.2258 H         1 UNK         0.3000 
    191 H191       -2.6821  -21.8140  -48.7442 H         1 UNK         0.0600 
    192 H192       -4.2026  -21.5320  -46.0972 H         1 UNK         0.0600 
    193 H193       -4.9612  -21.6299  -47.6777 H         1 UNK         0.0600 
    194 H194       -3.9304  -20.2609  -47.2823 H         1 UNK         0.0600 
    195 H195       -2.7252  -23.6737  -45.6785 H         1 UNK         0.3000 
    196 H196       -4.0083  -25.9882  -46.7121 H         1 UNK         0.0600 
    197 H197       -3.1421  -27.0595  -44.6267 H         1 UNK         0.0600 
    198 H198       -3.8522  -25.4872  -44.2912 H         1 UNK         0.0600 
    199 H199       -2.1004  -25.6715  -44.3343 H         1 UNK         0.0600 
    200 H200       -0.5307  -25.1306  -46.4724 H         1 UNK         0.3000 
    201 H201        0.4231  -27.6859  -47.3714 H         1 UNK         0.0600 
    202 H202        1.7760  -26.2328  -45.9157 H         1 UNK         0.0600 
    203 H203        1.8175  -24.9693  -47.1427 H         1 UNK         0.0600 
    204 H204        2.6281  -26.5059  -47.4277 H         1 UNK         0.0600 
    205 H205        0.1742  -24.4693  -49.0109 H         1 UNK         0.3000 
    206 H206        1.3419  -25.5397  -51.4517 H         1 UNK         0.0600 
    207 H207        1.8552  -23.2577  -50.6173 H         1 UNK         0.0600 
    208 H208        1.1716  -23.2301  -52.2328 H         1 UNK         0.0600 
    209 H209        0.1702  -22.7771  -50.8563 H         1 UNK         0.0600 
    210 H210       -1.9176  -24.9014  -50.3347 H         1 UNK         0.3000 
    211 H211       -3.9315  -25.2864  -51.0546 H         1 UNK         0.0600 
    212 H212       -2.7209  -27.0007  -53.2794 H         1 UNK         0.0600 
    213 H213       -4.3903  -27.0280  -52.7347 H         1 UNK         0.0600 
    214 H214       -3.1109  -27.5478  -51.6486 H         1 UNK         0.0600 
    215 H215       -1.8562  -24.2180  -53.7531 H         1 UNK         0.3000 
    216 H216       -3.8136  -22.2066  -54.5656 H         1 UNK         0.0600 
    217 H217       -4.0518  -23.0864  -56.8952 H         1 UNK         0.0600 
    218 H218       -4.7407  -24.2001  -55.7339 H         1 UNK         0.0600 
    219 H219       -3.1644  -24.5414  -56.4468 H         1 UNK         0.0600 
    220 H220       -1.4990  -21.5818  -53.4782 H         1 UNK         0.3000 
    221 H221        0.5797  -21.1063  -55.4876 H         1 UNK         0.0600 
    222 H222        1.3664  -21.2619  -53.2265 H         1 UNK         0.0600 
    223 H223        1.4819  -19.5660  -53.6378 H         1 UNK         0.0600 
    224 H224        0.1539  -20.1281  -52.6350 H         1 UNK         0.0600 
    225 H225       -2.0857  -19.2353  -53.9820 H         1 UNK         0.3000 
    226 H226       -2.5257  -17.5922  -56.2355 H         1 UNK         0.0600 
    227 H227       -0.4917  -16.3483  -55.2807 H         1 UNK         0.0600 
    228 H228       -1.9576  -15.3916  -55.2205 H         1 UNK         0.0600 
    229 H229       -1.3669  -16.1677  -53.7627 H         1 UNK         0.0600 
    230 H230       -4.2452  -15.9044  -55.5043 H         1 UNK         0.3000 
    231 H231       -6.1888  -15.3360  -54.6842 H         1 UNK         0.0600 
    232 H232       -6.7454  -15.6321  -52.3023 H         1 UNK         0.0600 
    233 H233       -5.0668  -15.1444  -52.4781 H         1 UNK         0.0600 
    234 H234       -5.4673  -16.8179  -52.1006 H         1 UNK         0.0600 
    235 H235       -5.7069  -18.7570  -53.7242 H         1 UNK         0.3000 
    236 H236       -7.7160  -19.6949  -55.4618 H         1 UNK         0.0600 
    237 H237       -8.6563  -19.3858  -52.6071 H         1 UNK         0.0600 
    238 H238       -9.4963  -19.0675  -54.1093 H         1 UNK         0.0600 
    239 H239       -9.2423  -20.7239  -53.6002 H         1 UNK         0.0600 
    240 H240       -5.5098  -22.3126  -53.1878 H         1 UNK         0.3000 
    241 H241       -6.0027  -19.7571  -51.8800 H         1 UNK         0.0600 
    242 H242       -8.9219  -22.4428  -50.8894 H         1 UNK         0.3800 
    243 H243       -7.8233  -22.7804  -52.2013 H         1 UNK         0.3800 
    244 H244       -4.9006  -20.8976  -49.9464 H         1 UNK         0.0800 
    245 H245       -4.8099  -22.3752  -50.8418 H         1 UNK         0.0800 
    246 H246       -3.1140  -19.5938  -49.5380 H         1 UNK         0.0800 
    247 H247       -3.4707  -18.5367  -50.8807 H         1 UNK         0.0800 
@<TRIPOS>BOND
     1    1    2 1    
     2    1  127 1    
     3    1  128 1    
     4    1  129 1    
     5    2    3 2    
     6    2    4 am   BACKBONE|DICT|INTERRES
     7    4    5 1    
     8    4  130 1    
     9    5    6 1    
    10    5   65 1    
    11    5  131 1    
    12    6    7 1    
    13    6  132 1    
    14    6  133 1    
    15    7    8 1    
    16    8    9 1    
    17    8  134 1    
    18    8  135 1    
    19    9   10 ar   
    20    9   14 ar   
    21   10   11 ar   
    22   10  136 1    
    23   11   12 ar   
    24   11  126 1    
    25   12   13 ar   
    26   12  137 1    
    27   13   14 ar   
    28   13   15 1    
    29   14  138 1    
    30   15   16 1    
    31   15  139 1    
    32   15  140 1    
    33   16   17 1    
    34   17   18 1    
    35   17  141 1    
    36   17  142 1    
    37   18   19 1    
    38   18   67 1    
    39   18  143 1    
    40   19   20 am   BACKBONE|DICT|INTERRES
    41   19  144 1    
    42   20   21 2    
    43   20   22 1    
    44   22   23 1    
    45   22   24 1    
    46   22  145 1    
    47   23  146 1    
    48   23  147 1    
    49   23  148 1    
    50   24   25 am   BACKBONE|DICT|INTERRES
    51   24  149 1    
    52   25   26 2    
    53   25   27 1    
    54   27   28 1    
    55   27   29 1    
    56   27  150 1    
    57   28  151 1    
    58   28  152 1    
    59   28  153 1    
    60   29   30 am   BACKBONE|DICT|INTERRES
    61   29  154 1    
    62   30   31 2    
    63   30   32 1    
    64   32   33 1    
    65   32   34 1    
    66   32  155 1    
    67   33  156 1    
    68   33  157 1    
    69   33  158 1    
    70   34   35 am   BACKBONE|DICT|INTERRES
    71   34  159 1    
    72   35   36 2    
    73   35   37 1    
    74   37   38 1    
    75   37   39 1    
    76   37  160 1    
    77   38  161 1    
    78   38  162 1    
    79   38  163 1    
    80   39   40 am   BACKBONE|DICT|INTERRES
    81   39  164 1    
    82   40   41 2    
    83   40   42 1    
    84   42   43 1    
    85   42   44 1    
    86   42  165 1    
    87   43  166 1    
    88   43  167 1    
    89   43  168 1    
    90   44   45 am   BACKBONE|DICT|INTERRES
    91   44  169 1    
    92   45   46 2    
    93   45   47 1    
    94   47   48 1    
    95   47   49 1    
    96   47  170 1    
    97   48  171 1    
    98   48  172 1    
    99   48  173 1    
   100   49   50 am   BACKBONE|DICT|INTERRES
   101   49  174 1    
   102   50   51 2    
   103   50   52 1    
   104   52   53 1    
   105   52   54 1    
   106   52  175 1    
   107   53  176 1    
   108   53  177 1    
   109   53  178 1    
   110   54   55 am   BACKBONE|DICT|INTERRES
   111   54  179 1    
   112   55   56 2    
   113   55   57 1    
   114   57   58 1    
   115   57   59 1    
   116   57  180 1    
   117   58  181 1    
   118   58  182 1    
   119   58  183 1    
   120   59   60 am   BACKBONE|DICT|INTERRES
   121   59  184 1    
   122   60   61 2    
   123   60   62 1    
   124   62   63 1    
   125   62   64 1    
   126   62  185 1    
   127   63  186 1    
   128   63  187 1    
   129   63  188 1    
   130   64   65 am   BACKBONE|DICT|INTERRES
   131   64  189 1    
   132   65   66 2    
   133   67   68 2    
   134   67   69 am   BACKBONE|DICT|INTERRES
   135   69   70 1    
   136   69  190 1    
   137   70   71 1    
   138   70   72 1    
   139   70  191 1    
   140   71  192 1    
   141   71  193 1    
   142   71  194 1    
   143   72   73 2    
   144   72   74 am   BACKBONE|DICT|INTERRES
   145   74   75 1    
   146   74  195 1    
   147   75   76 1    
   148   75   77 1    
   149   75  196 1    
   150   76  197 1    
   151   76  198 1    
   152   76  199 1    
   153   77   78 2    
   154   77   79 am   BACKBONE|DICT|INTERRES
   155   79   80 1    
   156   79  200 1    
   157   80   81 1    
   158   80   82 1    
   159   80  201 1    
   160   81  202 1    
   161   81  203 1    
   162   81  204 1    
   163   82   83 2    
   164   82   84 am   BACKBONE|DICT|INTERRES
   165   84   85 1    
   166   84  205 1    
   167   85   86 1    
   168   85   87 1    
   169   85  206 1    
   170   86  207 1    
   171   86  208 1    
   172   86  209 1    
   173   87   88 2    
   174   87   89 am   BACKBONE|DICT|INTERRES
   175   89   90 1    
   176   89  210 1    
   177   90   91 1    
   178   90   92 1    
   179   90  211 1    
   180   91  212 1    
   181   91  213 1    
   182   91  214 1    
   183   92   93 2    
   184   92   94 am   BACKBONE|DICT|INTERRES
   185   94   95 1    
   186   94  215 1    
   187   95   96 1    
   188   95   97 1    
   189   95  216 1    
   190   96  217 1    
   191   96  218 1    
   192   96  219 1    
   193   97   98 2    
   194   97   99 am   BACKBONE|DICT|INTERRES
   195   99  100 1    
   196   99  220 1    
   197  100  101 1    
   198  100  102 1    
   199  100  221 1    
   200  101  222 1    
   201  101  223 1    
   202  101  224 1    
   203  102  103 2    
   204  102  104 am   BACKBONE|DICT|INTERRES
   205  104  105 1    
   206  104  225 1    
   207  105  106 1    
   208  105  107 1    
   209  105  226 1    
   210  106  227 1    
   211  106  228 1    
   212  106  229 1    
   213  107  108 2    
   214  107  109 am   BACKBONE|DICT|INTERRES
   215  109  110 1    
   216  109  230 1    
   217  110  111 1    
   218  110  112 1    
   219  110  231 1    
   220  111  232 1    
   221  111  233 1    
   222  111  234 1    
   223  112  113 2    
   224  112  114 am   BACKBONE|DICT|INTERRES
   225  114  115 1    
   226  114  235 1    
   227  115  116 1    
   228  115  117 1    
   229  115  236 1    
   230  116  237 1    
   231  116  238 1    
   232  116  239 1    
   233  117  118 2    
   234  117  119 am   BACKBONE|DICT|INTERRES
   235  119  120 1    
   236  119  240 1    
   237  120  121 1    
   238  120  124 1    
   239  120  241 1    
   240  121  122 am   BACKBONE|DICT|INTERRES
   241  121  123 2    
   242  122  242 1    
   243  122  243 1    
   244  124  125 1    
   245  124  244 1    
   246  124  245 1    
   247  125  126 1    
   248  126  246 1    
   249  126  247 1    
@<TRIPOS>SUBSTRUCTURE
     1 UNK         1 GROUP             0       ****    0 ROOT    
