@<TRIPOS>MOLECULE
3R540
247   249    1
SMALL
USER_CHARGES


@<TRIPOS>ATOM
      1 CA          5.2641  -15.6889  -48.7769 C.3       0 UNK        -0.1800 
      2 C           4.2880  -14.8765  -47.9392 C.2       0 UNK         0.5000 
      3 O           3.9868  -15.2530  -46.8085 O.2       0 UNK        -0.5000 
      4 N           3.8064  -13.7488  -48.4742 N.am      1 UNK        -0.5000 
      5 CA          2.7948  -12.8677  -47.8706 C.3       1 UNK         0.1400 
      6 C6          1.9965  -12.0878  -48.9519 C.3       23 UNK        -0.0398 
      7 S7          1.2596  -13.1801  -50.2186 S.3       23 UNK        -0.2404 
      8 C8         -0.3151  -13.5953  -49.4127 C.3       23 UNK        -0.0205 
      9 C9         -0.8477  -14.9490  -49.8531 C.ar      23 UNK        -0.0193 
     10 C10        -2.0463  -15.0432  -50.5650 C.ar      23 UNK        -0.1150 
     11 C11        -2.5608  -16.2921  -50.9266 C.ar      23 UNK        -0.0193 
     12 C12        -1.8648  -17.4525  -50.5746 C.ar      23 UNK        -0.1150 
     13 C13        -0.6626  -17.3709  -49.8645 C.ar      23 UNK        -0.0193 
     14 C14        -0.1594  -16.1161  -49.5090 C.ar      23 UNK        -0.1150 
     15 C15         0.0929  -18.6378  -49.4858 C.3       23 UNK        -0.0205 
     16 S16         0.3370  -18.8092  -47.6866 S.3       23 UNK        -0.2404 
     17 C17        -1.3789  -18.9286  -47.0814 C.3       23 UNK        -0.0398 
     18 CA         -1.8761  -20.3844  -46.9809 C.3       11 UNK         0.1400 
     19 N          -1.0935  -21.1670  -46.0266 N.am      11 UNK        -0.5000 
     20 C          -0.9323  -22.4943  -46.0625 C.2       10 UNK         0.5000 
     21 O          -1.4457  -23.2177  -46.9200 O.2       10 UNK        -0.5000 
     22 CA         -0.0732  -23.1104  -44.9366 C.3       10 UNK         0.1400 
     23 CB          0.6987  -24.3624  -45.3974 C.3       10 UNK        -0.1800 
     24 N           0.8185  -22.1419  -44.2812 N.am      10 UNK        -0.5000 
     25 C           1.8577  -21.4799  -44.8133 C.2       9 UNK         0.5000 
     26 O           2.2654  -21.6611  -45.9593 O.2       9 UNK        -0.5000 
     27 CA          2.5422  -20.4257  -43.9146 C.3       9 UNK         0.1400 
     28 CB          3.4575  -19.4781  -44.7100 C.3       9 UNK        -0.1800 
     29 N           1.5847  -19.6326  -43.1306 N.am      9 UNK        -0.5000 
     30 C           1.0439  -20.0399  -41.9731 C.2       8 UNK         0.5000 
     31 O           1.2510  -21.1566  -41.4970 O.2       8 UNK        -0.5000 
     32 CA          0.1094  -19.0820  -41.2138 C.3       8 UNK         0.1400 
     33 CB          0.8815  -18.3526  -40.1034 C.3       8 UNK        -0.1800 
     34 N          -0.5970  -18.0955  -42.0305 N.am      8 UNK        -0.5000 
     35 C          -1.5493  -18.3811  -42.9303 C.2       7 UNK         0.5000 
     36 O          -1.7802  -19.5154  -43.3545 O.2       7 UNK        -0.5000 
     37 CA         -2.3903  -17.1965  -43.4337 C.3       7 UNK         0.1400 
     38 CB         -3.2916  -16.6483  -42.3152 C.3       7 UNK        -0.1800 
     39 N          -1.5133  -16.1327  -43.9042 N.am      7 UNK        -0.5000 
     40 C          -1.4398  -15.6942  -45.1665 C.2       6 UNK         0.5000 
     41 O          -2.2518  -15.9928  -46.0417 O.2       6 UNK        -0.5000 
     42 CA         -0.2558  -14.7712  -45.5249 C.3       6 UNK         0.1400 
     43 CB         -0.7563  -13.3281  -45.6952 C.3       6 UNK        -0.1800 
     44 N           0.8402  -14.7840  -44.5494 N.am      6 UNK        -0.5000 
     45 C           1.5621  -15.8631  -44.1995 C.2       5 UNK         0.5000 
     46 O           1.4101  -16.9766  -44.6977 O.2       5 UNK        -0.5000 
     47 CA          2.5424  -15.7111  -43.0194 C.3       5 UNK         0.1400 
     48 CB          3.9762  -15.5176  -43.5249 C.3       5 UNK        -0.1800 
     49 N           2.1947  -14.6238  -42.1006 N.am      5 UNK        -0.5000 
     50 C           1.0502  -14.5439  -41.4029 C.2       4 UNK         0.5000 
     51 O           0.1728  -15.4095  -41.4387 O.2       4 UNK        -0.5000 
     52 CA          0.8142  -13.2661  -40.5732 C.3       4 UNK         0.1400 
     53 CB          1.2036  -13.5049  -39.1072 C.3       4 UNK        -0.1800 
     54 N           1.5228  -12.0826  -41.0721 N.am      4 UNK        -0.5000 
     55 C           1.3784  -11.5453  -42.2920 C.2       3 UNK         0.5000 
     56 O           0.6230  -12.0026  -43.1491 O.2       3 UNK        -0.5000 
     57 CA          2.2491  -10.3233  -42.6468 C.3       3 UNK         0.1400 
     58 CB          2.9591   -9.6756  -41.4361 C.3       3 UNK        -0.1800 
     59 N           3.2172  -10.6532  -43.6975 N.am      3 UNK        -0.5000 
     60 C           4.1621  -11.6022  -43.6538 C.2       2 UNK         0.5000 
     61 O           4.3356  -12.3552  -42.6926 O.2       2 UNK        -0.5000 
     62 CA          5.0325  -11.7451  -44.9166 C.3       2 UNK         0.1400 
     63 CB          6.3562  -12.4808  -44.6410 C.3       2 UNK        -0.1800 
     64 N           4.3142  -12.4538  -45.9735 N.am      2 UNK        -0.5000 
     65 C           3.3935  -11.9294  -46.7912 C.2       1 UNK         0.5000 
     66 O           3.0346  -10.7521  -46.7229 O.2       1 UNK        -0.5000 
     67 C          -3.3713  -20.4279  -46.6220 C.2       11 UNK         0.5000 
     68 O          -4.2009  -20.5143  -47.5258 O.2       11 UNK        -0.5000 
     69 N          -3.6954  -20.4336  -45.3191 N.am      12 UNK        -0.5000 
     70 CA         -5.0609  -20.5857  -44.8033 C.3       12 UNK         0.1400 
     71 CB         -5.0694  -20.2946  -43.2960 C.3       12 UNK        -0.1800 
     72 C          -5.6574  -21.9783  -45.0874 C.2       12 UNK         0.5000 
     73 O          -6.8686  -22.1010  -45.2696 O.2       12 UNK        -0.5000 
     74 N          -4.7850  -22.9928  -45.1553 N.am      13 UNK        -0.5000 
     75 CA         -5.1101  -24.3588  -45.5693 C.3       13 UNK         0.1400 
     76 CB         -4.0447  -25.3041  -44.9887 C.3       13 UNK        -0.1800 
     77 C          -5.1813  -24.5180  -47.1029 C.2       13 UNK         0.5000 
     78 O          -5.6043  -25.5718  -47.5770 O.2       13 UNK        -0.5000 
     79 N          -4.7183  -23.4973  -47.8419 N.am      14 UNK        -0.5000 
     80 CA         -4.5471  -23.4078  -49.2967 C.3       14 UNK         0.1400 
     81 CB         -5.8890  -23.5704  -50.0384 C.3       14 UNK        -0.1800 
     82 C          -3.4611  -24.3361  -49.8740 C.2       14 UNK         0.5000 
     83 O          -3.2203  -24.2857  -51.0791 O.2       14 UNK        -0.5000 
     84 N          -2.7933  -25.1394  -49.0356 N.am      15 UNK        -0.5000 
     85 CA         -1.7648  -26.1068  -49.4239 C.3       15 UNK         0.1400 
     86 CB         -1.3850  -26.9562  -48.2036 C.3       15 UNK        -0.1800 
     87 C          -0.5206  -25.4487  -50.0456 C.2       15 UNK         0.5000 
     88 O           0.0567  -26.0023  -50.9817 O.2       15 UNK        -0.5000 
     89 N          -0.1764  -24.2450  -49.5666 N.am      16 UNK        -0.5000 
     90 CA          0.8744  -23.3933  -50.1326 C.3       16 UNK         0.1400 
     91 CB          1.1740  -22.2603  -49.1460 C.3       16 UNK        -0.1800 
     92 C           0.5299  -22.8216  -51.5248 C.2       16 UNK         0.5000 
     93 O           1.4331  -22.3892  -52.2406 O.2       16 UNK        -0.5000 
     94 N          -0.7579  -22.8495  -51.8887 N.am      17 UNK        -0.5000 
     95 CA         -1.3004  -22.4637  -53.1892 C.3       17 UNK         0.1400 
     96 CB         -2.3874  -21.3996  -52.9630 C.3       17 UNK        -0.1800 
     97 C          -1.8341  -23.7033  -53.9394 C.2       17 UNK         0.5000 
     98 O          -2.7961  -23.5952  -54.7025 O.2       17 UNK        -0.5000 
     99 N          -1.2209  -24.8705  -53.6800 N.am      18 UNK        -0.5000 
    100 CA        -1.4651  -26.1794  -54.3014 C.3       18 UNK         0.1400 
    101 CB        -1.0133  -26.1539  -55.7764 C.3       18 UNK        -0.1800 
    102 C         -2.9070  -26.7110  -54.1401 C.2       18 UNK         0.5000 
    103 O         -3.3595  -27.5043  -54.9665 O.2       18 UNK        -0.5000 
    104 N         -3.6089  -26.2450  -53.0962 N.am      19 UNK        -0.5000 
    105 CA        -5.0248  -26.4709  -52.7816 C.3       19 UNK         0.1400 
    106 CB        -5.3262  -27.9686  -52.5693 C.3       19 UNK        -0.1800 
    107 C         -6.0045  -25.8019  -53.7713 C.2       19 UNK         0.5000 
    108 O         -7.2120  -26.0180  -53.6577 O.2       19 UNK        -0.5000 
    109 N         -5.4907  -24.9883  -54.7046 N.am      20 UNK        -0.5000 
    110 CA        -6.2809  -24.2398  -55.6808 C.3       20 UNK         0.1400 
    111 CB        -5.4546  -24.0636  -56.9643 C.3       20 UNK        -0.1800 
    112 C         -6.7233  -22.8724  -55.1316 C.2       20 UNK         0.5000 
    113 O         -7.7862  -22.3879  -55.5229 O.2       20 UNK        -0.5000 
    114 N         -5.9041  -22.2938  -54.2375 N.am      21 UNK        -0.5000 
    115 CA        -6.0262  -20.9605  -53.6331 C.3       21 UNK         0.1400 
    116 CB        -7.3512  -20.8214  -52.8529 C.3       21 UNK        -0.1800 
    117 C         -5.8188  -19.8129  -54.6473 C.2       21 UNK         0.5000 
    118 O         -5.6368  -20.0496  -55.8446 O.2       21 UNK        -0.5000 
    119 N         -5.8130  -18.5760  -54.1385 N.am      22 UNK        -0.5000 
    120 CA        -5.7410  -17.3505  -54.9483 C.3       22 UNK         0.1400 
    121 C         -7.0847  -17.0589  -55.6727 C.2       22 UNK         0.5000 
    122 N         -7.0405  -16.5598  -56.9004 N.am      22 UNK        -0.7600 
    123 O         -8.1656  -17.2398  -55.1157 O.2       22 UNK        -0.5000 
    124 C124       -5.3074  -16.1284  -54.1021 C.3       23 UNK        -0.0398 
    125 S125       -3.5976  -16.2794  -53.4807 S.3       23 UNK        -0.2404 
    126 C126       -3.8740  -16.3824  -51.6871 C.3       23 UNK        -0.0205 
    127 H127        4.8709  -16.6924  -48.9393 H         1 UNK         0.0600 
    128 H128        5.4418  -15.2310  -49.7502 H         1 UNK         0.0600 
    129 H129        6.2199  -15.7751  -48.2603 H         1 UNK         0.0600 
    130 H130        4.1098  -13.4792  -49.3991 H         1 UNK         0.3000 
    131 H131        2.0807  -13.5017  -47.3415 H         1 UNK         0.0600 
    132 H132        2.6481  -11.3766  -49.4625 H         1 UNK         0.0800 
    133 H133        1.2014  -11.4945  -48.4961 H         1 UNK         0.0800 
    134 H134       -1.0391  -12.8021  -49.6053 H         1 UNK         0.0800 
    135 H135       -0.1684  -13.6260  -48.3368 H         1 UNK         0.0800 
    136 H136       -2.5859  -14.1454  -50.8322 H         1 UNK         0.1150 
    137 H137       -2.2617  -18.4182  -50.8549 H         1 UNK         0.1150 
    138 H138        0.7663  -16.0483  -48.9542 H         1 UNK         0.1150 
    139 H139       -0.4220  -19.5231  -49.8615 H         1 UNK         0.0800 
    140 H140        1.0696  -18.6231  -49.9711 H         1 UNK         0.0800 
    141 H141       -2.0334  -18.3295  -47.7162 H         1 UNK         0.0800 
    142 H142       -1.4052  -18.4657  -46.0960 H         1 UNK         0.0800 
    143 H143       -1.7754  -20.8386  -47.9689 H         1 UNK         0.0600 
    144 H144       -0.6427  -20.6513  -45.2840 H         1 UNK         0.3000 
    145 H145       -0.7785  -23.4289  -44.1681 H         1 UNK         0.0600 
    146 H146        1.3316  -24.7524  -44.6003 H         1 UNK         0.0600 
    147 H147        0.0105  -25.1585  -45.6787 H         1 UNK         0.0600 
    148 H148        1.3324  -24.1577  -46.2604 H         1 UNK         0.0600 
    149 H149        0.6043  -21.9347  -43.3120 H         1 UNK         0.3000 
    150 H150        3.1837  -20.9781  -43.2248 H         1 UNK         0.0600 
    151 H151        4.2673  -20.0282  -45.1906 H         1 UNK         0.0600 
    152 H152        3.9153  -18.7333  -44.0599 H         1 UNK         0.0600 
    153 H153        2.9107  -18.9545  -45.4949 H         1 UNK         0.0600 
    154 H154        1.3330  -18.7273  -43.5125 H         1 UNK         0.3000 
    155 H155       -0.6517  -19.7013  -40.7345 H         1 UNK         0.0600 
    156 H156        1.6568  -17.7033  -40.5095 H         1 UNK         0.0600 
    157 H157        1.3676  -19.0623  -39.4326 H         1 UNK         0.0600 
    158 H158        0.2156  -17.7385  -39.4968 H         1 UNK         0.0600 
    159 H159       -0.4475  -17.1261  -41.7629 H         1 UNK         0.3000 
    160 H160       -3.0289  -17.5642  -44.2396 H         1 UNK         0.0600 
    161 H161       -3.9630  -15.8799  -42.6984 H         1 UNK         0.0600 
    162 H162       -2.7103  -16.2062  -41.5050 H         1 UNK         0.0600 
    163 H163       -3.9101  -17.4344  -41.8816 H         1 UNK         0.0600 
    164 H164       -0.8106  -15.8116  -43.2492 H         1 UNK         0.3000 
    165 H165        0.1497  -15.1215  -46.4758 H         1 UNK         0.0600 
    166 H166        0.0508  -12.6534  -45.9811 H         1 UNK         0.0600 
    167 H167       -1.5265  -13.2668  -46.4648 H         1 UNK         0.0600 
    168 H168       -1.1998  -12.9501  -44.7737 H         1 UNK         0.0600 
    169 H169        0.9884  -13.9186  -44.0425 H         1 UNK         0.3000 
    170 H170        2.5120  -16.6424  -42.4520 H         1 UNK         0.0600 
    171 H171        4.2888  -16.3549  -44.1493 H         1 UNK         0.0600 
    172 H172        4.0596  -14.6178  -44.1307 H         1 UNK         0.0600 
    173 H173        4.6850  -15.4391  -42.7006 H         1 UNK         0.0600 
    174 H174        2.8533  -13.8549  -42.0432 H         1 UNK         0.3000 
    175 H175       -0.2552  -13.0500  -40.6132 H         1 UNK         0.0600 
    176 H176        0.9508  -12.6454  -38.4861 H         1 UNK         0.0600 
    177 H177        0.6749  -14.3668  -38.6975 H         1 UNK         0.0600 
    178 H178        2.2725  -13.6947  -39.0013 H         1 UNK         0.0600 
    179 H179        2.1945  -11.6638  -40.4453 H         1 UNK         0.3000 
    180 H180        1.5719   -9.5796  -43.0689 H         1 UNK         0.0600 
    181 H181        3.6854  -10.3433  -40.9715 H         1 UNK         0.0600 
    182 H182        2.2402   -9.3793  -40.6711 H         1 UNK         0.0600 
    183 H183        3.4918   -8.7739  -41.7382 H         1 UNK         0.0600 
    184 H184        3.0941  -10.1638  -44.5761 H         1 UNK         0.3000 
    185 H185        5.2816  -10.7409  -45.2661 H         1 UNK         0.0600 
    186 H186        6.1941  -13.5123  -44.3274 H         1 UNK         0.0600 
    187 H187        6.9873  -12.4988  -45.5297 H         1 UNK         0.0600 
    188 H188        6.9213  -11.9831  -43.8520 H         1 UNK         0.0600 
    189 H189        4.5029  -13.4459  -46.0687 H         1 UNK         0.3000 
    190 H190       -2.9589  -20.3251  -44.6265 H         1 UNK         0.3000 
    191 H191       -5.6959  -19.8479  -45.2984 H         1 UNK         0.0600 
    192 H192       -4.7645  -19.2690  -43.0958 H         1 UNK         0.0600 
    193 H193       -4.3955  -20.9582  -42.7525 H         1 UNK         0.0600 
    194 H194       -6.0682  -20.4219  -42.8765 H         1 UNK         0.0600 
    195 H195       -3.8119  -22.7937  -44.9791 H         1 UNK         0.3000 
    196 H196       -6.0829  -24.6381  -45.1593 H         1 UNK         0.0600 
    197 H197       -4.2649  -26.3432  -45.2373 H         1 UNK         0.0600 
    198 H198       -4.0059  -25.2344  -43.9015 H         1 UNK         0.0600 
    199 H199       -3.0498  -25.0790  -45.3755 H         1 UNK         0.0600 
    200 H200       -4.4202  -22.6682  -47.3450 H         1 UNK         0.3000 
    201 H201       -4.1929  -22.3946  -49.4904 H         1 UNK         0.0600 
    202 H202       -6.6349  -22.8726  -49.6582 H         1 UNK         0.0600 
    203 H203       -6.2910  -24.5788  -49.9404 H         1 UNK         0.0600 
    204 H204       -5.7741  -23.3697  -51.1046 H         1 UNK         0.0600 
    205 H205       -3.0097  -25.0784  -48.0521 H         1 UNK         0.3000 
    206 H206       -2.1983  -26.7669  -50.1782 H         1 UNK         0.0600 
    207 H207       -2.2489  -27.4958  -47.8149 H         1 UNK         0.0600 
    208 H208       -0.6274  -27.6972  -48.4620 H         1 UNK         0.0600 
    209 H209       -0.9842  -26.3416  -47.3984 H         1 UNK         0.0600 
    210 H210       -0.6965  -23.8721  -48.7788 H         1 UNK         0.3000 
    211 H211        1.7784  -23.9953  -50.2447 H         1 UNK         0.0600 
    212 H212        0.2842  -21.6711  -48.9294 H         1 UNK         0.0600 
    213 H213        1.9357  -21.5820  -49.5325 H         1 UNK         0.0600 
    214 H214        1.5458  -22.6620  -48.2057 H         1 UNK         0.0600 
    215 H215       -1.4282  -23.2782  -51.2614 H         1 UNK         0.3000 
    216 H216       -0.5223  -22.0271  -53.8179 H         1 UNK         0.0600 
    217 H217       -2.8212  -21.0670  -53.9068 H         1 UNK         0.0600 
    218 H218       -1.9770  -20.5189  -52.4688 H         1 UNK         0.0600 
    219 H219       -3.1913  -21.7882  -52.3380 H         1 UNK         0.0600 
    220 H220       -0.4899  -24.8650  -52.9807 H         1 UNK         0.3000 
    221 H221       -0.8263  -26.8873  -53.7717 H         1 UNK         0.0600 
    222 H222       -1.6512  -25.5090  -56.3819 H         1 UNK         0.0600 
    223 H223        0.0114  -25.7942  -55.8688 H         1 UNK         0.0600 
    224 H224       -1.0443  -27.1514  -56.2161 H         1 UNK         0.0600 
    225 H225       -3.1611  -25.5593  -52.4936 H         1 UNK         0.3000 
    226 H226       -5.1962  -25.9762  -51.8259 H         1 UNK         0.0600 
    227 H227       -4.6228  -28.4166  -51.8676 H         1 UNK         0.0600 
    228 H228       -5.2785  -28.5316  -53.5015 H         1 UNK         0.0600 
    229 H229       -6.3263  -28.1098  -52.1581 H         1 UNK         0.0600 
    230 H230       -4.4891  -24.8309  -54.7201 H         1 UNK         0.3000 
    231 H231       -7.1786  -24.8075  -55.9350 H         1 UNK         0.0600 
    232 H232       -5.1548  -25.0275  -57.3760 H         1 UNK         0.0600 
    233 H233       -4.5513  -23.4790  -56.7865 H         1 UNK         0.0600 
    234 H234       -6.0328  -23.5465  -57.7310 H         1 UNK         0.0600 
    235 H235       -5.0361  -22.7748  -54.0461 H         1 UNK         0.3000 
    236 H236       -5.2176  -20.8839  -52.9079 H         1 UNK         0.0600 
    237 H237       -7.3462  -19.9331  -52.2209 H         1 UNK         0.0600 
    238 H238       -8.2103  -20.7375  -53.5190 H         1 UNK         0.0600 
    239 H239       -7.5165  -21.6777  -52.1988 H         1 UNK         0.0600 
    240 H240       -5.9844  -18.4460  -53.1534 H         1 UNK         0.3000 
    241 H241       -4.9800  -17.5050  -55.7165 H         1 UNK         0.0600 
    242 H242       -7.9052  -16.3516  -57.3759 H         1 UNK         0.3800 
    243 H243       -6.1655  -16.3966  -57.3750 H         1 UNK         0.3800 
    244 H244       -5.3448  -15.2184  -54.7038 H         1 UNK         0.0800 
    245 H245       -6.0004  -15.9682  -53.2744 H         1 UNK         0.0800 
    246 H246       -4.3867  -17.3157  -51.4498 H         1 UNK         0.0800 
    247 H247       -4.5357  -15.5746  -51.3703 H         1 UNK         0.0800 
@<TRIPOS>BOND
     1    1    2 1    
     2    1  127 1    
     3    1  128 1    
     4    1  129 1    
     5    2    3 2    
     6    2    4 am   BACKBONE|DICT|INTERRES
     7    4    5 1    
     8    4  130 1    
     9    5    6 1    
    10    5   65 1    
    11    5  131 1    
    12    6    7 1    
    13    6  132 1    
    14    6  133 1    
    15    7    8 1    
    16    8    9 1    
    17    8  134 1    
    18    8  135 1    
    19    9   10 ar   
    20    9   14 ar   
    21   10   11 ar   
    22   10  136 1    
    23   11   12 ar   
    24   11  126 1    
    25   12   13 ar   
    26   12  137 1    
    27   13   14 ar   
    28   13   15 1    
    29   14  138 1    
    30   15   16 1    
    31   15  139 1    
    32   15  140 1    
    33   16   17 1    
    34   17   18 1    
    35   17  141 1    
    36   17  142 1    
    37   18   19 1    
    38   18   67 1    
    39   18  143 1    
    40   19   20 am   BACKBONE|DICT|INTERRES
    41   19  144 1    
    42   20   21 2    
    43   20   22 1    
    44   22   23 1    
    45   22   24 1    
    46   22  145 1    
    47   23  146 1    
    48   23  147 1    
    49   23  148 1    
    50   24   25 am   BACKBONE|DICT|INTERRES
    51   24  149 1    
    52   25   26 2    
    53   25   27 1    
    54   27   28 1    
    55   27   29 1    
    56   27  150 1    
    57   28  151 1    
    58   28  152 1    
    59   28  153 1    
    60   29   30 am   BACKBONE|DICT|INTERRES
    61   29  154 1    
    62   30   31 2    
    63   30   32 1    
    64   32   33 1    
    65   32   34 1    
    66   32  155 1    
    67   33  156 1    
    68   33  157 1    
    69   33  158 1    
    70   34   35 am   BACKBONE|DICT|INTERRES
    71   34  159 1    
    72   35   36 2    
    73   35   37 1    
    74   37   38 1    
    75   37   39 1    
    76   37  160 1    
    77   38  161 1    
    78   38  162 1    
    79   38  163 1    
    80   39   40 am   BACKBONE|DICT|INTERRES
    81   39  164 1    
    82   40   41 2    
    83   40   42 1    
    84   42   43 1    
    85   42   44 1    
    86   42  165 1    
    87   43  166 1    
    88   43  167 1    
    89   43  168 1    
    90   44   45 am   BACKBONE|DICT|INTERRES
    91   44  169 1    
    92   45   46 2    
    93   45   47 1    
    94   47   48 1    
    95   47   49 1    
    96   47  170 1    
    97   48  171 1    
    98   48  172 1    
    99   48  173 1    
   100   49   50 am   BACKBONE|DICT|INTERRES
   101   49  174 1    
   102   50   51 2    
   103   50   52 1    
   104   52   53 1    
   105   52   54 1    
   106   52  175 1    
   107   53  176 1    
   108   53  177 1    
   109   53  178 1    
   110   54   55 am   BACKBONE|DICT|INTERRES
   111   54  179 1    
   112   55   56 2    
   113   55   57 1    
   114   57   58 1    
   115   57   59 1    
   116   57  180 1    
   117   58  181 1    
   118   58  182 1    
   119   58  183 1    
   120   59   60 am   BACKBONE|DICT|INTERRES
   121   59  184 1    
   122   60   61 2    
   123   60   62 1    
   124   62   63 1    
   125   62   64 1    
   126   62  185 1    
   127   63  186 1    
   128   63  187 1    
   129   63  188 1    
   130   64   65 am   BACKBONE|DICT|INTERRES
   131   64  189 1    
   132   65   66 2    
   133   67   68 2    
   134   67   69 am   BACKBONE|DICT|INTERRES
   135   69   70 1    
   136   69  190 1    
   137   70   71 1    
   138   70   72 1    
   139   70  191 1    
   140   71  192 1    
   141   71  193 1    
   142   71  194 1    
   143   72   73 2    
   144   72   74 am   BACKBONE|DICT|INTERRES
   145   74   75 1    
   146   74  195 1    
   147   75   76 1    
   148   75   77 1    
   149   75  196 1    
   150   76  197 1    
   151   76  198 1    
   152   76  199 1    
   153   77   78 2    
   154   77   79 am   BACKBONE|DICT|INTERRES
   155   79   80 1    
   156   79  200 1    
   157   80   81 1    
   158   80   82 1    
   159   80  201 1    
   160   81  202 1    
   161   81  203 1    
   162   81  204 1    
   163   82   83 2    
   164   82   84 am   BACKBONE|DICT|INTERRES
   165   84   85 1    
   166   84  205 1    
   167   85   86 1    
   168   85   87 1    
   169   85  206 1    
   170   86  207 1    
   171   86  208 1    
   172   86  209 1    
   173   87   88 2    
   174   87   89 am   BACKBONE|DICT|INTERRES
   175   89   90 1    
   176   89  210 1    
   177   90   91 1    
   178   90   92 1    
   179   90  211 1    
   180   91  212 1    
   181   91  213 1    
   182   91  214 1    
   183   92   93 2    
   184   92   94 am   BACKBONE|DICT|INTERRES
   185   94   95 1    
   186   94  215 1    
   187   95   96 1    
   188   95   97 1    
   189   95  216 1    
   190   96  217 1    
   191   96  218 1    
   192   96  219 1    
   193   97   98 2    
   194   97   99 am   BACKBONE|DICT|INTERRES
   195   99  100 1    
   196   99  220 1    
   197  100  101 1    
   198  100  102 1    
   199  100  221 1    
   200  101  222 1    
   201  101  223 1    
   202  101  224 1    
   203  102  103 2    
   204  102  104 am   BACKBONE|DICT|INTERRES
   205  104  105 1    
   206  104  225 1    
   207  105  106 1    
   208  105  107 1    
   209  105  226 1    
   210  106  227 1    
   211  106  228 1    
   212  106  229 1    
   213  107  108 2    
   214  107  109 am   BACKBONE|DICT|INTERRES
   215  109  110 1    
   216  109  230 1    
   217  110  111 1    
   218  110  112 1    
   219  110  231 1    
   220  111  232 1    
   221  111  233 1    
   222  111  234 1    
   223  112  113 2    
   224  112  114 am   BACKBONE|DICT|INTERRES
   225  114  115 1    
   226  114  235 1    
   227  115  116 1    
   228  115  117 1    
   229  115  236 1    
   230  116  237 1    
   231  116  238 1    
   232  116  239 1    
   233  117  118 2    
   234  117  119 am   BACKBONE|DICT|INTERRES
   235  119  120 1    
   236  119  240 1    
   237  120  121 1    
   238  120  124 1    
   239  120  241 1    
   240  121  122 am   BACKBONE|DICT|INTERRES
   241  121  123 2    
   242  122  242 1    
   243  122  243 1    
   244  124  125 1    
   245  124  244 1    
   246  124  245 1    
   247  125  126 1    
   248  126  246 1    
   249  126  247 1    
@<TRIPOS>SUBSTRUCTURE
     1 UNK         1 GROUP             0       ****    0 ROOT    
