@<TRIPOS>MOLECULE
3R540
247   249    1
SMALL
USER_CHARGES


@<TRIPOS>ATOM
      1 CA         -2.6763  -14.7045  -49.8463 C.3       0 UNK        -0.1800 
      2 C          -1.9621  -13.4578  -49.3454 C.2       0 UNK         0.5000 
      3 O          -2.6146  -12.5185  -48.8884 O.2       0 UNK        -0.5000 
      4 N          -0.6266  -13.4454  -49.4311 N.am      1 UNK        -0.5000 
      5 CA          0.2344  -12.3794  -48.9068 C.3       1 UNK         0.1400 
      6 C6          1.6799  -12.4719  -49.4565 C.3       23 UNK        -0.0398 
      7 S7          1.7519  -12.2980  -51.2725 S.3       23 UNK        -0.2404 
      8 C8          2.4863  -13.8851  -51.7834 C.3       23 UNK        -0.0205 
      9 C9          1.5512  -15.0582  -51.5323 C.ar      23 UNK        -0.0193 
     10 C10         0.4430  -15.2596  -52.3595 C.ar      23 UNK        -0.1150 
     11 C11        -0.4250  -16.3292  -52.1299 C.ar      23 UNK        -0.0193 
     12 C12        -0.1756  -17.1995  -51.0670 C.ar      23 UNK        -0.1150 
     13 C13         0.9433  -17.0287  -50.2431 C.ar      23 UNK        -0.0193 
     14 C14         1.7971  -15.9469  -50.4809 C.ar      23 UNK        -0.1150 
     15 C15         1.2437  -17.9814  -49.0861 C.3       23 UNK        -0.0205 
     16 S16         0.9973  -19.7452  -49.4961 S.3       23 UNK        -0.2404 
     17 C17        -0.7745  -19.9661  -49.1097 C.3       23 UNK        -0.0398 
     18 CA         -1.0528  -21.1371  -48.1402 C.3       11 UNK         0.1400 
     19 N          -0.2201  -21.0975  -46.9370 N.am      11 UNK        -0.5000 
     20 C          -0.1708  -22.0463  -45.9929 C.2       10 UNK         0.5000 
     21 O          -0.8374  -23.0808  -46.0303 O.2       10 UNK        -0.5000 
     22 CA          0.7364  -21.7721  -44.7766 C.3       10 UNK         0.1400 
     23 CB          1.8726  -20.7713  -45.0709 C.3       10 UNK        -0.1800 
     24 N          -0.0176  -21.3291  -43.6000 N.am      10 UNK        -0.5000 
     25 C          -0.9354  -20.3538  -43.5345 C.2       9 UNK         0.5000 
     26 O          -1.3235  -19.7000  -44.5027 O.2       9 UNK        -0.5000 
     27 CA         -1.5053  -20.0302  -42.1471 C.3       9 UNK         0.1400 
     28 CB         -2.5084  -21.0996  -41.6672 C.3       9 UNK        -0.1800 
     29 N          -0.4554  -19.7468  -41.1640 N.am      9 UNK        -0.5000 
     30 C           0.3615  -20.5919  -40.5241 C.2       8 UNK         0.5000 
     31 O           0.3473  -21.8153  -40.6752 O.2       8 UNK        -0.5000 
     32 CA          1.3776  -19.9241  -39.5781 C.3       8 UNK         0.1400 
     33 CB          2.0381  -20.9160  -38.5973 C.3       8 UNK        -0.1800 
     34 N           2.3855  -19.1501  -40.3089 N.am      8 UNK        -0.5000 
     35 C           3.3176  -19.6082  -41.1596 C.2       7 UNK         0.5000 
     36 O           3.4391  -20.7940  -41.4682 O.2       7 UNK        -0.5000 
     37 CA          4.3008  -18.5814  -41.7658 C.3       7 UNK         0.1400 
     38 CB          4.2849  -18.6314  -43.3014 C.3       7 UNK        -0.1800 
     39 N           4.0593  -17.2004  -41.3457 N.am      7 UNK        -0.5000 
     40 C           4.4238  -16.6647  -40.1740 C.2       6 UNK         0.5000 
     41 O           5.0174  -17.2847  -39.2915 O.2       6 UNK        -0.5000 
     42 CA          4.0274  -15.1949  -39.9420 C.3       6 UNK         0.1400 
     43 CB          5.0909  -14.2470  -40.5174 C.3       6 UNK        -0.1800 
     44 N           2.7242  -14.8683  -40.5245 N.am      6 UNK        -0.5000 
     45 C           1.5471  -15.3025  -40.0528 C.2       5 UNK         0.5000 
     46 O           1.4291  -16.0214  -39.0601 O.2       5 UNK        -0.5000 
     47 CA          0.2967  -14.8968  -40.8541 C.3       5 UNK         0.1400 
     48 CB         -0.1173  -13.4532  -40.5319 C.3       5 UNK        -0.1800 
     49 N           0.5020  -15.0420  -42.2961 N.am      5 UNK        -0.5000 
     50 C           0.6153  -16.2279  -42.9137 C.2       4 UNK         0.5000 
     51 O           0.4991  -17.3040  -42.3296 O.2       4 UNK        -0.5000 
     52 CA          0.9460  -16.2214  -44.4198 C.3       4 UNK         0.1400 
     53 CB         -0.3451  -16.2823  -45.2488 C.3       4 UNK        -0.1800 
     54 N           1.7367  -15.0632  -44.8432 N.am      4 UNK        -0.5000 
     55 C           2.9541  -14.7480  -44.3724 C.2       3 UNK         0.5000 
     56 O           3.5653  -15.4427  -43.5623 O.2       3 UNK        -0.5000 
     57 CA          3.5823  -13.4156  -44.8309 C.3       3 UNK         0.1400 
     58 CB          4.5881  -13.6665  -45.9642 C.3       3 UNK        -0.1800 
     59 N           2.6105  -12.4144  -45.2741 N.am      3 UNK        -0.5000 
     60 C           1.5901  -11.9294  -44.5515 C.2       2 UNK         0.5000 
     61 O           1.3964  -12.2128  -43.3686 O.2       2 UNK        -0.5000 
     62 CA          0.5794  -11.0308  -45.2948 C.3       2 UNK         0.1400 
     63 CB          0.8728   -9.5499  -45.0117 C.3       2 UNK        -0.1800 
     64 N           0.5231  -11.2386  -46.7500 N.am      2 UNK        -0.5000 
     65 C           0.2520  -12.4007  -47.3637 C.2       1 UNK         0.5000 
     66 O           0.0794  -13.4630  -46.7610 O.2       1 UNK        -0.5000 
     67 C          -2.5603  -21.1934  -47.8220 C.2       11 UNK         0.5000 
     68 O          -3.3031  -21.8166  -48.5753 O.2       11 UNK        -0.5000 
     69 N          -2.9971  -20.5858  -46.7083 N.am      12 UNK        -0.5000 
     70 CA         -4.3962  -20.6101  -46.2734 C.3       12 UNK         0.1400 
     71 CB         -4.5996  -19.6337  -45.1068 C.3       12 UNK        -0.1800 
     72 C          -4.8767  -22.0263  -45.9022 C.2       12 UNK         0.5000 
     73 O          -6.0259  -22.3705  -46.1822 O.2       12 UNK        -0.5000 
     74 N          -3.9702  -22.8384  -45.3383 N.am      13 UNK        -0.5000 
     75 CA         -4.1964  -24.2564  -45.0569 C.3       13 UNK         0.1400 
     76 CB         -3.1572  -24.7471  -44.0376 C.3       13 UNK        -0.1800 
     77 C          -4.1715  -25.1197  -46.3342 C.2       13 UNK         0.5000 
     78 O          -4.8160  -26.1686  -46.3671 O.2       13 UNK        -0.5000 
     79 N          -3.4810  -24.6495  -47.3834 N.am      14 UNK        -0.5000 
     80 CA         -3.4323  -25.2449  -48.7205 C.3       14 UNK         0.1400 
     81 CB         -2.1187  -24.8294  -49.4114 C.3       14 UNK        -0.1800 
     82 C          -4.6898  -24.8792  -49.5404 C.2       14 UNK         0.5000 
     83 O          -4.5860  -24.3210  -50.6366 O.2       14 UNK        -0.5000 
     84 N          -5.8611  -25.2086  -48.9773 N.am      15 UNK        -0.5000 
     85 CA         -7.2054  -25.0462  -49.5364 C.3       15 UNK         0.1400 
     86 CB         -7.4088  -26.0297  -50.7087 C.3       15 UNK        -0.1800 
     87 C          -7.5295  -23.5868  -49.9149 C.2       15 UNK         0.5000 
     88 O          -7.9782  -23.3296  -51.0316 O.2       15 UNK        -0.5000 
     89 N          -7.2591  -22.6478  -48.9938 N.am      16 UNK        -0.5000 
     90 CA         -7.4213  -21.1965  -49.1696 C.3       16 UNK         0.1400 
     91 CB         -8.9147  -20.8175  -49.2535 C.3       16 UNK        -0.1800 
     92 C          -6.5879  -20.6485  -50.3503 C.2       16 UNK         0.5000 
     93 O          -7.0629  -19.8138  -51.1215 O.2       16 UNK        -0.5000 
     94 N          -5.3604  -21.1698  -50.4687 N.am      17 UNK        -0.5000 
     95 CA         -4.3472  -20.9132  -51.4910 C.3       17 UNK         0.1400 
     96 CB         -3.9378  -19.4283  -51.5163 C.3       17 UNK        -0.1800 
     97 C          -4.6768  -21.4784  -52.8875 C.2       17 UNK         0.5000 
     98 O          -3.9387  -21.1972  -53.8338 O.2       17 UNK        -0.5000 
     99 N          -5.7214  -22.3125  -53.0040 N.am      18 UNK        -0.5000 
    100 CA        -6.0645  -23.0114  -54.2434 C.3       18 UNK         0.1400 
    101 CB        -7.4873  -23.5809  -54.1606 C.3       18 UNK        -0.1800 
    102 C         -5.0548  -24.1224  -54.5777 C.2       18 UNK         0.5000 
    103 O         -4.6835  -24.2650  -55.7425 O.2       18 UNK        -0.5000 
    104 N         -4.5822  -24.8546  -53.5564 N.am      19 UNK        -0.5000 
    105 CA        -3.5415  -25.8773  -53.7090 C.3       19 UNK         0.1400 
    106 CB        -3.6690  -26.9297  -52.5979 C.3       19 UNK        -0.1800 
    107 C         -2.1275  -25.2641  -53.7576 C.2       19 UNK         0.5000 
    108 O         -1.2062  -25.9104  -54.2564 O.2       19 UNK        -0.5000 
    109 N         -1.9904  -24.0104  -53.2978 N.am      20 UNK        -0.5000 
    110 CA        -0.8089  -23.1659  -53.5080 C.3       20 UNK         0.1400 
    111 CB        -0.7780  -22.0567  -52.4429 C.3       20 UNK        -0.1800 
    112 C         -0.7535  -22.5644  -54.9325 C.2       20 UNK         0.5000 
    113 O          0.2645  -21.9743  -55.2946 O.2       20 UNK        -0.5000 
    114 N         -1.8348  -22.7379  -55.7097 N.am      21 UNK        -0.5000 
    115 CA        -2.0310  -22.3234  -57.1007 C.3       21 UNK         0.1400 
    116 CB        -1.0111  -23.0090  -58.0349 C.3       21 UNK        -0.1800 
    117 C         -2.1055  -20.7953  -57.2943 C.2       21 UNK         0.5000 
    118 O         -1.7346  -20.2960  -58.3591 O.2       21 UNK        -0.5000 
    119 N         -2.6087  -20.0771  -56.2830 N.am      22 UNK        -0.5000 
    120 CA        -2.9283  -18.6450  -56.3754 C.3       22 UNK         0.1400 
    121 C         -4.2353  -18.3968  -57.1792 C.2       22 UNK         0.5000 
    122 N         -4.3305  -17.2784  -57.8857 N.am      22 UNK        -0.7600 
    123 O         -5.1777  -19.1854  -57.1422 O.2       22 UNK        -0.5000 
    124 C124       -3.0158  -17.9869  -54.9786 C.3       23 UNK        -0.0398 
    125 S125       -1.4011  -17.9628  -54.1319 S.3       23 UNK        -0.2404 
    126 C126       -1.6405  -16.5464  -53.0163 C.3       23 UNK        -0.0205 
    127 H127       -2.9069  -14.6060  -50.9068 H         1 UNK         0.0600 
    128 H128       -2.0635  -15.5936  -49.7019 H         1 UNK         0.0600 
    129 H129       -3.6104  -14.8532  -49.3045 H         1 UNK         0.0600 
    130 H130       -0.1456  -14.2424  -49.8236 H         1 UNK         0.3000 
    131 H131       -0.1895  -11.4233  -49.2218 H         1 UNK         0.0600 
    132 H132        2.1509  -13.4068  -49.1494 H         1 UNK         0.0800 
    133 H133        2.2986  -11.6757  -49.0389 H         1 UNK         0.0800 
    134 H134        3.4385  -14.0274  -51.2699 H         1 UNK         0.0800 
    135 H135        2.7208  -13.8369  -52.8478 H         1 UNK         0.0800 
    136 H136        0.2548  -14.5772  -53.1766 H         1 UNK         0.1150 
    137 H137       -0.8578  -18.0178  -50.9038 H         1 UNK         0.1150 
    138 H138        2.6599  -15.7972  -49.8469 H         1 UNK         0.1150 
    139 H139        2.2837  -17.8658  -48.7771 H         1 UNK         0.0800 
    140 H140        0.6427  -17.7026  -48.2205 H         1 UNK         0.0800 
    141 H141       -1.1781  -19.0358  -48.7058 H         1 UNK         0.0800 
    142 H142       -1.2971  -20.1389  -50.0521 H         1 UNK         0.0800 
    143 H143       -0.8005  -22.0627  -48.6607 H         1 UNK         0.0600 
    144 H144        0.3418  -20.2688  -46.8122 H         1 UNK         0.3000 
    145 H145        1.1949  -22.7269  -44.5151 H         1 UNK         0.0600 
    146 H146        2.5774  -20.7547  -44.2414 H         1 UNK         0.0600 
    147 H147        2.4343  -21.0555  -45.9619 H         1 UNK         0.0600 
    148 H148        1.5056  -19.7541  -45.2128 H         1 UNK         0.0600 
    149 H149        0.2152  -21.7903  -42.7264 H         1 UNK         0.3000 
    150 H150       -2.0589  -19.0954  -42.2500 H         1 UNK         0.0600 
    151 H151       -3.3476  -21.1848  -42.3573 H         1 UNK         0.0600 
    152 H152       -2.9175  -20.8447  -40.6897 H         1 UNK         0.0600 
    153 H153       -2.0575  -22.0892  -41.5947 H         1 UNK         0.0600 
    154 H154       -0.2329  -18.7590  -41.0936 H         1 UNK         0.3000 
    155 H155        0.8196  -19.2043  -38.9769 H         1 UNK         0.0600 
    156 H156        1.2844  -21.4176  -37.9894 H         1 UNK         0.0600 
    157 H157        2.7162  -20.4022  -37.9159 H         1 UNK         0.0600 
    158 H158        2.6054  -21.6909  -39.1132 H         1 UNK         0.0600 
    159 H159        2.3580  -18.1515  -40.1554 H         1 UNK         0.3000 
    160 H160        5.3009  -18.8684  -41.4348 H         1 UNK         0.0600 
    161 H161        3.2947  -18.4064  -43.6965 H         1 UNK         0.0600 
    162 H162        4.5754  -19.6171  -43.6655 H         1 UNK         0.0600 
    163 H163        4.9862  -17.9138  -43.7277 H         1 UNK         0.0600 
    164 H164        3.6403  -16.5896  -42.0421 H         1 UNK         0.3000 
    165 H165        3.9717  -15.0303  -38.8638 H         1 UNK         0.0600 
    166 H166        6.0693  -14.4471  -40.0786 H         1 UNK         0.0600 
    167 H167        5.1882  -14.3560  -41.5981 H         1 UNK         0.0600 
    168 H168        4.8472  -13.2058  -40.3058 H         1 UNK         0.0600 
    169 H169        2.7307  -14.3188  -41.3715 H         1 UNK         0.3000 
    170 H170       -0.5216  -15.5561  -40.5566 H         1 UNK         0.0600 
    171 H171       -0.3249  -13.3366  -39.4676 H         1 UNK         0.0600 
    172 H172        0.6645  -12.7392  -40.7929 H         1 UNK         0.0600 
    173 H173       -1.0211  -13.1721  -41.0726 H         1 UNK         0.0600 
    174 H174        0.6424  -14.1908  -42.8274 H         1 UNK         0.3000 
    175 H175        1.5291  -17.1183  -44.6337 H         1 UNK         0.0600 
    176 H176       -0.9679  -15.4020  -45.0851 H         1 UNK         0.0600 
    177 H177       -0.1292  -16.3438  -46.3151 H         1 UNK         0.0600 
    178 H178       -0.9410  -17.1558  -44.9858 H         1 UNK         0.0600 
    179 H179        1.2853  -14.4344  -45.5010 H         1 UNK         0.3000 
    180 H180        4.1196  -12.9990  -43.9767 H         1 UNK         0.0600 
    181 H181        4.0984  -14.0577  -46.8570 H         1 UNK         0.0600 
    182 H182        5.1098  -12.7500  -46.2401 H         1 UNK         0.0600 
    183 H183        5.3456  -14.3907  -45.6612 H         1 UNK         0.0600 
    184 H184        2.6831  -12.1174  -46.2350 H         1 UNK         0.3000 
    185 H185       -0.4091  -11.2657  -44.8949 H         1 UNK         0.0600 
    186 H186        0.1055   -8.9055  -45.4411 H         1 UNK         0.0600 
    187 H187        0.8953   -9.3535  -43.9387 H         1 UNK         0.0600 
    188 H188        1.8368   -9.2456  -45.4213 H         1 UNK         0.0600 
    189 H189        0.6643  -10.4133  -47.3152 H         1 UNK         0.3000 
    190 H190       -2.3296  -20.1338  -46.0877 H         1 UNK         0.3000 
    191 H191       -5.0054  -20.2618  -47.1090 H         1 UNK         0.0600 
    192 H192       -5.6493  -19.5905  -44.8137 H         1 UNK         0.0600 
    193 H193       -4.2955  -18.6232  -45.3805 H         1 UNK         0.0600 
    194 H194       -4.0270  -19.9278  -44.2287 H         1 UNK         0.0600 
    195 H195       -3.0289  -22.4968  -45.2018 H         1 UNK         0.3000 
    196 H196       -5.1854  -24.3637  -44.6062 H         1 UNK         0.0600 
    197 H197       -3.3493  -25.7833  -43.7565 H         1 UNK         0.0600 
    198 H198       -3.1872  -24.1521  -43.1246 H         1 UNK         0.0600 
    199 H199       -2.1436  -24.7009  -44.4352 H         1 UNK         0.0600 
    200 H200       -3.0192  -23.7561  -47.2850 H         1 UNK         0.3000 
    201 H201       -3.4169  -26.3317  -48.6171 H         1 UNK         0.0600 
    202 H202       -1.2592  -24.9938  -48.7613 H         1 UNK         0.0600 
    203 H203       -2.1222  -23.7807  -49.7020 H         1 UNK         0.0600 
    204 H204       -1.9497  -25.4087  -50.3182 H         1 UNK         0.0600 
    205 H205       -5.8154  -25.6455  -48.0625 H         1 UNK         0.3000 
    206 H206       -7.9073  -25.3205  -48.7478 H         1 UNK         0.0600 
    207 H207       -7.2243  -27.0574  -50.3963 H         1 UNK         0.0600 
    208 H208       -8.4312  -25.9852  -51.0860 H         1 UNK         0.0600 
    209 H209       -6.7419  -25.8109  -51.5429 H         1 UNK         0.0600 
    210 H210       -6.8691  -22.9336  -48.1024 H         1 UNK         0.3000 
    211 H211       -7.0201  -20.7295  -48.2703 H         1 UNK         0.0600 
    212 H212       -9.3821  -21.2014  -50.1607 H         1 UNK         0.0600 
    213 H213       -9.0427  -19.7344  -49.2544 H         1 UNK         0.0600 
    214 H214       -9.4683  -21.2078  -48.3997 H         1 UNK         0.0600 
    215 H215       -5.0614  -21.8409  -49.7698 H         1 UNK         0.3000 
    216 H216       -3.4751  -21.4781  -51.1627 H         1 UNK         0.0600 
    217 H217       -4.7105  -18.8004  -51.9602 H         1 UNK         0.0600 
    218 H218       -3.0274  -19.2924  -52.0976 H         1 UNK         0.0600 
    219 H219       -3.7347  -19.0560  -50.5122 H         1 UNK         0.0600 
    220 H220       -6.2869  -22.5183  -52.1886 H         1 UNK         0.3000 
    221 H221       -6.0441  -22.2834  -55.0577 H         1 UNK         0.0600 
    222 H222       -7.5624  -24.3765  -53.4194 H         1 UNK         0.0600 
    223 H223       -8.2092  -22.8071  -53.8987 H         1 UNK         0.0600 
    224 H224       -7.7926  -24.0011  -55.1195 H         1 UNK         0.0600 
    225 H225       -4.8788  -24.6465  -52.6072 H         1 UNK         0.3000 
    226 H226       -3.6983  -26.3940  -54.6585 H         1 UNK         0.0600 
    227 H227       -4.6686  -27.3640  -52.5786 H         1 UNK         0.0600 
    228 H228       -2.9627  -27.7458  -52.7549 H         1 UNK         0.0600 
    229 H229       -3.4670  -26.5134  -51.6149 H         1 UNK         0.0600 
    230 H230       -2.8003  -23.5652  -52.8932 H         1 UNK         0.3000 
    231 H231        0.0836  -23.7812  -53.3770 H         1 UNK         0.0600 
    232 H232       -1.5619  -21.3185  -52.6046 H         1 UNK         0.0600 
    233 H233       -0.8904  -22.4619  -51.4375 H         1 UNK         0.0600 
    234 H234        0.1718  -21.5211  -52.4706 H         1 UNK         0.0600 
    235 H235       -2.6269  -23.2134  -55.3005 H         1 UNK         0.3000 
    236 H236       -3.0175  -22.6967  -57.3784 H         1 UNK         0.0600 
    237 H237       -0.9950  -24.0874  -57.8773 H         1 UNK         0.0600 
    238 H238       -1.2648  -22.8400  -59.0820 H         1 UNK         0.0600 
    239 H239       -0.0003  -22.6310  -57.8803 H         1 UNK         0.0600 
    240 H240       -2.9335  -20.5537  -55.4472 H         1 UNK         0.3000 
    241 H241       -2.1165  -18.1563  -56.9187 H         1 UNK         0.0600 
    242 H242       -5.1773  -17.0972  -58.4024 H         1 UNK         0.3800 
    243 H243       -3.5737  -16.6132  -57.9314 H         1 UNK         0.3800 
    244 H244       -3.7439  -18.5042  -54.3529 H         1 UNK         0.0800 
    245 H245       -3.3669  -16.9572  -55.0685 H         1 UNK         0.0800 
    246 H246       -1.8486  -15.6512  -53.6044 H         1 UNK         0.0800 
    247 H247       -2.5185  -16.7206  -52.3926 H         1 UNK         0.0800 
@<TRIPOS>BOND
     1    1    2 1    
     2    1  127 1    
     3    1  128 1    
     4    1  129 1    
     5    2    3 2    
     6    2    4 am   BACKBONE|DICT|INTERRES
     7    4    5 1    
     8    4  130 1    
     9    5    6 1    
    10    5   65 1    
    11    5  131 1    
    12    6    7 1    
    13    6  132 1    
    14    6  133 1    
    15    7    8 1    
    16    8    9 1    
    17    8  134 1    
    18    8  135 1    
    19    9   10 ar   
    20    9   14 ar   
    21   10   11 ar   
    22   10  136 1    
    23   11   12 ar   
    24   11  126 1    
    25   12   13 ar   
    26   12  137 1    
    27   13   14 ar   
    28   13   15 1    
    29   14  138 1    
    30   15   16 1    
    31   15  139 1    
    32   15  140 1    
    33   16   17 1    
    34   17   18 1    
    35   17  141 1    
    36   17  142 1    
    37   18   19 1    
    38   18   67 1    
    39   18  143 1    
    40   19   20 am   BACKBONE|DICT|INTERRES
    41   19  144 1    
    42   20   21 2    
    43   20   22 1    
    44   22   23 1    
    45   22   24 1    
    46   22  145 1    
    47   23  146 1    
    48   23  147 1    
    49   23  148 1    
    50   24   25 am   BACKBONE|DICT|INTERRES
    51   24  149 1    
    52   25   26 2    
    53   25   27 1    
    54   27   28 1    
    55   27   29 1    
    56   27  150 1    
    57   28  151 1    
    58   28  152 1    
    59   28  153 1    
    60   29   30 am   BACKBONE|DICT|INTERRES
    61   29  154 1    
    62   30   31 2    
    63   30   32 1    
    64   32   33 1    
    65   32   34 1    
    66   32  155 1    
    67   33  156 1    
    68   33  157 1    
    69   33  158 1    
    70   34   35 am   BACKBONE|DICT|INTERRES
    71   34  159 1    
    72   35   36 2    
    73   35   37 1    
    74   37   38 1    
    75   37   39 1    
    76   37  160 1    
    77   38  161 1    
    78   38  162 1    
    79   38  163 1    
    80   39   40 am   BACKBONE|DICT|INTERRES
    81   39  164 1    
    82   40   41 2    
    83   40   42 1    
    84   42   43 1    
    85   42   44 1    
    86   42  165 1    
    87   43  166 1    
    88   43  167 1    
    89   43  168 1    
    90   44   45 am   BACKBONE|DICT|INTERRES
    91   44  169 1    
    92   45   46 2    
    93   45   47 1    
    94   47   48 1    
    95   47   49 1    
    96   47  170 1    
    97   48  171 1    
    98   48  172 1    
    99   48  173 1    
   100   49   50 am   BACKBONE|DICT|INTERRES
   101   49  174 1    
   102   50   51 2    
   103   50   52 1    
   104   52   53 1    
   105   52   54 1    
   106   52  175 1    
   107   53  176 1    
   108   53  177 1    
   109   53  178 1    
   110   54   55 am   BACKBONE|DICT|INTERRES
   111   54  179 1    
   112   55   56 2    
   113   55   57 1    
   114   57   58 1    
   115   57   59 1    
   116   57  180 1    
   117   58  181 1    
   118   58  182 1    
   119   58  183 1    
   120   59   60 am   BACKBONE|DICT|INTERRES
   121   59  184 1    
   122   60   61 2    
   123   60   62 1    
   124   62   63 1    
   125   62   64 1    
   126   62  185 1    
   127   63  186 1    
   128   63  187 1    
   129   63  188 1    
   130   64   65 am   BACKBONE|DICT|INTERRES
   131   64  189 1    
   132   65   66 2    
   133   67   68 2    
   134   67   69 am   BACKBONE|DICT|INTERRES
   135   69   70 1    
   136   69  190 1    
   137   70   71 1    
   138   70   72 1    
   139   70  191 1    
   140   71  192 1    
   141   71  193 1    
   142   71  194 1    
   143   72   73 2    
   144   72   74 am   BACKBONE|DICT|INTERRES
   145   74   75 1    
   146   74  195 1    
   147   75   76 1    
   148   75   77 1    
   149   75  196 1    
   150   76  197 1    
   151   76  198 1    
   152   76  199 1    
   153   77   78 2    
   154   77   79 am   BACKBONE|DICT|INTERRES
   155   79   80 1    
   156   79  200 1    
   157   80   81 1    
   158   80   82 1    
   159   80  201 1    
   160   81  202 1    
   161   81  203 1    
   162   81  204 1    
   163   82   83 2    
   164   82   84 am   BACKBONE|DICT|INTERRES
   165   84   85 1    
   166   84  205 1    
   167   85   86 1    
   168   85   87 1    
   169   85  206 1    
   170   86  207 1    
   171   86  208 1    
   172   86  209 1    
   173   87   88 2    
   174   87   89 am   BACKBONE|DICT|INTERRES
   175   89   90 1    
   176   89  210 1    
   177   90   91 1    
   178   90   92 1    
   179   90  211 1    
   180   91  212 1    
   181   91  213 1    
   182   91  214 1    
   183   92   93 2    
   184   92   94 am   BACKBONE|DICT|INTERRES
   185   94   95 1    
   186   94  215 1    
   187   95   96 1    
   188   95   97 1    
   189   95  216 1    
   190   96  217 1    
   191   96  218 1    
   192   96  219 1    
   193   97   98 2    
   194   97   99 am   BACKBONE|DICT|INTERRES
   195   99  100 1    
   196   99  220 1    
   197  100  101 1    
   198  100  102 1    
   199  100  221 1    
   200  101  222 1    
   201  101  223 1    
   202  101  224 1    
   203  102  103 2    
   204  102  104 am   BACKBONE|DICT|INTERRES
   205  104  105 1    
   206  104  225 1    
   207  105  106 1    
   208  105  107 1    
   209  105  226 1    
   210  106  227 1    
   211  106  228 1    
   212  106  229 1    
   213  107  108 2    
   214  107  109 am   BACKBONE|DICT|INTERRES
   215  109  110 1    
   216  109  230 1    
   217  110  111 1    
   218  110  112 1    
   219  110  231 1    
   220  111  232 1    
   221  111  233 1    
   222  111  234 1    
   223  112  113 2    
   224  112  114 am   BACKBONE|DICT|INTERRES
   225  114  115 1    
   226  114  235 1    
   227  115  116 1    
   228  115  117 1    
   229  115  236 1    
   230  116  237 1    
   231  116  238 1    
   232  116  239 1    
   233  117  118 2    
   234  117  119 am   BACKBONE|DICT|INTERRES
   235  119  120 1    
   236  119  240 1    
   237  120  121 1    
   238  120  124 1    
   239  120  241 1    
   240  121  122 am   BACKBONE|DICT|INTERRES
   241  121  123 2    
   242  122  242 1    
   243  122  243 1    
   244  124  125 1    
   245  124  244 1    
   246  124  245 1    
   247  125  126 1    
   248  126  246 1    
   249  126  247 1    
@<TRIPOS>SUBSTRUCTURE
     1 UNK         1 GROUP             0       ****    0 ROOT    
