@<TRIPOS>MOLECULE
3R540
247   249    1
SMALL
USER_CHARGES


@<TRIPOS>ATOM
      1 CA         -1.5692  -14.3278  -45.7115 C.3       0 UNK        -0.1800 
      2 C          -1.6263  -13.0541  -46.5350 C.2       0 UNK         0.5000 
      3 O          -1.0816  -12.0310  -46.1229 O.2       0 UNK        -0.5000 
      4 N          -2.2891  -13.1196  -47.6959 N.am      1 UNK        -0.5000 
      5 CA         -2.5125  -11.9811  -48.5993 C.3       1 UNK         0.1400 
      6 C6         -3.6696  -12.2286  -49.6024 C.3       23 UNK        -0.0398 
      7 S7         -5.1836  -12.8915  -48.8186 S.3       23 UNK        -0.2404 
      8 C8         -5.3104  -14.5518  -49.5637 C.3       23 UNK        -0.0205 
      9 C9         -4.1327  -15.4484  -49.2069 C.ar      23 UNK        -0.0193 
     10 C10        -3.0819  -15.6195  -50.1129 C.ar      23 UNK        -0.1150 
     11 C11        -1.9997  -16.4451  -49.8008 C.ar      23 UNK        -0.0193 
     12 C12        -1.9818  -17.1222  -48.5794 C.ar      23 UNK        -0.1150 
     13 C13        -3.0244  -16.9589  -47.6627 C.ar      23 UNK        -0.0193 
     14 C14        -4.0961  -16.1179  -47.9797 C.ar      23 UNK        -0.1150 
     15 C15        -2.9735  -17.6718  -46.3218 C.3       23 UNK        -0.0205 
     16 S16        -4.0314  -19.1487  -46.3051 S.3       23 UNK        -0.2404 
     17 C17        -3.2963  -20.0704  -44.9119 C.3       23 UNK        -0.0398 
     18 CA         -2.3792  -21.2121  -45.4223 C.3       11 UNK         0.1400 
     19 N          -1.1395  -21.3447  -44.6505 N.am      11 UNK        -0.5000 
     20 C          -0.1013  -22.1075  -45.0266 C.2       10 UNK         0.5000 
     21 O          -0.0675  -22.7136  -46.0982 O.2       10 UNK        -0.5000 
     22 CA          1.0551  -22.2994  -44.0244 C.3       10 UNK         0.1400 
     23 CB          2.3139  -21.5518  -44.4836 C.3       10 UNK        -0.1800 
     24 N           0.7424  -21.9316  -42.6387 N.am      10 UNK        -0.5000 
     25 C          -0.1930  -22.5219  -41.8771 C.2       9 UNK         0.5000 
     26 O          -0.9529  -23.3922  -42.3063 O.2       9 UNK        -0.5000 
     27 CA         -0.3329  -22.0378  -40.4174 C.3       9 UNK         0.1400 
     28 CB         -0.8866  -23.1289  -39.4774 C.3       9 UNK        -0.1800 
     29 N           0.8926  -21.4414  -39.8754 N.am      9 UNK        -0.5000 
     30 C           2.0777  -22.0384  -39.6686 C.2       8 UNK         0.5000 
     31 O           2.2806  -23.2397  -39.8512 O.2       8 UNK        -0.5000 
     32 CA          3.2313  -21.1269  -39.1849 C.3       8 UNK         0.1400 
     33 CB          4.6190  -21.6471  -39.6160 C.3       8 UNK        -0.1800 
     34 N           3.0669  -19.7147  -39.5635 N.am      8 UNK        -0.5000 
     35 C           2.9707  -19.2247  -40.8080 C.2       7 UNK         0.5000 
     36 O           3.0537  -19.9110  -41.8278 O.2       7 UNK        -0.5000 
     37 CA          2.6990  -17.7133  -40.9241 C.3       7 UNK         0.1400 
     38 CB          4.0078  -16.9521  -41.1809 C.3       7 UNK        -0.1800 
     39 N           1.7345  -17.3871  -41.9787 N.am      7 UNK        -0.5000 
     40 C           0.4869  -17.8774  -42.0716 C.2       6 UNK         0.5000 
     41 O           0.0044  -18.6726  -41.2629 O.2       6 UNK        -0.5000 
     42 CA         -0.3903  -17.3977  -43.2444 C.3       6 UNK         0.1400 
     43 CB         -1.4956  -16.4595  -42.7359 C.3       6 UNK        -0.1800 
     44 N           0.3722  -16.7152  -44.2886 N.am      6 UNK        -0.5000 
     45 C           1.0053  -17.3275  -45.2967 C.2       5 UNK         0.5000 
     46 O           0.8918  -18.5302  -45.5276 O.2       5 UNK        -0.5000 
     47 CA          1.9185  -16.4697  -46.2033 C.3       5 UNK         0.1400 
     48 CB          1.4844  -16.5507  -47.6750 C.3       5 UNK        -0.1800 
     49 N           2.0396  -15.0522  -45.8437 N.am      5 UNK        -0.5000 
     50 C           2.5962  -14.5570  -44.7308 C.2       4 UNK         0.5000 
     51 O           2.9601  -15.2584  -43.7862 O.2       4 UNK        -0.5000 
     52 CA          2.7466  -13.0213  -44.6772 C.3       4 UNK         0.1400 
     53 CB          3.7028  -12.5524  -43.5610 C.3       4 UNK        -0.1800 
     54 N           3.1270  -12.4357  -45.9706 N.am      4 UNK        -0.5000 
     55 C           4.2326  -12.6856  -46.6886 C.2       3 UNK         0.5000 
     56 O           5.1045  -13.4874  -46.3491 O.2       3 UNK        -0.5000 
     57 CA          4.3639  -11.9190  -48.0236 C.3       3 UNK         0.1400 
     58 CB          5.7191  -12.1578  -48.7146 C.3       3 UNK        -0.1800 
     59 N           3.2952  -12.2597  -48.9666 N.am      3 UNK        -0.5000 
     60 C           2.0354  -11.8088  -48.9156 C.2       2 UNK         0.5000 
     61 O           1.6398  -11.0471  -48.0304 O.2       2 UNK        -0.5000 
     62 CA          1.0641  -12.2841  -50.0208 C.3       2 UNK         0.1400 
     63 CB          1.5137  -13.5781  -50.7292 C.3       2 UNK        -0.1800 
     64 N          -0.2725  -12.4967  -49.4697 N.am      2 UNK        -0.5000 
     65 C          -1.2291  -11.5649  -49.3527 C.2       1 UNK         0.5000 
     66 O          -1.1377  -10.4243  -49.8100 O.2       1 UNK        -0.5000 
     67 C          -3.1532  -22.5456  -45.5441 C.2       11 UNK         0.5000 
     68 O          -3.8623  -22.7394  -46.5313 O.2       11 UNK        -0.5000 
     69 N          -2.9824  -23.4574  -44.5725 N.am      12 UNK        -0.5000 
     70 CA         -3.5448  -24.8083  -44.6148 C.3       12 UNK         0.1400 
     71 CB         -3.4415  -25.4575  -43.2269 C.3       12 UNK        -0.1800 
     72 C          -2.8604  -25.6840  -45.6802 C.2       12 UNK         0.5000 
     73 O          -3.5439  -26.4305  -46.3802 O.2       12 UNK        -0.5000 
     74 N          -1.5339  -25.5406  -45.8192 N.am      13 UNK        -0.5000 
     75 CA         -0.7301  -26.2032  -46.8502 C.3       13 UNK         0.1400 
     76 CB          0.7589  -26.1065  -46.4838 C.3       13 UNK        -0.1800 
     77 C          -0.9936  -25.6226  -48.2524 C.2       13 UNK         0.5000 
     78 O          -1.0074  -26.3702  -49.2302 O.2       13 UNK        -0.5000 
     79 N          -1.2470  -24.3077  -48.3154 N.am      14 UNK        -0.5000 
     80 CA         -1.6719  -23.5844  -49.5165 C.3       14 UNK         0.1400 
     81 CB         -1.4752  -22.0793  -49.2773 C.3       14 UNK        -0.1800 
     82 C          -3.1337  -23.8658  -49.9246 C.2       14 UNK         0.5000 
     83 O          -3.5366  -23.4515  -51.0133 O.2       14 UNK        -0.5000 
     84 N          -3.8963  -24.5308  -49.0429 N.am      15 UNK        -0.5000 
     85 CA         -5.3165  -24.8766  -49.1435 C.3       15 UNK         0.1400 
     86 CB         -5.5526  -25.8984  -50.2727 C.3       15 UNK        -0.1800 
     87 C          -6.2062  -23.6263  -49.2689 C.2       15 UNK         0.5000 
     88 O          -7.0243  -23.5366  -50.1841 O.2       15 UNK        -0.5000 
     89 N          -5.9864  -22.6548  -48.3709 N.am      16 UNK        -0.5000 
     90 CA         -6.6067  -21.3241  -48.3545 C.3       16 UNK         0.1400 
     91 CB         -8.1161  -21.4184  -48.0481 C.3       16 UNK        -0.1800 
     92 C          -6.2910  -20.5287  -49.6397 C.2       16 UNK         0.5000 
     93 O          -7.1663  -19.8615  -50.1924 O.2       16 UNK        -0.5000 
     94 N          -5.0394  -20.6717  -50.1003 N.am      17 UNK        -0.5000 
     95 CA         -4.4372  -20.1356  -51.3252 C.3       17 UNK         0.1400 
     96 CB         -4.6168  -18.6082  -51.4218 C.3       17 UNK        -0.1800 
     97 C          -4.8782  -20.8372  -52.6255 C.2       17 UNK         0.5000 
     98 O          -4.3234  -20.5181  -53.6773 O.2       17 UNK        -0.5000 
     99 N          -5.8328  -21.7773  -52.5638 N.am      18 UNK        -0.5000 
    100 CA        -6.4137  -22.4302  -53.7386 C.3       18 UNK         0.1400 
    101 CB        -7.7253  -23.1275  -53.3493 C.3       18 UNK        -0.1800 
    102 C         -5.4651  -23.4236  -54.4322 C.2       18 UNK         0.5000 
    103 O         -5.5152  -23.5371  -55.6576 O.2       18 UNK        -0.5000 
    104 N         -4.6233  -24.1214  -53.6568 N.am      19 UNK        -0.5000 
    105 CA        -3.6396  -25.0700  -54.1854 C.3       19 UNK         0.1400 
    106 CB        -3.3694  -26.1830  -53.1611 C.3       19 UNK        -0.1800 
    107 C         -2.3331  -24.3646  -54.5778 C.2       19 UNK         0.5000 
    108 O         -1.6952  -24.7684  -55.5508 O.2       19 UNK        -0.5000 
    109 N         -1.9628  -23.3208  -53.8231 N.am      20 UNK        -0.5000 
    110 CA        -0.7814  -22.4993  -54.0882 C.3       20 UNK         0.1400 
    111 CB        -0.4446  -21.6789  -52.8357 C.3       20 UNK        -0.1800 
    112 C         -0.9546  -21.5680  -55.3015 C.2       20 UNK         0.5000 
    113 O          0.0288  -21.2876  -55.9875 O.2       20 UNK        -0.5000 
    114 N         -2.1903  -21.0895  -55.5195 N.am      21 UNK        -0.5000 
    115 CA        -2.5940  -20.0810  -56.5074 C.3       21 UNK         0.1400 
    116 CB        -2.4118  -20.6081  -57.9458 C.3       21 UNK        -0.1800 
    117 C         -1.9151  -18.7137  -56.2669 C.2       21 UNK         0.5000 
    118 O         -1.6523  -17.9734  -57.2165 O.2       21 UNK        -0.5000 
    119 N         -1.6280  -18.4162  -54.9933 N.am      22 UNK        -0.5000 
    120 CA        -0.8902  -17.2292  -54.5375 C.3       22 UNK         0.1400 
    121 C         -1.7538  -15.9443  -54.3647 C.2       22 UNK         0.5000 
    122 N         -3.0710  -16.0008  -54.5208 N.am      22 UNK        -0.7600 
    123 O         -1.2155  -14.8733  -54.0993 O.2       22 UNK        -0.5000 
    124 C124       -0.0398  -17.5542  -53.2809 C.3       23 UNK        -0.0398 
    125 S125       -1.0296  -18.0584  -51.8284 S.3       23 UNK        -0.2404 
    126 C126       -0.8487  -16.5844  -50.7815 C.3       23 UNK        -0.0205 
    127 H127       -2.5730  -14.6184  -45.4026 H         1 UNK         0.0600 
    128 H128       -1.1324  -15.1406  -46.2897 H         1 UNK         0.0600 
    129 H129       -0.9670  -14.1787  -44.8156 H         1 UNK         0.0600 
    130 H130       -2.7428  -13.9826  -47.9655 H         1 UNK         0.3000 
    131 H131       -2.8009  -11.1301  -47.9781 H         1 UNK         0.0600 
    132 H132       -3.9382  -11.2896  -50.0894 H         1 UNK         0.0800 
    133 H133       -3.3539  -12.8903  -50.4085 H         1 UNK         0.0800 
    134 H134       -5.4031  -14.4554  -50.6467 H         1 UNK         0.0800 
    135 H135       -6.2354  -15.0197  -49.2236 H         1 UNK         0.0800 
    136 H136       -3.1055  -15.1147  -51.0686 H         1 UNK         0.1150 
    137 H137       -1.1531  -17.7740  -48.3414 H         1 UNK         0.1150 
    138 H138       -4.9045  -15.9897  -47.2733 H         1 UNK         0.1150 
    139 H139       -1.9449  -17.9553  -46.0939 H         1 UNK         0.0800 
    140 H140       -3.2936  -16.9959  -45.5288 H         1 UNK         0.0800 
    141 H141       -2.7433  -19.3704  -44.2881 H         1 UNK         0.0800 
    142 H142       -4.0986  -20.4431  -44.2718 H         1 UNK         0.0800 
    143 H143       -2.0479  -20.9529  -46.4287 H         1 UNK         0.0600 
    144 H144       -1.0997  -20.8952  -43.7489 H         1 UNK         0.3000 
    145 H145        1.2873  -23.3663  -44.0282 H         1 UNK         0.0600 
    146 H146        3.1791  -21.8379  -43.8855 H         1 UNK         0.0600 
    147 H147        2.5509  -21.7748  -45.5247 H         1 UNK         0.0600 
    148 H148        2.1931  -20.4726  -44.3963 H         1 UNK         0.0600 
    149 H149        1.3350  -21.2225  -42.2216 H         1 UNK         0.3000 
    150 H150       -1.0669  -21.2314  -40.4452 H         1 UNK         0.0600 
    151 H151       -1.8788  -23.4518  -39.7949 H         1 UNK         0.0600 
    152 H152       -0.9792  -22.7603  -38.4559 H         1 UNK         0.0600 
    153 H153       -0.2486  -24.0128  -39.4599 H         1 UNK         0.0600 
    154 H154        0.8458  -20.4412  -39.7314 H         1 UNK         0.3000 
    155 H155        3.1954  -21.1551  -38.0951 H         1 UNK         0.0600 
    156 H156        5.4138  -20.9908  -39.2617 H         1 UNK         0.0600 
    157 H157        4.7048  -21.7231  -40.7004 H         1 UNK         0.0600 
    158 H158        4.8118  -22.6382  -39.2037 H         1 UNK         0.0600 
    159 H159        2.9782  -19.0715  -38.7886 H         1 UNK         0.3000 
    160 H160        2.2760  -17.3619  -39.9809 H         1 UNK         0.0600 
    161 H161        4.4462  -17.2239  -42.1421 H         1 UNK         0.0600 
    162 H162        4.7470  -17.1680  -40.4084 H         1 UNK         0.0600 
    163 H163        3.8441  -15.8743  -41.1810 H         1 UNK         0.0600 
    164 H164        2.0642  -16.7482  -42.6939 H         1 UNK         0.3000 
    165 H165       -0.8634  -18.2835  -43.6678 H         1 UNK         0.0600 
    166 H166       -1.0841  -15.5358  -42.3274 H         1 UNK         0.0600 
    167 H167       -2.1885  -16.1956  -43.5330 H         1 UNK         0.0600 
    168 H168       -2.0821  -16.9341  -41.9480 H         1 UNK         0.0600 
    169 H169        0.5428  -15.7302  -44.1554 H         1 UNK         0.3000 
    170 H170        2.9147  -16.9099  -46.1256 H         1 UNK         0.0600 
    171 H171        1.3465  -17.5839  -47.9966 H         1 UNK         0.0600 
    172 H172        0.5476  -16.0210  -47.8439 H         1 UNK         0.0600 
    173 H173        2.2387  -16.1122  -48.3282 H         1 UNK         0.0600 
    174 H174        1.7724  -14.3914  -46.5570 H         1 UNK         0.3000 
    175 H175        1.7549  -12.6296  -44.4462 H         1 UNK         0.0600 
    176 H176        4.7085  -12.9524  -43.6940 H         1 UNK         0.0600 
    177 H177        3.7747  -11.4652  -43.5344 H         1 UNK         0.0600 
    178 H178        3.3500  -12.8772  -42.5814 H         1 UNK         0.0600 
    179 H179        2.4561  -11.7909  -46.3802 H         1 UNK         0.3000 
    180 H180        4.2997  -10.8541  -47.7897 H         1 UNK         0.0600 
    181 H181        6.5466  -11.8875  -48.0574 H         1 UNK         0.0600 
    182 H182        5.8502  -13.2033  -48.9967 H         1 UNK         0.0600 
    183 H183        5.8134  -11.5529  -49.6166 H         1 UNK         0.0600 
    184 H184        3.5446  -12.9037  -49.7031 H         1 UNK         0.3000 
    185 H185        1.0247  -11.4913  -50.7704 H         1 UNK         0.0600 
    186 H186        2.4657  -13.4448  -51.2442 H         1 UNK         0.0600 
    187 H187        1.6207  -14.4085  -50.0310 H         1 UNK         0.0600 
    188 H188        0.7902  -13.8737  -51.4891 H         1 UNK         0.0600 
    189 H189       -0.4420  -13.3891  -49.0318 H         1 UNK         0.3000 
    190 H190       -2.3622  -23.2521  -43.7957 H         1 UNK         0.3000 
    191 H191       -4.6030  -24.7298  -44.8736 H         1 UNK         0.0600 
    192 H192       -3.9160  -26.4395  -43.2208 H         1 UNK         0.0600 
    193 H193       -3.9378  -24.8511  -42.4691 H         1 UNK         0.0600 
    194 H194       -2.4040  -25.5940  -42.9198 H         1 UNK         0.0600 
    195 H195       -1.0548  -24.8780  -45.2273 H         1 UNK         0.3000 
    196 H196       -1.0053  -27.2599  -46.8706 H         1 UNK         0.0600 
    197 H197        1.3727  -26.6368  -47.2129 H         1 UNK         0.0600 
    198 H198        0.9551  -26.5526  -45.5088 H         1 UNK         0.0600 
    199 H199        1.1057  -25.0734  -46.4562 H         1 UNK         0.0600 
    200 H200       -1.1223  -23.7558  -47.4729 H         1 UNK         0.3000 
    201 H201       -1.0327  -23.8929  -50.3457 H         1 UNK         0.0600 
    202 H202       -0.4663  -21.8573  -48.9285 H         1 UNK         0.0600 
    203 H203       -2.1799  -21.6968  -48.5410 H         1 UNK         0.0600 
    204 H204       -1.6318  -21.5113  -50.1923 H         1 UNK         0.0600 
    205 H205       -3.4587  -24.7936  -48.1708 H         1 UNK         0.3000 
    206 H206       -5.5835  -25.3562  -48.2008 H         1 UNK         0.0600 
    207 H207       -4.8748  -26.7479  -50.1880 H         1 UNK         0.0600 
    208 H208       -6.5707  -26.2871  -50.2370 H         1 UNK         0.0600 
    209 H209       -5.4132  -25.4502  -51.2551 H         1 UNK         0.0600 
    210 H210       -5.2521  -22.7981  -47.6777 H         1 UNK         0.3000 
    211 H211       -6.1414  -20.7801  -47.5330 H         1 UNK         0.0600 
    212 H212       -8.6678  -21.8973  -48.8574 H         1 UNK         0.0600 
    213 H213       -8.5458  -20.4266  -47.9034 H         1 UNK         0.0600 
    214 H214       -8.2975  -21.9863  -47.1357 H         1 UNK         0.0600 
    215 H215       -4.4386  -21.2894  -49.5747 H         1 UNK         0.3000 
    216 H216       -3.3685  -20.3269  -51.2326 H         1 UNK         0.0600 
    217 H217       -5.6473  -18.3270  -51.6374 H         1 UNK         0.0600 
    218 H218       -3.9989  -18.1890  -52.2161 H         1 UNK         0.0600 
    219 H219       -4.3246  -18.1253  -50.4907 H         1 UNK         0.0600 
    220 H220       -6.2173  -22.0346  -51.6633 H         1 UNK         0.3000 
    221 H221       -6.6570  -21.6492  -54.4623 H         1 UNK         0.0600 
    222 H222       -7.5484  -23.9844  -52.6989 H         1 UNK         0.0600 
    223 H223       -8.4012  -22.4455  -52.8329 H         1 UNK         0.0600 
    224 H224       -8.2458  -23.4954  -54.2343 H         1 UNK         0.0600 
    225 H225       -4.5888  -23.9289  -52.6605 H         1 UNK         0.3000 
    226 H226       -4.0405  -25.5455  -55.0833 H         1 UNK         0.0600 
    227 H227       -4.2784  -26.7409  -52.9380 H         1 UNK         0.0600 
    228 H228       -2.6419  -26.8976  -53.5480 H         1 UNK         0.0600 
    229 H229       -2.9722  -25.7920  -52.2249 H         1 UNK         0.0600 
    230 H230       -2.5349  -23.0753  -53.0259 H         1 UNK         0.3000 
    231 H231        0.0624  -23.1606  -54.2967 H         1 UNK         0.0600 
    232 H232       -1.2836  -21.0538  -52.5298 H         1 UNK         0.0600 
    233 H233       -0.1790  -22.3279  -52.0025 H         1 UNK         0.0600 
    234 H234        0.4069  -21.0206  -53.0131 H         1 UNK         0.0600 
    235 H235       -2.9193  -21.3340  -54.8574 H         1 UNK         0.3000 
    236 H236       -3.6613  -19.9179  -56.3524 H         1 UNK         0.0600 
    237 H237       -2.8983  -21.5751  -58.0745 H         1 UNK         0.0600 
    238 H238       -2.8540  -19.9241  -58.6710 H         1 UNK         0.0600 
    239 H239       -1.3597  -20.7239  -58.2071 H         1 UNK         0.0600 
    240 H240       -1.9122  -19.0622  -54.2713 H         1 UNK         0.3000 
    241 H241       -0.1769  -16.9754  -55.3240 H         1 UNK         0.0600 
    242 H242       -3.5212  -16.8733  -54.7437 H         1 UNK         0.3800 
    243 H243       -3.6194  -15.1621  -54.4190 H         1 UNK         0.3800 
    244 H244        0.6025  -16.7100  -53.0248 H         1 UNK         0.0800 
    245 H245        0.6441  -18.3719  -53.5121 H         1 UNK         0.0800 
    246 H246       -0.8015  -15.6918  -51.4062 H         1 UNK         0.0800 
    247 H247        0.1014  -16.6376  -50.2498 H         1 UNK         0.0800 
@<TRIPOS>BOND
     1    1    2 1    
     2    1  127 1    
     3    1  128 1    
     4    1  129 1    
     5    2    3 2    
     6    2    4 am   BACKBONE|DICT|INTERRES
     7    4    5 1    
     8    4  130 1    
     9    5    6 1    
    10    5   65 1    
    11    5  131 1    
    12    6    7 1    
    13    6  132 1    
    14    6  133 1    
    15    7    8 1    
    16    8    9 1    
    17    8  134 1    
    18    8  135 1    
    19    9   10 ar   
    20    9   14 ar   
    21   10   11 ar   
    22   10  136 1    
    23   11   12 ar   
    24   11  126 1    
    25   12   13 ar   
    26   12  137 1    
    27   13   14 ar   
    28   13   15 1    
    29   14  138 1    
    30   15   16 1    
    31   15  139 1    
    32   15  140 1    
    33   16   17 1    
    34   17   18 1    
    35   17  141 1    
    36   17  142 1    
    37   18   19 1    
    38   18   67 1    
    39   18  143 1    
    40   19   20 am   BACKBONE|DICT|INTERRES
    41   19  144 1    
    42   20   21 2    
    43   20   22 1    
    44   22   23 1    
    45   22   24 1    
    46   22  145 1    
    47   23  146 1    
    48   23  147 1    
    49   23  148 1    
    50   24   25 am   BACKBONE|DICT|INTERRES
    51   24  149 1    
    52   25   26 2    
    53   25   27 1    
    54   27   28 1    
    55   27   29 1    
    56   27  150 1    
    57   28  151 1    
    58   28  152 1    
    59   28  153 1    
    60   29   30 am   BACKBONE|DICT|INTERRES
    61   29  154 1    
    62   30   31 2    
    63   30   32 1    
    64   32   33 1    
    65   32   34 1    
    66   32  155 1    
    67   33  156 1    
    68   33  157 1    
    69   33  158 1    
    70   34   35 am   BACKBONE|DICT|INTERRES
    71   34  159 1    
    72   35   36 2    
    73   35   37 1    
    74   37   38 1    
    75   37   39 1    
    76   37  160 1    
    77   38  161 1    
    78   38  162 1    
    79   38  163 1    
    80   39   40 am   BACKBONE|DICT|INTERRES
    81   39  164 1    
    82   40   41 2    
    83   40   42 1    
    84   42   43 1    
    85   42   44 1    
    86   42  165 1    
    87   43  166 1    
    88   43  167 1    
    89   43  168 1    
    90   44   45 am   BACKBONE|DICT|INTERRES
    91   44  169 1    
    92   45   46 2    
    93   45   47 1    
    94   47   48 1    
    95   47   49 1    
    96   47  170 1    
    97   48  171 1    
    98   48  172 1    
    99   48  173 1    
   100   49   50 am   BACKBONE|DICT|INTERRES
   101   49  174 1    
   102   50   51 2    
   103   50   52 1    
   104   52   53 1    
   105   52   54 1    
   106   52  175 1    
   107   53  176 1    
   108   53  177 1    
   109   53  178 1    
   110   54   55 am   BACKBONE|DICT|INTERRES
   111   54  179 1    
   112   55   56 2    
   113   55   57 1    
   114   57   58 1    
   115   57   59 1    
   116   57  180 1    
   117   58  181 1    
   118   58  182 1    
   119   58  183 1    
   120   59   60 am   BACKBONE|DICT|INTERRES
   121   59  184 1    
   122   60   61 2    
   123   60   62 1    
   124   62   63 1    
   125   62   64 1    
   126   62  185 1    
   127   63  186 1    
   128   63  187 1    
   129   63  188 1    
   130   64   65 am   BACKBONE|DICT|INTERRES
   131   64  189 1    
   132   65   66 2    
   133   67   68 2    
   134   67   69 am   BACKBONE|DICT|INTERRES
   135   69   70 1    
   136   69  190 1    
   137   70   71 1    
   138   70   72 1    
   139   70  191 1    
   140   71  192 1    
   141   71  193 1    
   142   71  194 1    
   143   72   73 2    
   144   72   74 am   BACKBONE|DICT|INTERRES
   145   74   75 1    
   146   74  195 1    
   147   75   76 1    
   148   75   77 1    
   149   75  196 1    
   150   76  197 1    
   151   76  198 1    
   152   76  199 1    
   153   77   78 2    
   154   77   79 am   BACKBONE|DICT|INTERRES
   155   79   80 1    
   156   79  200 1    
   157   80   81 1    
   158   80   82 1    
   159   80  201 1    
   160   81  202 1    
   161   81  203 1    
   162   81  204 1    
   163   82   83 2    
   164   82   84 am   BACKBONE|DICT|INTERRES
   165   84   85 1    
   166   84  205 1    
   167   85   86 1    
   168   85   87 1    
   169   85  206 1    
   170   86  207 1    
   171   86  208 1    
   172   86  209 1    
   173   87   88 2    
   174   87   89 am   BACKBONE|DICT|INTERRES
   175   89   90 1    
   176   89  210 1    
   177   90   91 1    
   178   90   92 1    
   179   90  211 1    
   180   91  212 1    
   181   91  213 1    
   182   91  214 1    
   183   92   93 2    
   184   92   94 am   BACKBONE|DICT|INTERRES
   185   94   95 1    
   186   94  215 1    
   187   95   96 1    
   188   95   97 1    
   189   95  216 1    
   190   96  217 1    
   191   96  218 1    
   192   96  219 1    
   193   97   98 2    
   194   97   99 am   BACKBONE|DICT|INTERRES
   195   99  100 1    
   196   99  220 1    
   197  100  101 1    
   198  100  102 1    
   199  100  221 1    
   200  101  222 1    
   201  101  223 1    
   202  101  224 1    
   203  102  103 2    
   204  102  104 am   BACKBONE|DICT|INTERRES
   205  104  105 1    
   206  104  225 1    
   207  105  106 1    
   208  105  107 1    
   209  105  226 1    
   210  106  227 1    
   211  106  228 1    
   212  106  229 1    
   213  107  108 2    
   214  107  109 am   BACKBONE|DICT|INTERRES
   215  109  110 1    
   216  109  230 1    
   217  110  111 1    
   218  110  112 1    
   219  110  231 1    
   220  111  232 1    
   221  111  233 1    
   222  111  234 1    
   223  112  113 2    
   224  112  114 am   BACKBONE|DICT|INTERRES
   225  114  115 1    
   226  114  235 1    
   227  115  116 1    
   228  115  117 1    
   229  115  236 1    
   230  116  237 1    
   231  116  238 1    
   232  116  239 1    
   233  117  118 2    
   234  117  119 am   BACKBONE|DICT|INTERRES
   235  119  120 1    
   236  119  240 1    
   237  120  121 1    
   238  120  124 1    
   239  120  241 1    
   240  121  122 am   BACKBONE|DICT|INTERRES
   241  121  123 2    
   242  122  242 1    
   243  122  243 1    
   244  124  125 1    
   245  124  244 1    
   246  124  245 1    
   247  125  126 1    
   248  126  246 1    
   249  126  247 1    
@<TRIPOS>SUBSTRUCTURE
     1 UNK         1 GROUP             0       ****    0 ROOT    
