@<TRIPOS>MOLECULE
3R540
247   249    1
SMALL
USER_CHARGES


@<TRIPOS>ATOM
      1 CA          1.0746  -10.5485  -47.5017 C.3       0 UNK        -0.1800 
      2 C           1.3339  -10.9643  -48.9497 C.2       0 UNK         0.5000 
      3 O           1.5389  -10.0894  -49.7881 O.2       0 UNK        -0.5000 
      4 N           1.3513  -12.2582  -49.3115 N.am      1 UNK        -0.5000 
      5 CA          1.1307  -13.4735  -48.5047 C.3       1 UNK         0.1400 
      6 C6         -0.2538  -13.5393  -47.7984 C.3       23 UNK        -0.0398 
      7 S7         -1.6581  -13.2783  -48.9335 S.3       23 UNK        -0.2404 
      8 C8         -2.3099  -14.9654  -49.1010 C.3       23 UNK        -0.0205 
      9 C9         -1.3808  -15.8489  -49.9145 C.ar      23 UNK        -0.0193 
     10 C10        -1.3853  -15.7621  -51.3077 C.ar      23 UNK        -0.1150 
     11 C11        -0.5416  -16.5686  -52.0740 C.ar      23 UNK        -0.0193 
     12 C12         0.3117  -17.4712  -51.4346 C.ar      23 UNK        -0.1150 
     13 C13         0.3234  -17.5684  -50.0395 C.ar      23 UNK        -0.0193 
     14 C14        -0.5244  -16.7548  -49.2830 C.ar      23 UNK        -0.1150 
     15 C15         1.2556  -18.5516  -49.3541 C.3       23 UNK        -0.0205 
     16 S16         0.4812  -20.1864  -49.1800 S.3       23 UNK        -0.2404 
     17 C17        -0.6635  -19.9468  -47.7764 C.3       23 UNK        -0.0398 
     18 CA         -0.6548  -21.1846  -46.8447 C.3       11 UNK         0.1400 
     19 N          -0.9746  -20.8664  -45.4486 N.am      11 UNK        -0.5000 
     20 C          -0.8830  -21.7489  -44.4405 C.2       10 UNK         0.5000 
     21 O          -0.4554  -22.8953  -44.5740 O.2       10 UNK        -0.5000 
     22 CA         -1.4284  -21.3099  -43.0732 C.3       10 UNK         0.1400 
     23 CB         -0.3692  -20.5342  -42.2779 C.3       10 UNK        -0.1800 
     24 N          -2.6451  -20.5110  -43.2210 N.am      10 UNK        -0.5000 
     25 C          -3.8388  -21.0298  -43.5484 C.2       9 UNK         0.5000 
     26 O          -4.0425  -22.2355  -43.6825 O.2       9 UNK        -0.5000 
     27 CA         -4.9946  -20.0427  -43.7971 C.3       9 UNK         0.1400 
     28 CB         -5.7669  -19.7822  -42.4954 C.3       9 UNK        -0.1800 
     29 N          -4.5534  -18.7652  -44.3563 N.am      9 UNK        -0.5000 
     30 C          -4.0060  -18.6039  -45.5694 C.2       8 UNK         0.5000 
     31 O          -3.8311  -19.5204  -46.3724 O.2       8 UNK        -0.5000 
     32 CA         -3.5128  -17.1836  -45.9086 C.3       8 UNK         0.1400 
     33 CB         -4.6641  -16.3407  -46.4779 C.3       8 UNK        -0.1800 
     34 N          -2.9293  -16.4854  -44.7568 N.am      8 UNK        -0.5000 
     35 C          -1.8758  -16.9234  -44.0550 C.2       7 UNK         0.5000 
     36 O          -1.2579  -17.9517  -44.3367 O.2       7 UNK        -0.5000 
     37 CA         -1.4694  -16.0850  -42.8330 C.3       7 UNK         0.1400 
     38 CB         -1.0596  -16.9639  -41.6404 C.3       7 UNK        -0.1800 
     39 N          -0.3634  -15.2015  -43.1872 N.am      7 UNK        -0.5000 
     40 C          -0.5148  -13.9393  -43.6109 C.2       6 UNK         0.5000 
     41 O          -1.6168  -13.4009  -43.7263 O.2       6 UNK        -0.5000 
     42 CA          0.7438  -13.1427  -44.0139 C.3       6 UNK         0.1400 
     43 CB          0.7710  -11.7233  -43.4105 C.3       6 UNK        -0.1800 
     44 N           2.0109  -13.8519  -43.8176 N.am      6 UNK        -0.5000 
     45 C           2.6557  -14.0987  -42.6684 C.2       5 UNK         0.5000 
     46 O           2.2637  -13.7221  -41.5632 O.2       5 UNK        -0.5000 
     47 CA          3.9541  -14.9275  -42.7926 C.3       5 UNK         0.1400 
     48 CB          4.4032  -15.5414  -41.4503 C.3       5 UNK        -0.1800 
     49 N           3.8906  -15.9645  -43.8319 N.am      5 UNK        -0.5000 
     50 C           2.9965  -16.9633  -43.9159 C.2       4 UNK         0.5000 
     51 O           2.0656  -17.1018  -43.1235 O.2       4 UNK        -0.5000 
     52 CA          3.1568  -17.9527  -45.0853 C.3       4 UNK         0.1400 
     53 CB          1.8167  -18.5597  -45.5250 C.3       4 UNK        -0.1800 
     54 N           3.7885  -17.3041  -46.2341 N.am      4 UNK        -0.5000 
     55 C           4.9269  -17.7046  -46.8166 C.2       3 UNK         0.5000 
     56 O           5.5320  -18.7307  -46.5048 O.2       3 UNK        -0.5000 
     57 CA          5.5126  -16.7957  -47.9187 C.3       3 UNK         0.1400 
     58 CB          5.1585  -17.3411  -49.3106 C.3       3 UNK        -0.1800 
     59 N           5.0798  -15.3979  -47.8391 N.am      3 UNK        -0.5000 
     60 C           5.2964  -14.5666  -46.8101 C.2       2 UNK         0.5000 
     61 O           5.9262  -14.8778  -45.7990 O.2       2 UNK        -0.5000 
     62 CA          4.6431  -13.1745  -46.8928 C.3       2 UNK         0.1400 
     63 CB          5.6574  -12.1313  -47.3832 C.3       2 UNK        -0.1800 
     64 N           3.4498  -13.1169  -47.7443 N.am      2 UNK        -0.5000 
     65 C           2.3061  -13.7906  -47.5471 C.2       1 UNK         0.5000 
     66 O           2.1692  -14.6301  -46.6537 O.2       1 UNK        -0.5000 
     67 C          -1.5662  -22.3028  -47.3895 C.2       11 UNK         0.5000 
     68 O          -1.0615  -23.2716  -47.9521 O.2       11 UNK        -0.5000 
     69 N          -2.8772  -22.1814  -47.1387 N.am      12 UNK        -0.5000 
     70 CA         -3.8955  -23.1627  -47.5183 C.3       12 UNK         0.1400 
     71 CB         -5.2846  -22.5335  -47.3351 C.3       12 UNK        -0.1800 
     72 C          -3.8008  -24.5075  -46.7693 C.2       12 UNK         0.5000 
     73 O          -4.3824  -25.4901  -47.2317 O.2       12 UNK        -0.5000 
     74 N          -3.0892  -24.5388  -45.6354 N.am      13 UNK        -0.5000 
     75 CA         -2.7647  -25.7584  -44.9008 C.3       13 UNK         0.1400 
     76 CB         -2.6265  -25.4413  -43.4036 C.3       13 UNK        -0.1800 
     77 C          -1.4820  -26.4056  -45.4502 C.2       13 UNK         0.5000 
     78 O          -1.4608  -27.6192  -45.6567 O.2       13 UNK        -0.5000 
     79 N          -0.4419  -25.5887  -45.6789 N.am      14 UNK        -0.5000 
     80 CA          0.8568  -26.0053  -46.2125 C.3       14 UNK         0.1400 
     81 CB          1.8492  -24.8357  -46.1116 C.3       14 UNK        -0.1800 
     82 C           0.7602  -26.5248  -47.6578 C.2       14 UNK         0.5000 
     83 O           1.2230  -27.6291  -47.9462 O.2       14 UNK        -0.5000 
     84 N           0.1195  -25.7350  -48.5247 N.am      15 UNK        -0.5000 
     85 CA         -0.3001  -26.1154  -49.8650 C.3       15 UNK         0.1400 
     86 CB         -0.0423  -24.9379  -50.8232 C.3       15 UNK        -0.1800 
     87 C          -1.7858  -26.4802  -49.7506 C.2       15 UNK         0.5000 
     88 O          -2.6426  -25.6191  -49.9447 O.2       15 UNK        -0.5000 
     89 N          -2.0407  -27.7309  -49.3414 N.am      16 UNK        -0.5000 
     90 CA         -3.3330  -28.2898  -48.9349 C.3       16 UNK         0.1400 
     91 CB         -3.1758  -29.8078  -48.7467 C.3       16 UNK        -0.1800 
     92 C          -4.5001  -27.9628  -49.8893 C.2       16 UNK         0.5000 
     93 O          -4.6047  -28.5653  -50.9601 O.2       16 UNK        -0.5000 
     94 N          -5.3357  -27.0018  -49.4710 N.am      17 UNK        -0.5000 
     95 CA         -6.5095  -26.4624  -50.1671 C.3       17 UNK         0.1400 
     96 CB         -7.5944  -27.5469  -50.3361 C.3       17 UNK        -0.1800 
     97 C          -6.1843  -25.7284  -51.4889 C.2       17 UNK         0.5000 
     98 O          -7.0604  -25.6013  -52.3478 O.2       17 UNK        -0.5000 
     99 N          -4.9478  -25.2389  -51.6229 N.am      18 UNK        -0.5000 
    100 CA        -4.4576  -24.4286  -52.7340 C.3       18 UNK         0.1400 
    101 CB        -3.3193  -25.1989  -53.4260 C.3       18 UNK        -0.1800 
    102 C         -3.9838  -23.0607  -52.2078 C.2       18 UNK         0.5000 
    103 O         -4.0749  -22.7930  -51.0076 O.2       18 UNK        -0.5000 
    104 N         -3.4963  -22.2109  -53.1236 N.am      19 UNK        -0.5000 
    105 CA        -3.0178  -20.8444  -52.8783 C.3       19 UNK         0.1400 
    106 CB        -1.7260  -20.8664  -52.0296 C.3       19 UNK        -0.1800 
    107 C         -4.1238  -19.9268  -52.3058 C.2       19 UNK         0.5000 
    108 O         -5.3003  -20.1360  -52.6153 O.2       19 UNK        -0.5000 
    109 N         -3.7302  -18.9125  -51.5200 N.am      20 UNK        -0.5000 
    110 CA        -4.5479  -17.9056  -50.8282 C.3       20 UNK         0.1400 
    111 CB        -5.5041  -18.5567  -49.8099 C.3       20 UNK        -0.1800 
    112 C         -5.2917  -16.9326  -51.7660 C.2       20 UNK         0.5000 
    113 O         -5.1163  -15.7193  -51.6473 O.2       20 UNK        -0.5000 
    114 N         -6.0765  -17.4743  -52.7063 N.am      21 UNK        -0.5000 
    115 CA        -6.8489  -16.7485  -53.7216 C.3       21 UNK         0.1400 
    116 CB        -7.7473  -17.7471  -54.4668 C.3       21 UNK        -0.1800 
    117 C         -5.9767  -15.9573  -54.7180 C.2       21 UNK         0.5000 
    118 O         -6.4624  -15.0104  -55.3379 O.2       21 UNK        -0.5000 
    119 N         -4.7016  -16.3456  -54.8271 N.am      22 UNK        -0.5000 
    120 CA        -3.6242  -15.6144  -55.5068 C.3       22 UNK         0.1400 
    121 C         -3.2208  -14.2652  -54.8362 C.2       22 UNK         0.5000 
    122 N         -3.6647  -13.9517  -53.6236 N.am      22 UNK        -0.7600 
    123 O         -2.4950  -13.4788  -55.4388 O.2       22 UNK        -0.5000 
    124 C124       -2.3916  -16.5297  -55.7524 C.3       23 UNK        -0.0398 
    125 S125       -1.8801  -17.4966  -54.2849 S.3       23 UNK        -0.2404 
    126 C126       -0.5617  -16.4581  -53.5887 C.3       23 UNK        -0.0205 
    127 H127        0.0032  -10.4670  -47.3203 H         1 UNK         0.0600 
    128 H128        1.5164   -9.5705  -47.3101 H         1 UNK         0.0600 
    129 H129        1.5033  -11.2377  -46.7775 H         1 UNK         0.0600 
    130 H130        1.5175  -12.4517  -50.2893 H         1 UNK         0.3000 
    131 H131        1.1480  -14.2905  -49.2274 H         1 UNK         0.0600 
    132 H132       -0.3806  -14.4959  -47.2890 H         1 UNK         0.0800 
    133 H133       -0.3402  -12.7847  -47.0213 H         1 UNK         0.0800 
    134 H134       -2.4735  -15.3894  -48.1121 H         1 UNK         0.0800 
    135 H135       -3.2876  -14.9192  -49.5831 H         1 UNK         0.0800 
    136 H136       -2.0484  -15.0628  -51.7951 H         1 UNK         0.1150 
    137 H137        0.9624  -18.1034  -52.0225 H         1 UNK         0.1150 
    138 H138       -0.5154  -16.8260  -48.2048 H         1 UNK         0.1150 
    139 H139        2.1640  -18.6661  -49.9468 H         1 UNK         0.0800 
    140 H140        1.5745  -18.1689  -48.3849 H         1 UNK         0.0800 
    141 H141       -1.6624  -19.7234  -48.1567 H         1 UNK         0.0800 
    142 H142       -0.3586  -19.0614  -47.2215 H         1 UNK         0.0800 
    143 H143        0.3625  -21.5826  -46.8222 H         1 UNK         0.0600 
    144 H144       -1.3146  -19.9334  -45.2480 H         1 UNK         0.3000 
    145 H145       -1.6748  -22.2099  -42.5054 H         1 UNK         0.0600 
    146 H146       -0.7598  -20.2003  -41.3167 H         1 UNK         0.0600 
    147 H147        0.4984  -21.1633  -42.0760 H         1 UNK         0.0600 
    148 H148       -0.0125  -19.6600  -42.8200 H         1 UNK         0.0600 
    149 H149       -2.5350  -19.5077  -43.1892 H         1 UNK         0.3000 
    150 H150       -5.6767  -20.5053  -44.5134 H         1 UNK         0.0600 
    151 H151       -6.6350  -19.1466  -42.6716 H         1 UNK         0.0600 
    152 H152       -6.1317  -20.7159  -42.0649 H         1 UNK         0.0600 
    153 H153       -5.1411  -19.2975  -41.7449 H         1 UNK         0.0600 
    154 H154       -4.6543  -17.9533  -43.7655 H         1 UNK         0.3000 
    155 H155       -2.7360  -17.2781  -46.6696 H         1 UNK         0.0600 
    156 H156       -5.4973  -16.2710  -45.7774 H         1 UNK         0.0600 
    157 H157       -5.0466  -16.7785  -47.3995 H         1 UNK         0.0600 
    158 H158       -4.3436  -15.3251  -46.7090 H         1 UNK         0.0600 
    159 H159       -3.3674  -15.6165  -44.4841 H         1 UNK         0.3000 
    160 H160       -2.3340  -15.5000  -42.5123 H         1 UNK         0.0600 
    161 H161       -0.1602  -17.5411  -41.8485 H         1 UNK         0.0600 
    162 H162       -1.8508  -17.6682  -41.3809 H         1 UNK         0.0600 
    163 H163       -0.8623  -16.3557  -40.7577 H         1 UNK         0.0600 
    164 H164        0.5620  -15.6167  -43.1606 H         1 UNK         0.3000 
    165 H165        0.6676  -13.0136  -45.0890 H         1 UNK         0.0600 
    166 H166        1.6639  -11.1795  -43.7189 H         1 UNK         0.0600 
    167 H167       -0.0904  -11.1431  -43.7432 H         1 UNK         0.0600 
    168 H168        0.7446  -11.7412  -42.3210 H         1 UNK         0.0600 
    169 H169        2.3864  -14.2632  -44.6656 H         1 UNK         0.3000 
    170 H170        4.7282  -14.2272  -43.1091 H         1 UNK         0.0600 
    171 H171        4.5831  -14.7661  -40.7047 H         1 UNK         0.0600 
    172 H172        3.6513  -16.2185  -41.0438 H         1 UNK         0.0600 
    173 H173        5.3317  -16.1008  -41.5643 H         1 UNK         0.0600 
    174 H174        4.6180  -15.9113  -44.5366 H         1 UNK         0.3000 
    175 H175        3.7835  -18.7625  -44.7072 H         1 UNK         0.0600 
    176 H176        1.1314  -17.7902  -45.8820 H         1 UNK         0.0600 
    177 H177        1.9626  -19.2913  -46.3190 H         1 UNK         0.0600 
    178 H178        1.3285  -19.0796  -44.7012 H         1 UNK         0.0600 
    179 H179        3.3583  -16.4391  -46.5417 H         1 UNK         0.3000 
    180 H180        6.5987  -16.8137  -47.8083 H         1 UNK         0.0600 
    181 H181        4.0879  -17.2762  -49.5051 H         1 UNK         0.0600 
    182 H182        5.4493  -18.3879  -49.4098 H         1 UNK         0.0600 
    183 H183        5.6755  -16.7868  -50.0941 H         1 UNK         0.0600 
    184 H184        4.5476  -15.0481  -48.6220 H         1 UNK         0.3000 
    185 H185        4.3372  -12.9017  -45.8805 H         1 UNK         0.0600 
    186 H186        6.5481  -12.1248  -46.7533 H         1 UNK         0.0600 
    187 H187        5.9794  -12.3331  -48.4056 H         1 UNK         0.0600 
    188 H188        5.2350  -11.1266  -47.3554 H         1 UNK         0.0600 
    189 H189        3.4835  -12.4660  -48.5162 H         1 UNK         0.3000 
    190 H190       -3.2123  -21.3290  -46.6982 H         1 UNK         0.3000 
    191 H191       -3.7569  -23.3897  -48.5750 H         1 UNK         0.0600 
    192 H192       -5.3855  -21.6247  -47.9293 H         1 UNK         0.0600 
    193 H193       -6.0699  -23.2193  -47.6551 H         1 UNK         0.0600 
    194 H194       -5.4730  -22.2775  -46.2921 H         1 UNK         0.0600 
    195 H195       -2.6772  -23.6794  -45.3008 H         1 UNK         0.3000 
    196 H196       -3.5795  -26.4772  -45.0120 H         1 UNK         0.0600 
    197 H197       -2.4176  -26.3466  -42.8326 H         1 UNK         0.0600 
    198 H198       -3.5464  -25.0112  -43.0072 H         1 UNK         0.0600 
    199 H199       -1.8184  -24.7371  -43.2070 H         1 UNK         0.0600 
    200 H200       -0.5325  -24.6044  -45.4437 H         1 UNK         0.3000 
    201 H201        1.2289  -26.8205  -45.5889 H         1 UNK         0.0600 
    202 H202        1.9843  -24.5235  -45.0759 H         1 UNK         0.0600 
    203 H203        1.5095  -23.9677  -46.6783 H         1 UNK         0.0600 
    204 H204        2.8292  -25.1190  -46.4975 H         1 UNK         0.0600 
    205 H205       -0.2736  -24.8544  -48.1918 H         1 UNK         0.3000 
    206 H206        0.2589  -26.9813  -50.2249 H         1 UNK         0.0600 
    207 H207        1.0112  -24.6592  -50.8261 H         1 UNK         0.0600 
    208 H208       -0.3093  -25.2041  -51.8453 H         1 UNK         0.0600 
    209 H209       -0.6169  -24.0513  -50.5513 H         1 UNK         0.0600 
    210 H210       -1.2471  -28.3366  -49.1900 H         1 UNK         0.3000 
    211 H211       -3.5633  -27.8694  -47.9547 H         1 UNK         0.0600 
    212 H212       -2.8559  -30.2975  -49.6675 H         1 UNK         0.0600 
    213 H213       -4.1190  -30.2631  -48.4425 H         1 UNK         0.0600 
    214 H214       -2.4424  -30.0352  -47.9724 H         1 UNK         0.0600 
    215 H215       -5.0856  -26.5142  -48.6113 H         1 UNK         0.3000 
    216 H216       -6.9156  -25.6986  -49.5021 H         1 UNK         0.0600 
    217 H217       -8.5289  -27.1140  -50.6954 H         1 UNK         0.0600 
    218 H218       -7.8114  -28.0394  -49.3880 H         1 UNK         0.0600 
    219 H219       -7.2938  -28.3126  -51.0521 H         1 UNK         0.0600 
    220 H220       -4.2850  -25.3484  -50.8566 H         1 UNK         0.3000 
    221 H221       -5.2524  -24.2437  -53.4589 H         1 UNK         0.0600 
    222 H222       -2.4777  -25.3563  -52.7525 H         1 UNK         0.0600 
    223 H223       -3.6592  -26.1779  -53.7645 H         1 UNK         0.0600 
    224 H224       -2.9476  -24.6664  -54.3018 H         1 UNK         0.0600 
    225 H225       -3.4986  -22.4989  -54.0919 H         1 UNK         0.3000 
    226 H226       -2.7631  -20.4369  -53.8573 H         1 UNK         0.0600 
    227 H227       -1.0044  -21.5782  -52.4304 H         1 UNK         0.0600 
    228 H228       -1.2367  -19.8927  -52.0224 H         1 UNK         0.0600 
    229 H229       -1.9236  -21.1466  -50.9939 H         1 UNK         0.0600 
    230 H230       -2.7350  -18.8083  -51.3771 H         1 UNK         0.3000 
    231 H231       -3.8429  -17.3026  -50.2562 H         1 UNK         0.0600 
    232 H232       -6.2105  -19.2379  -50.2841 H         1 UNK         0.0600 
    233 H233       -4.9509  -19.1202  -49.0573 H         1 UNK         0.0600 
    234 H234       -6.0906  -17.8011  -49.2866 H         1 UNK         0.0600 
    235 H235       -6.0996  -18.4912  -52.7507 H         1 UNK         0.3000 
    236 H236       -7.4865  -16.0290  -53.2041 H         1 UNK         0.0600 
    237 H237       -8.4280  -18.2527  -53.7814 H         1 UNK         0.0600 
    238 H238       -8.3580  -17.2423  -55.2168 H         1 UNK         0.0600 
    239 H239       -7.1591  -18.5097  -54.9792 H         1 UNK         0.0600 
    240 H240       -4.3989  -17.1311  -54.2705 H         1 UNK         0.3000 
    241 H241       -4.0109  -15.3342  -56.4884 H         1 UNK         0.0600 
    242 H242       -4.2485  -14.5879  -53.0920 H         1 UNK         0.3800 
    243 H243       -3.4029  -13.0667  -53.2202 H         1 UNK         0.3800 
    244 H244       -2.6424  -17.2500  -56.5319 H         1 UNK         0.0800 
    245 H245       -1.5431  -15.9675  -56.1470 H         1 UNK         0.0800 
    246 H246       -0.7060  -15.4147  -53.8709 H         1 UNK         0.0800 
    247 H247        0.3978  -16.7603  -54.0110 H         1 UNK         0.0800 
@<TRIPOS>BOND
     1    1    2 1    
     2    1  127 1    
     3    1  128 1    
     4    1  129 1    
     5    2    3 2    
     6    2    4 am   BACKBONE|DICT|INTERRES
     7    4    5 1    
     8    4  130 1    
     9    5    6 1    
    10    5   65 1    
    11    5  131 1    
    12    6    7 1    
    13    6  132 1    
    14    6  133 1    
    15    7    8 1    
    16    8    9 1    
    17    8  134 1    
    18    8  135 1    
    19    9   10 ar   
    20    9   14 ar   
    21   10   11 ar   
    22   10  136 1    
    23   11   12 ar   
    24   11  126 1    
    25   12   13 ar   
    26   12  137 1    
    27   13   14 ar   
    28   13   15 1    
    29   14  138 1    
    30   15   16 1    
    31   15  139 1    
    32   15  140 1    
    33   16   17 1    
    34   17   18 1    
    35   17  141 1    
    36   17  142 1    
    37   18   19 1    
    38   18   67 1    
    39   18  143 1    
    40   19   20 am   BACKBONE|DICT|INTERRES
    41   19  144 1    
    42   20   21 2    
    43   20   22 1    
    44   22   23 1    
    45   22   24 1    
    46   22  145 1    
    47   23  146 1    
    48   23  147 1    
    49   23  148 1    
    50   24   25 am   BACKBONE|DICT|INTERRES
    51   24  149 1    
    52   25   26 2    
    53   25   27 1    
    54   27   28 1    
    55   27   29 1    
    56   27  150 1    
    57   28  151 1    
    58   28  152 1    
    59   28  153 1    
    60   29   30 am   BACKBONE|DICT|INTERRES
    61   29  154 1    
    62   30   31 2    
    63   30   32 1    
    64   32   33 1    
    65   32   34 1    
    66   32  155 1    
    67   33  156 1    
    68   33  157 1    
    69   33  158 1    
    70   34   35 am   BACKBONE|DICT|INTERRES
    71   34  159 1    
    72   35   36 2    
    73   35   37 1    
    74   37   38 1    
    75   37   39 1    
    76   37  160 1    
    77   38  161 1    
    78   38  162 1    
    79   38  163 1    
    80   39   40 am   BACKBONE|DICT|INTERRES
    81   39  164 1    
    82   40   41 2    
    83   40   42 1    
    84   42   43 1    
    85   42   44 1    
    86   42  165 1    
    87   43  166 1    
    88   43  167 1    
    89   43  168 1    
    90   44   45 am   BACKBONE|DICT|INTERRES
    91   44  169 1    
    92   45   46 2    
    93   45   47 1    
    94   47   48 1    
    95   47   49 1    
    96   47  170 1    
    97   48  171 1    
    98   48  172 1    
    99   48  173 1    
   100   49   50 am   BACKBONE|DICT|INTERRES
   101   49  174 1    
   102   50   51 2    
   103   50   52 1    
   104   52   53 1    
   105   52   54 1    
   106   52  175 1    
   107   53  176 1    
   108   53  177 1    
   109   53  178 1    
   110   54   55 am   BACKBONE|DICT|INTERRES
   111   54  179 1    
   112   55   56 2    
   113   55   57 1    
   114   57   58 1    
   115   57   59 1    
   116   57  180 1    
   117   58  181 1    
   118   58  182 1    
   119   58  183 1    
   120   59   60 am   BACKBONE|DICT|INTERRES
   121   59  184 1    
   122   60   61 2    
   123   60   62 1    
   124   62   63 1    
   125   62   64 1    
   126   62  185 1    
   127   63  186 1    
   128   63  187 1    
   129   63  188 1    
   130   64   65 am   BACKBONE|DICT|INTERRES
   131   64  189 1    
   132   65   66 2    
   133   67   68 2    
   134   67   69 am   BACKBONE|DICT|INTERRES
   135   69   70 1    
   136   69  190 1    
   137   70   71 1    
   138   70   72 1    
   139   70  191 1    
   140   71  192 1    
   141   71  193 1    
   142   71  194 1    
   143   72   73 2    
   144   72   74 am   BACKBONE|DICT|INTERRES
   145   74   75 1    
   146   74  195 1    
   147   75   76 1    
   148   75   77 1    
   149   75  196 1    
   150   76  197 1    
   151   76  198 1    
   152   76  199 1    
   153   77   78 2    
   154   77   79 am   BACKBONE|DICT|INTERRES
   155   79   80 1    
   156   79  200 1    
   157   80   81 1    
   158   80   82 1    
   159   80  201 1    
   160   81  202 1    
   161   81  203 1    
   162   81  204 1    
   163   82   83 2    
   164   82   84 am   BACKBONE|DICT|INTERRES
   165   84   85 1    
   166   84  205 1    
   167   85   86 1    
   168   85   87 1    
   169   85  206 1    
   170   86  207 1    
   171   86  208 1    
   172   86  209 1    
   173   87   88 2    
   174   87   89 am   BACKBONE|DICT|INTERRES
   175   89   90 1    
   176   89  210 1    
   177   90   91 1    
   178   90   92 1    
   179   90  211 1    
   180   91  212 1    
   181   91  213 1    
   182   91  214 1    
   183   92   93 2    
   184   92   94 am   BACKBONE|DICT|INTERRES
   185   94   95 1    
   186   94  215 1    
   187   95   96 1    
   188   95   97 1    
   189   95  216 1    
   190   96  217 1    
   191   96  218 1    
   192   96  219 1    
   193   97   98 2    
   194   97   99 am   BACKBONE|DICT|INTERRES
   195   99  100 1    
   196   99  220 1    
   197  100  101 1    
   198  100  102 1    
   199  100  221 1    
   200  101  222 1    
   201  101  223 1    
   202  101  224 1    
   203  102  103 2    
   204  102  104 am   BACKBONE|DICT|INTERRES
   205  104  105 1    
   206  104  225 1    
   207  105  106 1    
   208  105  107 1    
   209  105  226 1    
   210  106  227 1    
   211  106  228 1    
   212  106  229 1    
   213  107  108 2    
   214  107  109 am   BACKBONE|DICT|INTERRES
   215  109  110 1    
   216  109  230 1    
   217  110  111 1    
   218  110  112 1    
   219  110  231 1    
   220  111  232 1    
   221  111  233 1    
   222  111  234 1    
   223  112  113 2    
   224  112  114 am   BACKBONE|DICT|INTERRES
   225  114  115 1    
   226  114  235 1    
   227  115  116 1    
   228  115  117 1    
   229  115  236 1    
   230  116  237 1    
   231  116  238 1    
   232  116  239 1    
   233  117  118 2    
   234  117  119 am   BACKBONE|DICT|INTERRES
   235  119  120 1    
   236  119  240 1    
   237  120  121 1    
   238  120  124 1    
   239  120  241 1    
   240  121  122 am   BACKBONE|DICT|INTERRES
   241  121  123 2    
   242  122  242 1    
   243  122  243 1    
   244  124  125 1    
   245  124  244 1    
   246  124  245 1    
   247  125  126 1    
   248  126  246 1    
   249  126  247 1    
@<TRIPOS>SUBSTRUCTURE
     1 UNK         1 GROUP             0       ****    0 ROOT    
