@<TRIPOS>MOLECULE
3R540
247   249    1
SMALL
USER_CHARGES


@<TRIPOS>ATOM
      1 CA         -7.4765  -13.9708  -44.0036 C.3       0 UNK        -0.1800 
      2 C          -6.7570  -12.8656  -44.7639 C.2       0 UNK         0.5000 
      3 O          -6.6643  -11.7412  -44.2701 O.2       0 UNK        -0.5000 
      4 N          -6.2577  -13.1784  -45.9651 N.am      1 UNK        -0.5000 
      5 CA         -5.4561  -12.2879  -46.8087 C.3       1 UNK         0.1400 
      6 C6         -5.3635  -12.7951  -48.2734 C.3       23 UNK        -0.0398 
      7 S7         -5.0004  -14.5792  -48.4627 S.3       23 UNK        -0.2404 
      8 C8         -3.2248  -14.5307  -48.8491 C.3       23 UNK        -0.0205 
      9 C9         -2.6202  -15.9179  -49.0175 C.ar      23 UNK        -0.0193 
     10 C10        -1.9205  -16.2453  -50.1830 C.ar      23 UNK        -0.1150 
     11 C11        -1.3572  -17.5154  -50.3431 C.ar      23 UNK        -0.0193 
     12 C12        -1.5020  -18.4617  -49.3240 C.ar      23 UNK        -0.1150 
     13 C13        -2.1782  -18.1408  -48.1453 C.ar      23 UNK        -0.0193 
     14 C14        -2.7349  -16.8686  -47.9994 C.ar      23 UNK        -0.1150 
     15 C15        -2.3216  -19.1727  -47.0395 C.3       23 UNK        -0.0205 
     16 S16        -0.7150  -19.5639  -46.2743 S.3       23 UNK        -0.2404 
     17 C17        -1.2589  -20.5556  -44.8483 C.3       23 UNK        -0.0398 
     18 CA         -1.5512  -22.0227  -45.2403 C.3       11 UNK         0.1400 
     19 N          -0.3309  -22.7690  -45.5865 N.am      11 UNK        -0.5000 
     20 C          -0.2731  -24.0292  -46.0496 C.2       10 UNK         0.5000 
     21 O          -1.2688  -24.7228  -46.2497 O.2       10 UNK        -0.5000 
     22 CA          1.1180  -24.6518  -46.2799 C.3       10 UNK         0.1400 
     23 CB          1.4886  -24.5699  -47.7688 C.3       10 UNK        -0.1800 
     24 N           2.1901  -24.0411  -45.4934 N.am      10 UNK        -0.5000 
     25 C           2.2306  -23.8990  -44.1604 C.2       9 UNK         0.5000 
     26 O           1.3814  -24.3688  -43.4011 O.2       9 UNK        -0.5000 
     27 CA          3.3896  -23.0576  -43.5780 C.3       9 UNK         0.1400 
     28 CB          4.3312  -23.9427  -42.7463 C.3       9 UNK        -0.1800 
     29 N           4.1890  -22.3248  -44.5711 N.am      9 UNK        -0.5000 
     30 C           3.7423  -21.3716  -45.4020 C.2       8 UNK         0.5000 
     31 O           2.5646  -21.0073  -45.4460 O.2       8 UNK        -0.5000 
     32 CA          4.7849  -20.8088  -46.3915 C.3       8 UNK         0.1400 
     33 CB          5.1563  -21.8727  -47.4394 C.3       8 UNK        -0.1800 
     34 N           4.3244  -19.6161  -47.1000 N.am      8 UNK        -0.5000 
     35 C           4.0882  -18.4235  -46.5431 C.2       7 UNK         0.5000 
     36 O           4.2979  -18.1675  -45.3537 O.2       7 UNK        -0.5000 
     37 CA          3.5001  -17.3573  -47.4898 C.3       7 UNK         0.1400 
     38 CB          1.9939  -17.5892  -47.6738 C.3       7 UNK        -0.1800 
     39 N           3.6881  -15.9888  -47.0151 N.am      7 UNK        -0.5000 
     40 C           4.8569  -15.3650  -46.8241 C.2       6 UNK         0.5000 
     41 O           5.9538  -15.8589  -47.0901 O.2       6 UNK        -0.5000 
     42 CA          4.7857  -13.9416  -46.2424 C.3       6 UNK         0.1400 
     43 CB          4.6831  -12.9023  -47.3704 C.3       6 UNK        -0.1800 
     44 N           3.6434  -13.7802  -45.3401 N.am      6 UNK        -0.5000 
     45 C           3.6809  -13.9903  -44.0169 C.2       5 UNK         0.5000 
     46 O           4.7033  -14.3012  -43.4046 O.2       5 UNK        -0.5000 
     47 CA          2.3638  -13.8082  -43.2346 C.3       5 UNK         0.1400 
     48 CB          2.2796  -12.3895  -42.6512 C.3       5 UNK        -0.1800 
     49 N           1.1729  -14.0525  -44.0478 N.am      5 UNK        -0.5000 
     50 C           0.7388  -15.2656  -44.4208 C.2       4 UNK         0.5000 
     51 O           1.2547  -16.3178  -44.0469 O.2       4 UNK        -0.5000 
     52 CA         -0.4667  -15.3101  -45.3845 C.3       4 UNK         0.1400 
     53 CB         -1.7626  -15.5079  -44.5838 C.3       4 UNK        -0.1800 
     54 N          -0.5957  -14.1137  -46.2250 N.am      4 UNK        -0.5000 
     55 C           0.3419  -13.6631  -47.0754 C.2       3 UNK         0.5000 
     56 O           1.4088  -14.2442  -47.2656 O.2       3 UNK        -0.5000 
     57 CA          0.1034  -12.3150  -47.7868 C.3       3 UNK         0.1400 
     58 CB         -0.0553  -12.5061  -49.3025 C.3       3 UNK        -0.1800 
     59 N          -1.0292  -11.5484  -47.2619 N.am      3 UNK        -0.5000 
     60 C          -1.0710  -10.9916  -46.0429 C.2       2 UNK         0.5000 
     61 O          -0.1459  -11.0606  -45.2320 O.2       2 UNK        -0.5000 
     62 CA         -2.3736  -10.2697  -45.6478 C.3       2 UNK         0.1400 
     63 CB         -2.2511   -8.7628  -45.9198 C.3       2 UNK        -0.1800 
     64 N          -3.5864  -10.7767  -46.3031 N.am      2 UNK        -0.5000 
     65 C          -4.0685  -12.0223  -46.1821 C.2       1 UNK         0.5000 
     66 O          -3.4630  -12.9328  -45.6122 O.2       1 UNK        -0.5000 
     67 C          -2.4650  -22.6995  -44.1929 C.2       11 UNK         0.5000 
     68 O          -3.6261  -22.3057  -44.0825 O.2       11 UNK        -0.5000 
     69 N          -1.9857  -23.7475  -43.5071 N.am      12 UNK        -0.5000 
     70 CA         -2.8047  -24.6866  -42.7343 C.3       12 UNK         0.1400 
     71 CB         -1.8796  -25.7185  -42.0724 C.3       12 UNK        -0.1800 
     72 C          -3.8956  -25.3971  -43.5726 C.2       12 UNK         0.5000 
     73 O          -4.9254  -25.7809  -43.0176 O.2       12 UNK        -0.5000 
     74 N          -3.6735  -25.5278  -44.8903 N.am      13 UNK        -0.5000 
     75 CA         -4.6373  -26.0415  -45.8676 C.3       13 UNK         0.1400 
     76 CB         -3.8654  -26.6203  -47.0642 C.3       13 UNK        -0.1800 
     77 C          -5.6618  -24.9833  -46.3378 C.2       13 UNK         0.5000 
     78 O          -6.5555  -25.3236  -47.1150 O.2       13 UNK        -0.5000 
     79 N          -5.5256  -23.7320  -45.8700 N.am      14 UNK        -0.5000 
     80 CA         -6.4092  -22.5875  -46.1033 C.3       14 UNK         0.1400 
     81 CB         -7.7418  -22.7839  -45.3459 C.3       14 UNK        -0.1800 
     82 C          -6.5737  -22.2624  -47.6023 C.2       14 UNK         0.5000 
     83 O          -5.5875  -21.9134  -48.2539 O.2       14 UNK        -0.5000 
     84 N          -7.8017  -22.3834  -48.1263 N.am      15 UNK        -0.5000 
     85 CA         -8.1842  -22.0646  -49.5041 C.3       15 UNK         0.1400 
     86 CB         -9.6909  -22.3062  -49.6763 C.3       15 UNK        -0.1800 
     87 C          -7.3915  -22.8329  -50.5780 C.2       15 UNK         0.5000 
     88 O          -7.1306  -22.2801  -51.6464 O.2       15 UNK        -0.5000 
     89 N          -6.9869  -24.0722  -50.2662 N.am      16 UNK        -0.5000 
     90 CA         -6.1614  -24.9074  -51.1396 C.3       16 UNK         0.1400 
     91 CB         -6.1387  -26.3424  -50.5954 C.3       16 UNK        -0.1800 
     92 C          -4.7294  -24.3650  -51.3086 C.2       16 UNK         0.5000 
     93 O          -4.1441  -24.5327  -52.3780 O.2       16 UNK        -0.5000 
     94 N          -4.2036  -23.7055  -50.2673 N.am      17 UNK        -0.5000 
     95 CA         -2.9079  -23.0316  -50.2957 C.3       17 UNK         0.1400 
     96 CB         -2.3323  -22.9639  -48.8799 C.3       17 UNK        -0.1800 
     97 C          -3.0132  -21.6295  -50.9087 C.2       17 UNK         0.5000 
     98 O          -2.1074  -21.2289  -51.6350 O.2       17 UNK        -0.5000 
     99 N          -4.1254  -20.9252  -50.6535 N.am      18 UNK        -0.5000 
    100 CA        -4.4279  -19.6180  -51.2465 C.3       18 UNK         0.1400 
    101 CB        -5.6871  -19.0347  -50.5912 C.3       18 UNK        -0.1800 
    102 C         -4.5724  -19.6664  -52.7811 C.2       18 UNK         0.5000 
    103 O         -4.2231  -18.6994  -53.4579 O.2       18 UNK        -0.5000 
    104 N         -5.0572  -20.8023  -53.2994 N.am      19 UNK        -0.5000 
    105 CA        -5.1427  -21.1079  -54.7267 C.3       19 UNK         0.1400 
    106 CB        -6.1892  -22.2169  -54.9212 C.3       19 UNK        -0.1800 
    107 C         -3.7952  -21.5280  -55.3541 C.2       19 UNK         0.5000 
    108 O         -3.6953  -21.5569  -56.5820 O.2       19 UNK        -0.5000 
    109 N         -2.7987  -21.8697  -54.5269 N.am      20 UNK        -0.5000 
    110 CA        -1.4685  -22.3095  -54.9461 C.3       20 UNK         0.1400 
    111 CB        -0.9926  -23.4140  -53.9839 C.3       20 UNK        -0.1800 
    112 C         -0.4731  -21.1335  -54.9809 C.2       20 UNK         0.5000 
    113 O         -0.8274  -19.9972  -54.6591 O.2       20 UNK        -0.5000 
    114 N          0.7726  -21.4359  -55.3735 N.am      21 UNK        -0.5000 
    115 CA         1.8871  -20.4839  -55.4279 C.3       21 UNK         0.1400 
    116 CB         3.0340  -21.1056  -56.2402 C.3       21 UNK        -0.1800 
    117 C          2.3904  -20.0377  -54.0388 C.2       21 UNK         0.5000 
    118 O          2.9701  -18.9571  -53.9382 O.2       21 UNK        -0.5000 
    119 N          2.1653  -20.8825  -53.0204 N.am      22 UNK        -0.5000 
    120 CA         2.3915  -20.6754  -51.5749 C.3       22 UNK         0.1400 
    121 C          3.8227  -20.2716  -51.1022 C.2       22 UNK         0.5000 
    122 N          4.8520  -20.3809  -51.9312 N.am      22 UNK        -0.7600 
    123 O          4.0139  -19.9023  -49.9461 O.2       22 UNK        -0.5000 
    124 C124        1.2556  -19.8647  -50.8913 C.3       23 UNK        -0.0398 
    125 S125        1.1702  -18.0904  -51.3300 S.3       23 UNK        -0.2404 
    126 C126       -0.6131  -17.8670  -51.6241 C.3       23 UNK        -0.0205 
    127 H127       -7.4907  -14.9056  -44.5648 H         1 UNK         0.0600 
    128 H128       -8.5073  -13.6791  -43.8026 H         1 UNK         0.0600 
    129 H129       -6.9804  -14.1542  -43.0506 H         1 UNK         0.0600 
    130 H130       -6.3342  -14.1264  -46.3059 H         1 UNK         0.3000 
    131 H131       -5.9793  -11.3295  -46.8391 H         1 UNK         0.0600 
    132 H132       -6.3261  -12.6248  -48.7573 H         1 UNK         0.0800 
    133 H133       -4.6508  -12.2038  -48.8510 H         1 UNK         0.0800 
    134 H134       -3.0886  -13.9411  -49.7565 H         1 UNK         0.0800 
    135 H135       -2.6976  -14.0145  -48.0489 H         1 UNK         0.0800 
    136 H136       -1.8162  -15.5113  -50.9695 H         1 UNK         0.1150 
    137 H137       -1.0856  -19.4508  -49.4411 H         1 UNK         0.1150 
    138 H138       -3.2736  -16.6185  -47.0978 H         1 UNK         0.1150 
    139 H139       -3.0103  -18.8129  -46.2737 H         1 UNK         0.0800 
    140 H140       -2.7645  -20.0788  -47.4546 H         1 UNK         0.0800 
    141 H141       -2.1358  -20.0678  -44.4181 H         1 UNK         0.0800 
    142 H142       -0.4856  -20.5138  -44.0795 H         1 UNK         0.0800 
    143 H143       -2.1558  -22.0050  -46.1459 H         1 UNK         0.0600 
    144 H144        0.5394  -22.2640  -45.4719 H         1 UNK         0.3000 
    145 H145        1.0563  -25.7033  -45.9932 H         1 UNK         0.0600 
    146 H146        2.4271  -25.0858  -47.9721 H         1 UNK         0.0600 
    147 H147        0.7218  -25.0363  -48.3892 H         1 UNK         0.0600 
    148 H148        1.5939  -23.5357  -48.1001 H         1 UNK         0.0600 
    149 H149        2.9336  -23.6101  -46.0209 H         1 UNK         0.3000 
    150 H150        2.9381  -22.3194  -42.9123 H         1 UNK         0.0600 
    151 H151        4.8306  -24.6894  -43.3649 H         1 UNK         0.0600 
    152 H152        3.7842  -24.4752  -41.9669 H         1 UNK         0.0600 
    153 H153        5.0985  -23.3476  -42.2507 H         1 UNK         0.0600 
    154 H154        5.1653  -22.5795  -44.6163 H         1 UNK         0.3000 
    155 H155        5.6799  -20.5415  -45.8263 H         1 UNK         0.0600 
    156 H156        4.2874  -22.1802  -48.0232 H         1 UNK         0.0600 
    157 H157        5.5742  -22.7661  -46.9744 H         1 UNK         0.0600 
    158 H158        5.9053  -21.4941  -48.1354 H         1 UNK         0.0600 
    159 H159        4.1276  -19.7359  -48.0918 H         1 UNK         0.3000 
    160 H160        3.9924  -17.4464  -48.4603 H         1 UNK         0.0600 
    161 H161        1.4620  -17.4769  -46.7298 H         1 UNK         0.0600 
    162 H162        1.7916  -18.5956  -48.0369 H         1 UNK         0.0600 
    163 H163        1.5620  -16.8903  -48.3906 H         1 UNK         0.0600 
    164 H164        2.8376  -15.4663  -46.8349 H         1 UNK         0.3000 
    165 H165        5.7142  -13.7554  -45.6984 H         1 UNK         0.0600 
    166 H166        5.5361  -12.9762  -48.0461 H         1 UNK         0.0600 
    167 H167        3.7802  -13.0387  -47.9667 H         1 UNK         0.0600 
    168 H168        4.6714  -11.8879  -46.9715 H         1 UNK         0.0600 
    169 H169        2.7514  -13.5909  -45.7785 H         1 UNK         0.3000 
    170 H170        2.3701  -14.5181  -42.4048 H         1 UNK         0.0600 
    171 H171        3.1423  -12.1740  -42.0194 H         1 UNK         0.0600 
    172 H172        2.2494  -11.6329  -43.4367 H         1 UNK         0.0600 
    173 H173        1.3881  -12.2685  -42.0356 H         1 UNK         0.0600 
    174 H174        0.6817  -13.2370  -44.3903 H         1 UNK         0.3000 
    175 H175       -0.3403  -16.1666  -46.0487 H         1 UNK         0.0600 
    176 H176       -2.6346  -15.5468  -45.2341 H         1 UNK         0.0600 
    177 H177       -1.7343  -16.4419  -44.0212 H         1 UNK         0.0600 
    178 H178       -1.9206  -14.6970  -43.8716 H         1 UNK         0.0600 
    179 H179       -1.4453  -13.5753  -46.1015 H         1 UNK         0.3000 
    180 H180        1.0039  -11.7184  -47.6260 H         1 UNK         0.0600 
    181 H181       -0.9291  -13.1042  -49.5498 H         1 UNK         0.0600 
    182 H182        0.8134  -13.0146  -49.7232 H         1 UNK         0.0600 
    183 H183       -0.1467  -11.5480  -49.8144 H         1 UNK         0.0600 
    184 H184       -1.8307  -11.4409  -47.8650 H         1 UNK         0.3000 
    185 H185       -2.5023  -10.4107  -44.5726 H         1 UNK         0.0600 
    186 H186       -2.1576   -8.5529  -46.9861 H         1 UNK         0.0600 
    187 H187       -3.1197   -8.2213  -45.5447 H         1 UNK         0.0600 
    188 H188       -1.3728   -8.3457  -45.4250 H         1 UNK         0.0600 
    189 H189       -4.1383  -10.0885  -46.7950 H         1 UNK         0.3000 
    190 H190       -1.0168  -24.0052  -43.6437 H         1 UNK         0.3000 
    191 H191       -3.3097  -24.1206  -41.9491 H         1 UNK         0.0600 
    192 H192       -1.1545  -25.2354  -41.4169 H         1 UNK         0.0600 
    193 H193       -2.4491  -26.4228  -41.4645 H         1 UNK         0.0600 
    194 H194       -1.3266  -26.2954  -42.8150 H         1 UNK         0.0600 
    195 H195       -2.7888  -25.2029  -45.2754 H         1 UNK         0.3000 
    196 H196       -5.2005  -26.8553  -45.4067 H         1 UNK         0.0600 
    197 H197       -4.5328  -27.1673  -47.7298 H         1 UNK         0.0600 
    198 H198       -3.0942  -27.3186  -46.7387 H         1 UNK         0.0600 
    199 H199       -3.3831  -25.8377  -47.6500 H         1 UNK         0.0600 
    200 H200       -4.7488  -23.5383  -45.2488 H         1 UNK         0.3000 
    201 H201       -5.9094  -21.7223  -45.6655 H         1 UNK         0.0600 
    202 H202       -8.3868  -21.9099  -45.4457 H         1 UNK         0.0600 
    203 H203       -8.2958  -23.6538  -45.7006 H         1 UNK         0.0600 
    204 H204       -7.5615  -22.9247  -44.2800 H         1 UNK         0.0600 
    205 H205       -8.5430  -22.7039  -47.5207 H         1 UNK         0.3000 
    206 H206       -7.9941  -21.0011  -49.6534 H         1 UNK         0.0600 
    207 H207      -10.2712  -21.6904  -48.9889 H         1 UNK         0.0600 
    208 H208      -10.0141  -22.0542  -50.6874 H         1 UNK         0.0600 
    209 H209       -9.9538  -23.3496  -49.4979 H         1 UNK         0.0600 
    210 H210       -7.2126  -24.4445  -49.3528 H         1 UNK         0.3000 
    211 H211       -6.6248  -24.9262  -52.1284 H         1 UNK         0.0600 
    212 H212       -5.7131  -26.3820  -49.5935 H         1 UNK         0.0600 
    213 H213       -5.5409  -26.9943  -51.2338 H         1 UNK         0.0600 
    214 H214       -7.1432  -26.7631  -50.5496 H         1 UNK         0.0600 
    215 H215       -4.7763  -23.5486  -49.4478 H         1 UNK         0.3000 
    216 H216       -2.2136  -23.6109  -50.9083 H         1 UNK         0.0600 
    217 H217       -1.3905  -22.4136  -48.8563 H         1 UNK         0.0600 
    218 H218       -2.1344  -23.9674  -48.5104 H         1 UNK         0.0600 
    219 H219       -3.0206  -22.4784  -48.1902 H         1 UNK         0.0600 
    220 H220       -4.7980  -21.3005  -49.9932 H         1 UNK         0.3000 
    221 H221       -3.5967  -18.9517  -51.0228 H         1 UNK         0.0600 
    222 H222       -6.5745  -19.6123  -50.8468 H         1 UNK         0.0600 
    223 H223       -5.5950  -19.0117  -49.5050 H         1 UNK         0.0600 
    224 H224       -5.8566  -18.0103  -50.9250 H         1 UNK         0.0600 
    225 H225       -5.3993  -21.5134  -52.6636 H         1 UNK         0.3000 
    226 H226       -5.4873  -20.2169  -55.2555 H         1 UNK         0.0600 
    227 H227       -6.3123  -22.4618  -55.9769 H         1 UNK         0.0600 
    228 H228       -5.9034  -23.1324  -54.4012 H         1 UNK         0.0600 
    229 H229       -7.1645  -21.9091  -54.5437 H         1 UNK         0.0600 
    230 H230       -2.9132  -21.7140  -53.5331 H         1 UNK         0.3000 
    231 H231       -1.5217  -22.7342  -55.9506 H         1 UNK         0.0600 
    232 H232       -0.7749  -23.0229  -52.9904 H         1 UNK         0.0600 
    233 H233       -0.0856  -23.8955  -54.3500 H         1 UNK         0.0600 
    234 H234       -1.7458  -24.1950  -53.8766 H         1 UNK         0.0600 
    235 H235        0.9836  -22.3861  -55.6425 H         1 UNK         0.3000 
    236 H236        1.5441  -19.5898  -55.9530 H         1 UNK         0.0600 
    237 H237        3.8718  -20.4124  -56.3271 H         1 UNK         0.0600 
    238 H238        3.4097  -22.0177  -55.7748 H         1 UNK         0.0600 
    239 H239        2.7127  -21.3517  -57.2524 H         1 UNK         0.0600 
    240 H240        1.7137  -21.7536  -53.2544 H         1 UNK         0.3000 
    241 H241        2.2969  -21.6837  -51.1702 H         1 UNK         0.0600 
    242 H242        4.7078  -20.6538  -52.8897 H         1 UNK         0.3800 
    243 H243        5.7738  -20.1316  -51.6106 H         1 UNK         0.3800 
    244 H244        1.3374  -19.9462  -49.8077 H         1 UNK         0.0800 
    245 H245        0.3068  -20.3389  -51.1377 H         1 UNK         0.0800 
    246 H246       -0.7373  -17.0735  -52.3621 H         1 UNK         0.0800 
    247 H247       -1.0463  -18.7600  -52.0768 H         1 UNK         0.0800 
@<TRIPOS>BOND
     1    1    2 1    
     2    1  127 1    
     3    1  128 1    
     4    1  129 1    
     5    2    3 2    
     6    2    4 am   BACKBONE|DICT|INTERRES
     7    4    5 1    
     8    4  130 1    
     9    5    6 1    
    10    5   65 1    
    11    5  131 1    
    12    6    7 1    
    13    6  132 1    
    14    6  133 1    
    15    7    8 1    
    16    8    9 1    
    17    8  134 1    
    18    8  135 1    
    19    9   10 ar   
    20    9   14 ar   
    21   10   11 ar   
    22   10  136 1    
    23   11   12 ar   
    24   11  126 1    
    25   12   13 ar   
    26   12  137 1    
    27   13   14 ar   
    28   13   15 1    
    29   14  138 1    
    30   15   16 1    
    31   15  139 1    
    32   15  140 1    
    33   16   17 1    
    34   17   18 1    
    35   17  141 1    
    36   17  142 1    
    37   18   19 1    
    38   18   67 1    
    39   18  143 1    
    40   19   20 am   BACKBONE|DICT|INTERRES
    41   19  144 1    
    42   20   21 2    
    43   20   22 1    
    44   22   23 1    
    45   22   24 1    
    46   22  145 1    
    47   23  146 1    
    48   23  147 1    
    49   23  148 1    
    50   24   25 am   BACKBONE|DICT|INTERRES
    51   24  149 1    
    52   25   26 2    
    53   25   27 1    
    54   27   28 1    
    55   27   29 1    
    56   27  150 1    
    57   28  151 1    
    58   28  152 1    
    59   28  153 1    
    60   29   30 am   BACKBONE|DICT|INTERRES
    61   29  154 1    
    62   30   31 2    
    63   30   32 1    
    64   32   33 1    
    65   32   34 1    
    66   32  155 1    
    67   33  156 1    
    68   33  157 1    
    69   33  158 1    
    70   34   35 am   BACKBONE|DICT|INTERRES
    71   34  159 1    
    72   35   36 2    
    73   35   37 1    
    74   37   38 1    
    75   37   39 1    
    76   37  160 1    
    77   38  161 1    
    78   38  162 1    
    79   38  163 1    
    80   39   40 am   BACKBONE|DICT|INTERRES
    81   39  164 1    
    82   40   41 2    
    83   40   42 1    
    84   42   43 1    
    85   42   44 1    
    86   42  165 1    
    87   43  166 1    
    88   43  167 1    
    89   43  168 1    
    90   44   45 am   BACKBONE|DICT|INTERRES
    91   44  169 1    
    92   45   46 2    
    93   45   47 1    
    94   47   48 1    
    95   47   49 1    
    96   47  170 1    
    97   48  171 1    
    98   48  172 1    
    99   48  173 1    
   100   49   50 am   BACKBONE|DICT|INTERRES
   101   49  174 1    
   102   50   51 2    
   103   50   52 1    
   104   52   53 1    
   105   52   54 1    
   106   52  175 1    
   107   53  176 1    
   108   53  177 1    
   109   53  178 1    
   110   54   55 am   BACKBONE|DICT|INTERRES
   111   54  179 1    
   112   55   56 2    
   113   55   57 1    
   114   57   58 1    
   115   57   59 1    
   116   57  180 1    
   117   58  181 1    
   118   58  182 1    
   119   58  183 1    
   120   59   60 am   BACKBONE|DICT|INTERRES
   121   59  184 1    
   122   60   61 2    
   123   60   62 1    
   124   62   63 1    
   125   62   64 1    
   126   62  185 1    
   127   63  186 1    
   128   63  187 1    
   129   63  188 1    
   130   64   65 am   BACKBONE|DICT|INTERRES
   131   64  189 1    
   132   65   66 2    
   133   67   68 2    
   134   67   69 am   BACKBONE|DICT|INTERRES
   135   69   70 1    
   136   69  190 1    
   137   70   71 1    
   138   70   72 1    
   139   70  191 1    
   140   71  192 1    
   141   71  193 1    
   142   71  194 1    
   143   72   73 2    
   144   72   74 am   BACKBONE|DICT|INTERRES
   145   74   75 1    
   146   74  195 1    
   147   75   76 1    
   148   75   77 1    
   149   75  196 1    
   150   76  197 1    
   151   76  198 1    
   152   76  199 1    
   153   77   78 2    
   154   77   79 am   BACKBONE|DICT|INTERRES
   155   79   80 1    
   156   79  200 1    
   157   80   81 1    
   158   80   82 1    
   159   80  201 1    
   160   81  202 1    
   161   81  203 1    
   162   81  204 1    
   163   82   83 2    
   164   82   84 am   BACKBONE|DICT|INTERRES
   165   84   85 1    
   166   84  205 1    
   167   85   86 1    
   168   85   87 1    
   169   85  206 1    
   170   86  207 1    
   171   86  208 1    
   172   86  209 1    
   173   87   88 2    
   174   87   89 am   BACKBONE|DICT|INTERRES
   175   89   90 1    
   176   89  210 1    
   177   90   91 1    
   178   90   92 1    
   179   90  211 1    
   180   91  212 1    
   181   91  213 1    
   182   91  214 1    
   183   92   93 2    
   184   92   94 am   BACKBONE|DICT|INTERRES
   185   94   95 1    
   186   94  215 1    
   187   95   96 1    
   188   95   97 1    
   189   95  216 1    
   190   96  217 1    
   191   96  218 1    
   192   96  219 1    
   193   97   98 2    
   194   97   99 am   BACKBONE|DICT|INTERRES
   195   99  100 1    
   196   99  220 1    
   197  100  101 1    
   198  100  102 1    
   199  100  221 1    
   200  101  222 1    
   201  101  223 1    
   202  101  224 1    
   203  102  103 2    
   204  102  104 am   BACKBONE|DICT|INTERRES
   205  104  105 1    
   206  104  225 1    
   207  105  106 1    
   208  105  107 1    
   209  105  226 1    
   210  106  227 1    
   211  106  228 1    
   212  106  229 1    
   213  107  108 2    
   214  107  109 am   BACKBONE|DICT|INTERRES
   215  109  110 1    
   216  109  230 1    
   217  110  111 1    
   218  110  112 1    
   219  110  231 1    
   220  111  232 1    
   221  111  233 1    
   222  111  234 1    
   223  112  113 2    
   224  112  114 am   BACKBONE|DICT|INTERRES
   225  114  115 1    
   226  114  235 1    
   227  115  116 1    
   228  115  117 1    
   229  115  236 1    
   230  116  237 1    
   231  116  238 1    
   232  116  239 1    
   233  117  118 2    
   234  117  119 am   BACKBONE|DICT|INTERRES
   235  119  120 1    
   236  119  240 1    
   237  120  121 1    
   238  120  124 1    
   239  120  241 1    
   240  121  122 am   BACKBONE|DICT|INTERRES
   241  121  123 2    
   242  122  242 1    
   243  122  243 1    
   244  124  125 1    
   245  124  244 1    
   246  124  245 1    
   247  125  126 1    
   248  126  246 1    
   249  126  247 1    
@<TRIPOS>SUBSTRUCTURE
     1 UNK         1 GROUP             0       ****    0 ROOT    
