@<TRIPOS>MOLECULE
3R540
247   249    1
SMALL
USER_CHARGES


@<TRIPOS>ATOM
      1 CA         -1.4510  -14.9132  -46.1188 C.3       0 UNK        -0.1800 
      2 C          -0.7630  -13.6867  -46.6954 C.2       0 UNK         0.5000 
      3 O          -1.0536  -12.5686  -46.2702 O.2       0 UNK        -0.5000 
      4 N           0.1385  -13.8877  -47.6638 N.am      1 UNK        -0.5000 
      5 CA          0.9517  -12.8337  -48.2739 C.3       1 UNK         0.1400 
      6 C6          1.5993  -13.2821  -49.6097 C.3       23 UNK        -0.0398 
      7 S7          2.5261  -14.8617  -49.5398 S.3       23 UNK        -0.2404 
      8 C8          1.8261  -15.7841  -50.9489 C.3       23 UNK        -0.0205 
      9 C9          0.6969  -16.7190  -50.5354 C.ar      23 UNK        -0.0193 
     10 C10        -0.5375  -16.2080  -50.1251 C.ar      23 UNK        -0.1150 
     11 C11        -1.5811  -17.0664  -49.7685 C.ar      23 UNK        -0.0193 
     12 C12        -1.3868  -18.4494  -49.8291 C.ar      23 UNK        -0.1150 
     13 C13        -0.1627  -18.9755  -50.2543 C.ar      23 UNK        -0.0193 
     14 C14         0.8746  -18.1046  -50.6009 C.ar      23 UNK        -0.1150 
     15 C15         0.0264  -20.4821  -50.3784 C.3       23 UNK        -0.0205 
     16 S16         1.3361  -21.1303  -49.2934 S.3       23 UNK        -0.2404 
     17 C17         0.6161  -20.8477  -47.6477 C.3       23 UNK        -0.0398 
     18 CA          0.0904  -22.1374  -46.9726 C.3       11 UNK         0.1400 
     19 N           0.1932  -22.0471  -45.5100 N.am      11 UNK        -0.5000 
     20 C           0.0692  -23.0718  -44.6583 C.2       10 UNK         0.5000 
     21 O          -0.1956  -24.2203  -45.0074 O.2       10 UNK        -0.5000 
     22 CA          0.2406  -22.7481  -43.1662 C.3       10 UNK         0.1400 
     23 CB          1.6579  -22.2349  -42.8627 C.3       10 UNK        -0.1800 
     24 N          -0.7432  -21.7808  -42.6813 N.am      10 UNK        -0.5000 
     25 C          -2.0514  -22.0371  -42.5335 C.2       9 UNK         0.5000 
     26 O          -2.5866  -23.0866  -42.8898 O.2       9 UNK        -0.5000 
     27 CA         -2.9038  -20.9415  -41.8739 C.3       9 UNK         0.1400 
     28 CB         -2.5878  -20.8334  -40.3733 C.3       9 UNK        -0.1800 
     29 N          -2.6604  -19.6510  -42.5114 N.am      9 UNK        -0.5000 
     30 C          -3.5602  -18.9651  -43.2292 C.2       8 UNK         0.5000 
     31 O          -4.7414  -19.2940  -43.3390 O.2       8 UNK        -0.5000 
     32 CA         -3.0693  -17.6959  -43.9589 C.3       8 UNK         0.1400 
     33 CB         -3.5356  -16.4379  -43.2106 C.3       8 UNK        -0.1800 
     34 N          -1.6161  -17.6337  -44.1336 N.am      8 UNK        -0.5000 
     35 C          -0.8932  -18.4915  -44.8692 C.2       7 UNK         0.5000 
     36 O          -1.3874  -19.4087  -45.5234 O.2       7 UNK        -0.5000 
     37 CA          0.6433  -18.3637  -44.8088 C.3       7 UNK         0.1400 
     38 CB          1.1700  -17.5795  -46.0213 C.3       7 UNK        -0.1800 
     39 N           1.1489  -17.7538  -43.5772 N.am      7 UNK        -0.5000 
     40 C           0.8853  -18.1662  -42.3259 C.2       6 UNK         0.5000 
     41 O           0.2568  -19.1959  -42.0732 O.2       6 UNK        -0.5000 
     42 CA          1.3320  -17.2543  -41.1630 C.3       6 UNK         0.1400 
     43 CB          2.5977  -17.8192  -40.5024 C.3       6 UNK        -0.1800 
     44 N           1.5785  -15.8623  -41.5524 N.am      6 UNK        -0.5000 
     45 C           0.6977  -15.0363  -42.1380 C.2       5 UNK         0.5000 
     46 O          -0.4859  -15.3238  -42.3200 O.2       5 UNK        -0.5000 
     47 CA          1.2440  -13.6977  -42.6788 C.3       5 UNK         0.1400 
     48 CB          0.8879  -12.5462  -41.7277 C.3       5 UNK        -0.1800 
     49 N           2.6902  -13.6716  -42.9351 N.am      5 UNK        -0.5000 
     50 C           3.3731  -14.4983  -43.7399 C.2       4 UNK         0.5000 
     51 O           2.8607  -15.4667  -44.3026 O.2       4 UNK        -0.5000 
     52 CA          4.8789  -14.2032  -43.9176 C.3       4 UNK         0.1400 
     53 CB          5.5668  -15.2097  -44.8578 C.3       4 UNK        -0.1800 
     54 N           5.1401  -12.8510  -44.4167 N.am      4 UNK        -0.5000 
     55 C           5.0741  -11.7167  -43.7076 C.2       3 UNK         0.5000 
     56 O           4.7383  -11.6793  -42.5233 O.2       3 UNK        -0.5000 
     57 CA          5.4367  -10.4026  -44.4307 C.3       3 UNK         0.1400 
     58 CB          6.7668   -9.8541  -43.8910 C.3       3 UNK        -0.1800 
     59 N           5.5572  -10.5533  -45.8861 N.am      3 UNK        -0.5000 
     60 C           4.5771  -10.5394  -46.8015 C.2       2 UNK         0.5000 
     61 O           4.8253  -10.6975  -47.9977 O.2       2 UNK        -0.5000 
     62 CA          3.1149  -10.2759  -46.3696 C.3       2 UNK         0.1400 
     63 CB          2.8089   -8.7698  -46.3958 C.3       2 UNK        -0.1800 
     64 N           2.1598  -10.9620  -47.2399 N.am      2 UNK        -0.5000 
     65 C           1.9935  -12.2901  -47.2727 C.2       1 UNK         0.5000 
     66 O           2.6171  -13.0689  -46.5506 O.2       1 UNK        -0.5000 
     67 C          -1.3434  -22.4836  -47.4288 C.2       11 UNK         0.5000 
     68 O          -1.5249  -23.1925  -48.4221 O.2       11 UNK        -0.5000 
     69 N          -2.3359  -22.0258  -46.6528 N.am      12 UNK        -0.5000 
     70 CA         -3.7497  -22.3744  -46.7842 C.3       12 UNK         0.1400 
     71 CB         -4.5643  -21.5962  -45.7447 C.3       12 UNK        -0.1800 
     72 C          -4.0267  -23.8873  -46.6822 C.2       12 UNK         0.5000 
     73 O          -4.9376  -24.3751  -47.3500 O.2       12 UNK        -0.5000 
     74 N          -3.2211  -24.6009  -45.8855 N.am      13 UNK        -0.5000 
     75 CA         -3.2542  -26.0546  -45.7712 C.3       13 UNK         0.1400 
     76 CB         -2.9437  -26.4565  -44.3200 C.3       13 UNK        -0.1800 
     77 C          -2.2649  -26.7095  -46.7500 C.2       13 UNK         0.5000 
     78 O          -2.6684  -27.5604  -47.5426 O.2       13 UNK        -0.5000 
     79 N          -0.9876  -26.3107  -46.6714 N.am      14 UNK        -0.5000 
     80 CA          0.1443  -26.9713  -47.3262 C.3       14 UNK         0.1400 
     81 CB          1.4561  -26.3997  -46.7663 C.3       14 UNK        -0.1800 
     82 C           0.1393  -26.8852  -48.8613 C.2       14 UNK         0.5000 
     83 O           0.5302  -27.8519  -49.5169 O.2       14 UNK        -0.5000 
     84 N          -0.2990  -25.7432  -49.4033 N.am      15 UNK        -0.5000 
     85 CA         -0.3868  -25.4862  -50.8428 C.3       15 UNK         0.1400 
     86 CB          0.4210  -24.2198  -51.1675 C.3       15 UNK        -0.1800 
     87 C          -1.8479  -25.3350  -51.2989 C.2       15 UNK         0.5000 
     88 O          -2.0836  -24.8929  -52.4248 O.2       15 UNK        -0.5000 
     89 N          -2.8034  -25.6557  -50.4119 N.am      16 UNK        -0.5000 
     90 CA         -4.2524  -25.5184  -50.5888 C.3       16 UNK         0.1400 
     91 CB         -4.7684  -26.5592  -51.6044 C.3       16 UNK        -0.1800 
     92 C          -4.6711  -24.0759  -50.9459 C.2       16 UNK         0.5000 
     93 O          -5.5233  -23.8819  -51.8126 O.2       16 UNK        -0.5000 
     94 N          -4.0199  -23.0894  -50.3087 N.am      17 UNK        -0.5000 
     95 CA         -4.1697  -21.6489  -50.5474 C.3       17 UNK         0.1400 
     96 CB         -5.5924  -21.1669  -50.1861 C.3       17 UNK        -0.1800 
     97 C          -3.7423  -21.2566  -51.9748 C.2       17 UNK         0.5000 
     98 O          -4.4570  -20.5199  -52.6547 O.2       17 UNK        -0.5000 
     99 N          -2.5865  -21.7885  -52.4002 N.am      18 UNK        -0.5000 
    100 CA        -1.9879  -21.6479  -53.7318 C.3       18 UNK         0.1400 
    101 CB        -1.5920  -20.1797  -54.0060 C.3       18 UNK        -0.1800 
    102 C         -2.8982  -22.2450  -54.8235 C.2       18 UNK         0.5000 
    103 O         -3.1952  -21.5797  -55.8156 O.2       18 UNK        -0.5000 
    104 N         -3.3654  -23.4804  -54.5866 N.am      19 UNK        -0.5000 
    105 CA        -4.3565  -24.2120  -55.3859 C.3       19 UNK         0.1400 
    106 CB        -3.7537  -24.6435  -56.7386 C.3       19 UNK        -0.1800 
    107 C         -5.6788  -23.4256  -55.5301 C.2       19 UNK         0.5000 
    108 O         -6.1961  -23.2614  -56.6362 O.2       19 UNK        -0.5000 
    109 N         -6.1673  -22.9225  -54.3889 N.am      20 UNK        -0.5000 
    110 CA        -7.3580  -22.0967  -54.1773 C.3       20 UNK         0.1400 
    111 CB        -8.6330  -22.8340  -54.6350 C.3       20 UNK        -0.1800 
    112 C         -7.2846  -20.6630  -54.7449 C.2       20 UNK         0.5000 
    113 O         -8.2549  -19.9202  -54.5848 O.2       20 UNK        -0.5000 
    114 N         -6.1588  -20.2583  -55.3536 N.am      21 UNK        -0.5000 
    115 CA        -5.9675  -18.9210  -55.9285 C.3       21 UNK         0.1400 
    116 CB        -4.6681  -18.8851  -56.7449 C.3       21 UNK        -0.1800 
    117 C         -5.9746  -17.7919  -54.8793 C.2       21 UNK         0.5000 
    118 O         -6.4051  -16.6808  -55.1913 O.2       21 UNK        -0.5000 
    119 N         -5.5284  -18.1040  -53.6573 N.am      22 UNK        -0.5000 
    120 CA        -5.5973  -17.2346  -52.4751 C.3       22 UNK         0.1400 
    121 C         -6.9042  -17.4283  -51.6430 C.2       22 UNK         0.5000 
    122 N         -7.8738  -18.2230  -52.0840 N.am      22 UNK        -0.7600 
    123 O         -7.0587  -16.8367  -50.5788 O.2       22 UNK        -0.5000 
    124 C124       -4.3083  -17.3767  -51.6200 C.3       23 UNK        -0.0398 
    125 S125       -3.8618  -15.8387  -50.7459 S.3       23 UNK        -0.2404 
    126 C126       -2.9202  -16.4915  -49.3326 C.3       23 UNK        -0.0205 
    127 H127       -1.2207  -15.8148  -46.6862 H         1 UNK         0.0600 
    128 H128       -2.5324  -14.7783  -46.1239 H         1 UNK         0.0600 
    129 H129       -1.1288  -15.0600  -45.0888 H         1 UNK         0.0600 
    130 H130        0.3846  -14.8277  -47.9396 H         1 UNK         0.3000 
    131 H131        0.2746  -12.0108  -48.5144 H         1 UNK         0.0600 
    132 H132        0.8157  -13.3595  -50.3632 H         1 UNK         0.0800 
    133 H133        2.2735  -12.5096  -49.9841 H         1 UNK         0.0800 
    134 H134        1.4754  -15.1000  -51.7226 H         1 UNK         0.0800 
    135 H135        2.6339  -16.3561  -51.4076 H         1 UNK         0.0800 
    136 H136       -0.6968  -15.1402  -50.0955 H         1 UNK         0.1150 
    137 H137       -2.1947  -19.1134  -49.5593 H         1 UNK         0.1150 
    138 H138        1.8196  -18.5118  -50.9325 H         1 UNK         0.1150 
    139 H139       -0.9031  -21.0095  -50.1649 H         1 UNK         0.0800 
    140 H140        0.2859  -20.7219  -51.4098 H         1 UNK         0.0800 
    141 H141       -0.1517  -20.0754  -47.6955 H         1 UNK         0.0800 
    142 H142        1.4250  -20.4226  -47.0531 H         1 UNK         0.0800 
    143 H143        0.7297  -22.9692  -47.2761 H         1 UNK         0.0600 
    144 H144        0.3290  -21.1258  -45.1268 H         1 UNK         0.3000 
    145 H145        0.0992  -23.6787  -42.6122 H         1 UNK         0.0600 
    146 H146        1.8081  -22.1142  -41.7897 H         1 UNK         0.0600 
    147 H147        2.4128  -22.9372  -43.2186 H         1 UNK         0.0600 
    148 H148        1.8560  -21.2717  -43.3334 H         1 UNK         0.0600 
    149 H149       -0.3764  -20.8862  -42.3653 H         1 UNK         0.3000 
    150 H150       -3.9507  -21.2344  -41.9772 H         1 UNK         0.0600 
    151 H151       -3.2395  -20.1066  -39.8884 H         1 UNK         0.0600 
    152 H152       -2.7381  -21.7905  -39.8723 H         1 UNK         0.0600 
    153 H153       -1.5564  -20.5260  -40.1955 H         1 UNK         0.0600 
    154 H154       -1.7081  -19.3059  -42.4723 H         1 UNK         0.3000 
    155 H155       -3.5240  -17.6945  -44.9517 H         1 UNK         0.0600 
    156 H156       -3.1045  -16.3849  -42.2101 H         1 UNK         0.0600 
    157 H157       -4.6208  -16.4261  -43.1018 H         1 UNK         0.0600 
    158 H158       -3.2544  -15.5300  -43.7436 H         1 UNK         0.0600 
    159 H159       -1.1333  -16.9202  -43.5987 H         1 UNK         0.3000 
    160 H160        1.0518  -19.3730  -44.8545 H         1 UNK         0.0600 
    161 H161        0.7313  -17.9306  -46.9561 H         1 UNK         0.0600 
    162 H162        2.2516  -17.6814  -46.1126 H         1 UNK         0.0600 
    163 H163        0.9496  -16.5158  -45.9379 H         1 UNK         0.0600 
    164 H164        1.6984  -16.9071  -43.7018 H         1 UNK         0.3000 
    165 H165        0.5267  -17.2538  -40.4260 H         1 UNK         0.0600 
    166 H166        2.8768  -17.2392  -39.6225 H         1 UNK         0.0600 
    167 H167        2.4424  -18.8484  -40.1752 H         1 UNK         0.0600 
    168 H168        3.4445  -17.8175  -41.1900 H         1 UNK         0.0600 
    169 H169        2.5284  -15.5348  -41.4593 H         1 UNK         0.3000 
    170 H170        0.7479  -13.5165  -43.6346 H         1 UNK         0.0600 
    171 H171       -0.1859  -12.5120  -41.5382 H         1 UNK         0.0600 
    172 H172        1.3893  -12.6519  -40.7649 H         1 UNK         0.0600 
    173 H173        1.1724  -11.5827  -42.1511 H         1 UNK         0.0600 
    174 H174        3.2108  -12.9041  -42.5214 H         1 UNK         0.3000 
    175 H175        5.3407  -14.3031  -42.9332 H         1 UNK         0.0600 
    176 H176        5.1506  -15.1643  -45.8653 H         1 UNK         0.0600 
    177 H177        6.6377  -15.0183  -44.9270 H         1 UNK         0.0600 
    178 H178        5.4441  -16.2317  -44.4968 H         1 UNK         0.0600 
    179 H179        5.3660  -12.7813  -45.3984 H         1 UNK         0.3000 
    180 H180        4.6643   -9.6694  -44.1951 H         1 UNK         0.0600 
    181 H181        7.5931  -10.5406  -44.0803 H         1 UNK         0.0600 
    182 H182        6.7164   -9.6910  -42.8135 H         1 UNK         0.0600 
    183 H183        7.0139   -8.8965  -44.3500 H         1 UNK         0.0600 
    184 H184        6.4988  -10.7038  -46.2178 H         1 UNK         0.3000 
    185 H185        2.9465  -10.6496  -45.3592 H         1 UNK         0.0600 
    186 H186        3.4843   -8.2171  -45.7421 H         1 UNK         0.0600 
    187 H187        2.9162   -8.3556  -47.3992 H         1 UNK         0.0600 
    188 H188        1.7929   -8.5673  -46.0560 H         1 UNK         0.0600 
    189 H189        1.6356  -10.3798  -47.8766 H         1 UNK         0.3000 
    190 H190       -2.0930  -21.3834  -45.9077 H         1 UNK         0.3000 
    191 H191       -4.0760  -22.0463  -47.7677 H         1 UNK         0.0600 
    192 H192       -4.4338  -20.5212  -45.8698 H         1 UNK         0.0600 
    193 H193       -5.6298  -21.8072  -45.8439 H         1 UNK         0.0600 
    194 H194       -4.2723  -21.8550  -44.7270 H         1 UNK         0.0600 
    195 H195       -2.4907  -24.1243  -45.3726 H         1 UNK         0.3000 
    196 H196       -4.2543  -26.4246  -46.0074 H         1 UNK         0.0600 
    197 H197       -2.9489  -27.5410  -44.2045 H         1 UNK         0.0600 
    198 H198       -3.6893  -26.0522  -43.6351 H         1 UNK         0.0600 
    199 H199       -1.9677  -26.0947  -43.9945 H         1 UNK         0.0600 
    200 H200       -0.7449  -25.5759  -46.0082 H         1 UNK         0.3000 
    201 H201        0.1006  -28.0297  -47.0610 H         1 UNK         0.0600 
    202 H202        1.5141  -26.5310  -45.6857 H         1 UNK         0.0600 
    203 H203        1.5539  -25.3348  -46.9793 H         1 UNK         0.0600 
    204 H204        2.3205  -26.9027  -47.2016 H         1 UNK         0.0600 
    205 H205       -0.6227  -24.9941  -48.8001 H         1 UNK         0.3000 
    206 H206        0.0371  -26.3133  -51.4150 H         1 UNK         0.0600 
    207 H207        1.4469  -24.3000  -50.8080 H         1 UNK         0.0600 
    208 H208        0.4668  -24.0439  -52.2428 H         1 UNK         0.0600 
    209 H209       -0.0268  -23.3398  -50.7094 H         1 UNK         0.0600 
    210 H210       -2.5047  -26.0247  -49.5194 H         1 UNK         0.3000 
    211 H211       -4.7083  -25.7447  -49.6247 H         1 UNK         0.0600 
    212 H212       -4.3825  -26.3743  -52.6071 H         1 UNK         0.0600 
    213 H213       -5.8572  -26.5419  -51.6641 H         1 UNK         0.0600 
    214 H214       -4.4769  -27.5686  -51.3145 H         1 UNK         0.0600 
    215 H215       -3.2989  -23.3535  -49.6466 H         1 UNK         0.3000 
    216 H216       -3.4718  -21.1502  -49.8748 H         1 UNK         0.0600 
    217 H217       -5.6545  -20.0791  -50.2037 H         1 UNK         0.0600 
    218 H218       -5.8836  -21.4903  -49.1874 H         1 UNK         0.0600 
    219 H219       -6.3403  -21.5415  -50.8849 H         1 UNK         0.0600 
    220 H220       -2.1283  -22.4524  -51.7936 H         1 UNK         0.3000 
    221 H221       -1.0742  -22.2441  -53.7287 H         1 UNK         0.0600 
    222 H222       -2.4622  -19.5266  -54.0731 H         1 UNK         0.0600 
    223 H223       -0.9452  -19.7869  -53.2229 H         1 UNK         0.0600 
    224 H224       -1.0492  -20.0937  -54.9478 H         1 UNK         0.0600 
    225 H225       -3.0358  -23.9580  -53.7501 H         1 UNK         0.3000 
    226 H226       -4.5964  -25.1173  -54.8267 H         1 UNK         0.0600 
    227 H227       -2.8375  -25.2163  -56.5957 H         1 UNK         0.0600 
    228 H228       -4.4492  -25.2763  -57.2910 H         1 UNK         0.0600 
    229 H229       -3.5184  -23.7869  -57.3710 H         1 UNK         0.0600 
    230 H230       -5.6780  -23.1556  -53.5273 H         1 UNK         0.3000 
    231 H231       -7.4277  -21.9749  -53.0957 H         1 UNK         0.0600 
    232 H232       -8.6760  -22.9381  -55.7193 H         1 UNK         0.0600 
    233 H233       -9.5291  -22.2946  -54.3260 H         1 UNK         0.0600 
    234 H234       -8.6903  -23.8308  -54.1977 H         1 UNK         0.0600 
    235 H235       -5.3783  -20.8996  -55.4207 H         1 UNK         0.3000 
    236 H236       -6.7983  -18.7377  -56.6129 H         1 UNK         0.0600 
    237 H237       -4.6486  -19.6753  -57.4957 H         1 UNK         0.0600 
    238 H238       -4.5640  -17.9342  -57.2687 H         1 UNK         0.0600 
    239 H239       -3.7912  -19.0033  -56.1081 H         1 UNK         0.0600 
    240 H240       -5.2005  -19.0520  -53.4789 H         1 UNK         0.3000 
    241 H241       -5.6383  -16.2038  -52.8311 H         1 UNK         0.0600 
    242 H242       -8.7107  -18.3238  -51.5323 H         1 UNK         0.3800 
    243 H243       -7.8073  -18.6951  -52.9772 H         1 UNK         0.3800 
    244 H244       -4.3982  -18.1995  -50.9106 H         1 UNK         0.0800 
    245 H245       -3.4572  -17.6278  -52.2554 H         1 UNK         0.0800 
    246 H246       -3.5152  -17.2368  -48.8024 H         1 UNK         0.0800 
    247 H247       -2.7513  -15.6780  -48.6272 H         1 UNK         0.0800 
@<TRIPOS>BOND
     1    1    2 1    
     2    1  127 1    
     3    1  128 1    
     4    1  129 1    
     5    2    3 2    
     6    2    4 am   BACKBONE|DICT|INTERRES
     7    4    5 1    
     8    4  130 1    
     9    5    6 1    
    10    5   65 1    
    11    5  131 1    
    12    6    7 1    
    13    6  132 1    
    14    6  133 1    
    15    7    8 1    
    16    8    9 1    
    17    8  134 1    
    18    8  135 1    
    19    9   10 ar   
    20    9   14 ar   
    21   10   11 ar   
    22   10  136 1    
    23   11   12 ar   
    24   11  126 1    
    25   12   13 ar   
    26   12  137 1    
    27   13   14 ar   
    28   13   15 1    
    29   14  138 1    
    30   15   16 1    
    31   15  139 1    
    32   15  140 1    
    33   16   17 1    
    34   17   18 1    
    35   17  141 1    
    36   17  142 1    
    37   18   19 1    
    38   18   67 1    
    39   18  143 1    
    40   19   20 am   BACKBONE|DICT|INTERRES
    41   19  144 1    
    42   20   21 2    
    43   20   22 1    
    44   22   23 1    
    45   22   24 1    
    46   22  145 1    
    47   23  146 1    
    48   23  147 1    
    49   23  148 1    
    50   24   25 am   BACKBONE|DICT|INTERRES
    51   24  149 1    
    52   25   26 2    
    53   25   27 1    
    54   27   28 1    
    55   27   29 1    
    56   27  150 1    
    57   28  151 1    
    58   28  152 1    
    59   28  153 1    
    60   29   30 am   BACKBONE|DICT|INTERRES
    61   29  154 1    
    62   30   31 2    
    63   30   32 1    
    64   32   33 1    
    65   32   34 1    
    66   32  155 1    
    67   33  156 1    
    68   33  157 1    
    69   33  158 1    
    70   34   35 am   BACKBONE|DICT|INTERRES
    71   34  159 1    
    72   35   36 2    
    73   35   37 1    
    74   37   38 1    
    75   37   39 1    
    76   37  160 1    
    77   38  161 1    
    78   38  162 1    
    79   38  163 1    
    80   39   40 am   BACKBONE|DICT|INTERRES
    81   39  164 1    
    82   40   41 2    
    83   40   42 1    
    84   42   43 1    
    85   42   44 1    
    86   42  165 1    
    87   43  166 1    
    88   43  167 1    
    89   43  168 1    
    90   44   45 am   BACKBONE|DICT|INTERRES
    91   44  169 1    
    92   45   46 2    
    93   45   47 1    
    94   47   48 1    
    95   47   49 1    
    96   47  170 1    
    97   48  171 1    
    98   48  172 1    
    99   48  173 1    
   100   49   50 am   BACKBONE|DICT|INTERRES
   101   49  174 1    
   102   50   51 2    
   103   50   52 1    
   104   52   53 1    
   105   52   54 1    
   106   52  175 1    
   107   53  176 1    
   108   53  177 1    
   109   53  178 1    
   110   54   55 am   BACKBONE|DICT|INTERRES
   111   54  179 1    
   112   55   56 2    
   113   55   57 1    
   114   57   58 1    
   115   57   59 1    
   116   57  180 1    
   117   58  181 1    
   118   58  182 1    
   119   58  183 1    
   120   59   60 am   BACKBONE|DICT|INTERRES
   121   59  184 1    
   122   60   61 2    
   123   60   62 1    
   124   62   63 1    
   125   62   64 1    
   126   62  185 1    
   127   63  186 1    
   128   63  187 1    
   129   63  188 1    
   130   64   65 am   BACKBONE|DICT|INTERRES
   131   64  189 1    
   132   65   66 2    
   133   67   68 2    
   134   67   69 am   BACKBONE|DICT|INTERRES
   135   69   70 1    
   136   69  190 1    
   137   70   71 1    
   138   70   72 1    
   139   70  191 1    
   140   71  192 1    
   141   71  193 1    
   142   71  194 1    
   143   72   73 2    
   144   72   74 am   BACKBONE|DICT|INTERRES
   145   74   75 1    
   146   74  195 1    
   147   75   76 1    
   148   75   77 1    
   149   75  196 1    
   150   76  197 1    
   151   76  198 1    
   152   76  199 1    
   153   77   78 2    
   154   77   79 am   BACKBONE|DICT|INTERRES
   155   79   80 1    
   156   79  200 1    
   157   80   81 1    
   158   80   82 1    
   159   80  201 1    
   160   81  202 1    
   161   81  203 1    
   162   81  204 1    
   163   82   83 2    
   164   82   84 am   BACKBONE|DICT|INTERRES
   165   84   85 1    
   166   84  205 1    
   167   85   86 1    
   168   85   87 1    
   169   85  206 1    
   170   86  207 1    
   171   86  208 1    
   172   86  209 1    
   173   87   88 2    
   174   87   89 am   BACKBONE|DICT|INTERRES
   175   89   90 1    
   176   89  210 1    
   177   90   91 1    
   178   90   92 1    
   179   90  211 1    
   180   91  212 1    
   181   91  213 1    
   182   91  214 1    
   183   92   93 2    
   184   92   94 am   BACKBONE|DICT|INTERRES
   185   94   95 1    
   186   94  215 1    
   187   95   96 1    
   188   95   97 1    
   189   95  216 1    
   190   96  217 1    
   191   96  218 1    
   192   96  219 1    
   193   97   98 2    
   194   97   99 am   BACKBONE|DICT|INTERRES
   195   99  100 1    
   196   99  220 1    
   197  100  101 1    
   198  100  102 1    
   199  100  221 1    
   200  101  222 1    
   201  101  223 1    
   202  101  224 1    
   203  102  103 2    
   204  102  104 am   BACKBONE|DICT|INTERRES
   205  104  105 1    
   206  104  225 1    
   207  105  106 1    
   208  105  107 1    
   209  105  226 1    
   210  106  227 1    
   211  106  228 1    
   212  106  229 1    
   213  107  108 2    
   214  107  109 am   BACKBONE|DICT|INTERRES
   215  109  110 1    
   216  109  230 1    
   217  110  111 1    
   218  110  112 1    
   219  110  231 1    
   220  111  232 1    
   221  111  233 1    
   222  111  234 1    
   223  112  113 2    
   224  112  114 am   BACKBONE|DICT|INTERRES
   225  114  115 1    
   226  114  235 1    
   227  115  116 1    
   228  115  117 1    
   229  115  236 1    
   230  116  237 1    
   231  116  238 1    
   232  116  239 1    
   233  117  118 2    
   234  117  119 am   BACKBONE|DICT|INTERRES
   235  119  120 1    
   236  119  240 1    
   237  120  121 1    
   238  120  124 1    
   239  120  241 1    
   240  121  122 am   BACKBONE|DICT|INTERRES
   241  121  123 2    
   242  122  242 1    
   243  122  243 1    
   244  124  125 1    
   245  124  244 1    
   246  124  245 1    
   247  125  126 1    
   248  126  246 1    
   249  126  247 1    
@<TRIPOS>SUBSTRUCTURE
     1 UNK         1 GROUP             0       ****    0 ROOT    
