@<TRIPOS>MOLECULE
3R540
247   249    1
SMALL
USER_CHARGES


@<TRIPOS>ATOM
      1 CA          1.3153  -15.0272  -51.2759 C.3       0 UNK        -0.1800 
      2 C           1.9460  -14.7768  -49.9134 C.2       0 UNK         0.5000 
      3 O           3.1713  -14.7881  -49.7917 O.2       0 UNK        -0.5000 
      4 N           1.1143  -14.5551  -48.8899 N.am      1 UNK        -0.5000 
      5 CA          1.5288  -14.2166  -47.5274 C.3       1 UNK         0.1400 
      6 C6          0.4066  -14.5185  -46.4963 C.3       23 UNK        -0.0398 
      7 S7         -1.1412  -13.5748  -46.7672 S.3       23 UNK        -0.2404 
      8 C8         -2.3684  -14.8709  -47.1266 C.3       23 UNK        -0.0205 
      9 C9         -2.1062  -15.5793  -48.4467 C.ar      23 UNK        -0.0193 
     10 C10        -2.6146  -15.0674  -49.6430 C.ar      23 UNK        -0.1150 
     11 C11        -2.4032  -15.7349  -50.8551 C.ar      23 UNK        -0.0193 
     12 C12        -1.6627  -16.9248  -50.8558 C.ar      23 UNK        -0.1150 
     13 C13        -1.1521  -17.4491  -49.6658 C.ar      23 UNK        -0.0193 
     14 C14        -1.3743  -16.7663  -48.4705 C.ar      23 UNK        -0.1150 
     15 C15        -0.3501  -18.7427  -49.6628 C.3       23 UNK        -0.0205 
     16 S16        -1.0098  -19.9397  -48.4597 S.3       23 UNK        -0.2404 
     17 C17         0.0981  -21.3575  -48.7508 C.3       23 UNK        -0.0398 
     18 CA         -0.0992  -22.5522  -47.7852 C.3       11 UNK         0.1400 
     19 N           0.4080  -22.2921  -46.4310 N.am      11 UNK        -0.5000 
     20 C           0.6888  -23.2765  -45.5623 C.2       10 UNK         0.5000 
     21 O           0.5128  -24.4691  -45.8099 O.2       10 UNK        -0.5000 
     22 CA          1.2197  -22.8775  -44.1765 C.3       10 UNK         0.1400 
     23 CB          2.6710  -22.3853  -44.2680 C.3       10 UNK        -0.1800 
     24 N           0.3960  -21.8767  -43.5019 N.am      10 UNK        -0.5000 
     25 C          -0.8927  -22.0390  -43.1692 C.2       9 UNK         0.5000 
     26 O          -1.5599  -23.0296  -43.4665 O.2       9 UNK        -0.5000 
     27 CA         -1.5476  -20.8966  -42.3786 C.3       9 UNK         0.1400 
     28 CB         -1.1985  -20.9967  -40.8857 C.3       9 UNK        -0.1800 
     29 N          -1.1236  -19.5971  -42.8924 N.am      9 UNK        -0.5000 
     30 C          -1.7113  -18.9738  -43.9211 C.2       8 UNK         0.5000 
     31 O          -2.7229  -19.3891  -44.4852 O.2       8 UNK        -0.5000 
     32 CA         -1.0547  -17.6724  -44.4147 C.3       8 UNK         0.1400 
     33 CB         -1.6125  -16.4618  -43.6506 C.3       8 UNK        -0.1800 
     34 N           0.4039  -17.6664  -44.3079 N.am      8 UNK        -0.5000 
     35 C           1.2380  -18.5022  -44.9458 C.2       7 UNK         0.5000 
     36 O           0.8792  -19.3802  -45.7301 O.2       7 UNK        -0.5000 
     37 CA          2.7326  -18.3635  -44.5971 C.3       7 UNK         0.1400 
     38 CB          3.3853  -17.2979  -45.4910 C.3       7 UNK        -0.1800 
     39 N           2.9829  -18.0250  -43.1928 N.am      7 UNK        -0.5000 
     40 C           2.4982  -18.6682  -42.1193 C.2       6 UNK         0.5000 
     41 O           1.8038  -19.6829  -42.1899 O.2       6 UNK        -0.5000 
     42 CA          2.7985  -18.0597  -40.7349 C.3       6 UNK         0.1400 
     43 CB          3.8203  -18.9259  -39.9831 C.3       6 UNK        -0.1800 
     44 N           3.2820  -16.6742  -40.7694 N.am      6 UNK        -0.5000 
     45 C           2.5824  -15.6102  -41.1866 C.2       5 UNK         0.5000 
     46 O           1.4363  -15.6693  -41.6417 O.2       5 UNK        -0.5000 
     47 CA          3.3189  -14.2659  -41.1345 C.3       5 UNK         0.1400 
     48 CB          4.2845  -14.1269  -42.3256 C.3       5 UNK        -0.1800 
     49 N           2.3508  -13.1739  -41.1591 N.am      5 UNK        -0.5000 
     50 C           2.5381  -11.9689  -40.6069 C.2       4 UNK         0.5000 
     51 O           3.5704  -11.6474  -40.0154 O.2       4 UNK        -0.5000 
     52 CA          1.3996  -10.9497  -40.7912 C.3       4 UNK         0.1400 
     53 CB          1.7815   -9.5263  -40.3328 C.3       4 UNK        -0.1800 
     54 N           0.9983  -10.9423  -42.1954 N.am      4 UNK        -0.5000 
     55 C          -0.1549  -10.4796  -42.6909 C.2       3 UNK         0.5000 
     56 O          -1.0496  -10.0016  -41.9919 O.2       3 UNK        -0.5000 
     57 CA         -0.3630  -10.6029  -44.2172 C.3       3 UNK         0.1400 
     58 CB         -0.9864   -9.3331  -44.8326 C.3       3 UNK        -0.1800 
     59 N           0.8348  -11.0273  -44.9581 N.am      3 UNK        -0.5000 
     60 C           1.9701  -10.3450  -45.1842 C.2       2 UNK         0.5000 
     61 O           2.1653   -9.1938  -44.7952 O.2       2 UNK        -0.5000 
     62 CA          3.1025  -11.0900  -45.9295 C.3       2 UNK         0.1400 
     63 CB          4.3601  -11.1751  -45.0485 C.3       2 UNK        -0.1800 
     64 N           2.7264  -12.4501  -46.3320 N.am      2 UNK        -0.5000 
     65 C           2.0087  -12.7507  -47.4224 C.2       1 UNK         0.5000 
     66 O           1.6752  -11.9168  -48.2683 O.2       1 UNK        -0.5000 
     67 C          -1.5491  -23.0854  -47.7755 C.2       11 UNK         0.5000 
     68 O          -1.9180  -23.8718  -48.6526 O.2       11 UNK        -0.5000 
     69 N          -2.3363  -22.6667  -46.7733 N.am      12 UNK        -0.5000 
     70 CA         -3.6994  -23.1307  -46.5361 C.3       12 UNK         0.1400 
     71 CB         -4.3874  -22.2438  -45.4891 C.3       12 UNK        -0.1800 
     72 C          -3.7271  -24.6122  -46.1289 C.2       12 UNK         0.5000 
     73 O          -4.4869  -25.3865  -46.7104 O.2       12 UNK        -0.5000 
     74 N          -2.8578  -24.9866  -45.1811 N.am      13 UNK        -0.5000 
     75 CA         -2.6631  -26.3650  -44.7356 C.3       13 UNK         0.1400 
     76 CB         -1.7606  -26.3736  -43.4923 C.3       13 UNK        -0.1800 
     77 C          -2.0819  -27.2740  -45.8346 C.2       13 UNK         0.5000 
     78 O          -2.4918  -28.4308  -45.9388 O.2       13 UNK        -0.5000 
     79 N          -1.1419  -26.7397  -46.6271 N.am      14 UNK        -0.5000 
     80 CA         -0.4595  -27.4621  -47.6976 C.3       14 UNK         0.1400 
     81 CB          0.7734  -26.6713  -48.1616 C.3       14 UNK        -0.1800 
     82 C          -1.3682  -27.7913  -48.8936 C.2       14 UNK         0.5000 
     83 O          -1.3964  -28.9479  -49.3180 O.2       14 UNK        -0.5000 
     84 N          -2.0614  -26.7814  -49.4406 N.am      15 UNK        -0.5000 
     85 CA         -2.7687  -26.9093  -50.7187 C.3       15 UNK         0.1400 
     86 CB         -1.7568  -26.7937  -51.8801 C.3       15 UNK        -0.1800 
     87 C          -3.9336  -25.9178  -50.8768 C.2       15 UNK         0.5000 
     88 O          -4.2916  -25.5985  -52.0118 O.2       15 UNK        -0.5000 
     89 N          -4.5019  -25.4209  -49.7670 N.am      16 UNK        -0.5000 
     90 CA         -5.6038  -24.4460  -49.7329 C.3       16 UNK         0.1400 
     91 CB         -6.9118  -25.0881  -50.2431 C.3       16 UNK        -0.1800 
     92 C          -5.2584  -23.1279  -50.4627 C.2       16 UNK         0.5000 
     93 O          -6.0916  -22.5921  -51.1939 O.2       16 UNK        -0.5000 
     94 N          -4.0099  -22.6637  -50.2926 N.am      17 UNK        -0.5000 
     95 CA         -3.3939  -21.5249  -50.9858 C.3       17 UNK         0.1400 
     96 CB         -4.0576  -20.1936  -50.5763 C.3       17 UNK        -0.1800 
     97 C          -3.3440  -21.7395  -52.5122 C.2       17 UNK         0.5000 
     98 O          -3.6923  -20.8421  -53.2807 O.2       17 UNK        -0.5000 
     99 N          -2.9459  -22.9581  -52.9094 N.am      18 UNK        -0.5000 
    100 CA        -2.9255  -23.4862  -54.2776 C.3       18 UNK         0.1400 
    101 CB        -1.8674  -22.7532  -55.1283 C.3       18 UNK        -0.1800 
    102 C         -4.3310  -23.4684  -54.9115 C.2       18 UNK         0.5000 
    103 O         -4.5102  -22.9312  -56.0037 O.2       18 UNK        -0.5000 
    104 N         -5.3155  -24.0033  -54.1740 N.am      19 UNK        -0.5000 
    105 CA        -6.7540  -23.9728  -54.4717 C.3       19 UNK         0.1400 
    106 CB        -7.0808  -24.9117  -55.6508 C.3       19 UNK        -0.1800 
    107 C         -7.2830  -22.5341  -54.6764 C.2       19 UNK         0.5000 
    108 O         -8.0319  -22.2689  -55.6183 O.2       19 UNK        -0.5000 
    109 N         -6.8363  -21.6298  -53.7944 N.am      20 UNK        -0.5000 
    110 CA        -7.0766  -20.1848  -53.7611 C.3       20 UNK         0.1400 
    111 CB        -8.5725  -19.8864  -53.5306 C.3       20 UNK        -0.1800 
    112 C         -6.4944  -19.3916  -54.9540 C.2       20 UNK         0.5000 
    113 O         -6.8327  -18.2164  -55.1070 O.2       20 UNK        -0.5000 
    114 N         -5.6261  -20.0080  -55.7705 N.am      21 UNK        -0.5000 
    115 CA        -4.9517  -19.3464  -56.8915 C.3       21 UNK         0.1400 
    116 CB        -4.5640  -20.3904  -57.9497 C.3       21 UNK        -0.1800 
    117 C         -3.7112  -18.5441  -56.4543 C.2       21 UNK         0.5000 
    118 O         -3.2690  -17.6753  -57.2069 O.2       21 UNK        -0.5000 
    119 N         -3.1664  -18.8520  -55.2688 N.am      22 UNK        -0.5000 
    120 CA        -1.9884  -18.2231  -54.6443 C.3       22 UNK         0.1400 
    121 C         -0.6264  -18.5303  -55.3401 C.2       22 UNK         0.5000 
    122 N         -0.5558  -19.4437  -56.3006 N.am      22 UNK        -0.7600 
    123 O          0.3975  -17.9565  -54.9795 O.2       22 UNK        -0.5000 
    124 C124       -2.1757  -16.7036  -54.3660 C.3       23 UNK        -0.0398 
    125 S125       -3.6360  -16.3393  -53.3273 S.3       23 UNK        -0.2404 
    126 C126       -2.9581  -15.1262  -52.1422 C.3       23 UNK        -0.0205 
    127 H127        1.8757  -14.5092  -52.0542 H         1 UNK         0.0600 
    128 H128        0.2862  -14.6703  -51.3109 H         1 UNK         0.0600 
    129 H129        1.3184  -16.0934  -51.5025 H         1 UNK         0.0600 
    130 H130        0.1167  -14.5378  -49.0520 H         1 UNK         0.3000 
    131 H131        2.3816  -14.8513  -47.2778 H         1 UNK         0.0600 
    132 H132        0.7526  -14.3123  -45.4823 H         1 UNK         0.0800 
    133 H133        0.1936  -15.5855  -46.4956 H         1 UNK         0.0800 
    134 H134       -3.3579  -14.4122  -47.1530 H         1 UNK         0.0800 
    135 H135       -2.3970  -15.5885  -46.3075 H         1 UNK         0.0800 
    136 H136       -3.1792  -14.1455  -49.6268 H         1 UNK         0.1150 
    137 H137       -1.4782  -17.4477  -51.7800 H         1 UNK         0.1150 
    138 H138       -0.9753  -17.1779  -47.5581 H         1 UNK         0.1150 
    139 H139       -0.3492  -19.1975  -50.6545 H         1 UNK         0.0800 
    140 H140        0.6877  -18.5149  -49.4155 H         1 UNK         0.0800 
    141 H141       -0.0424  -21.6917  -49.7798 H         1 UNK         0.0800 
    142 H142        1.1301  -21.0084  -48.6920 H         1 UNK         0.0800 
    143 H143        0.5119  -23.3602  -48.1917 H         1 UNK         0.0600 
    144 H144        0.5467  -21.3204  -46.1654 H         1 UNK         0.3000 
    145 H145        1.2101  -23.7724  -43.5509 H         1 UNK         0.0600 
    146 H146        3.0570  -22.0976  -43.2898 H         1 UNK         0.0600 
    147 H147        2.7611  -21.5280  -44.9330 H         1 UNK         0.0600 
    148 H148        3.3217  -23.1687  -44.6583 H         1 UNK         0.0600 
    149 H149        0.8737  -21.0395  -43.1821 H         1 UNK         0.3000 
    150 H150       -2.6310  -20.9950  -42.4763 H         1 UNK         0.0600 
    151 H151       -1.5258  -21.9521  -40.4736 H         1 UNK         0.0600 
    152 H152       -1.6906  -20.2103  -40.3134 H         1 UNK         0.0600 
    153 H153       -0.1250  -20.9156  -40.7114 H         1 UNK         0.0600 
    154 H154       -0.2573  -19.2259  -42.5242 H         1 UNK         0.3000 
    155 H155       -1.3153  -17.5672  -45.4657 H         1 UNK         0.0600 
    156 H156       -2.6990  -16.4134  -43.7331 H         1 UNK         0.0600 
    157 H157       -1.2151  -15.5260  -44.0434 H         1 UNK         0.0600 
    158 H158       -1.3645  -16.5085  -42.5893 H         1 UNK         0.0600 
    159 H159        0.8000  -17.0115  -43.6466 H         1 UNK         0.3000 
    160 H160        3.2162  -19.3194  -44.7971 H         1 UNK         0.0600 
    161 H161        2.9894  -16.3032  -45.2843 H         1 UNK         0.0600 
    162 H162        3.2101  -17.5099  -46.5470 H         1 UNK         0.0600 
    163 H163        4.4648  -17.2662  -45.3426 H         1 UNK         0.0600 
    164 H164        3.5516  -17.2093  -43.0248 H         1 UNK         0.3000 
    165 H165        1.8621  -18.0713  -40.1733 H         1 UNK         0.0600 
    166 H166        3.9744  -18.5628  -38.9668 H         1 UNK         0.0600 
    167 H167        3.4783  -19.9592  -39.9076 H         1 UNK         0.0600 
    168 H168        4.7872  -18.9365  -40.4877 H         1 UNK         0.0600 
    169 H169        4.2222  -16.5296  -40.4294 H         1 UNK         0.3000 
    170 H170        3.8847  -14.2316  -40.2008 H         1 UNK         0.0600 
    171 H171        3.7533  -14.1446  -43.2778 H         1 UNK         0.0600 
    172 H172        4.8448  -13.1935  -42.2701 H         1 UNK         0.0600 
    173 H173        5.0149  -14.9366  -42.3407 H         1 UNK         0.0600 
    174 H174        1.4561  -13.4133  -41.5684 H         1 UNK         0.3000 
    175 H175        0.5609  -11.2980  -40.1852 H         1 UNK         0.0600 
    176 H176        2.6073   -9.1257  -40.9220 H         1 UNK         0.0600 
    177 H177        0.9417   -8.8377  -40.4245 H         1 UNK         0.0600 
    178 H178        2.0872   -9.5194  -39.2859 H         1 UNK         0.0600 
    179 H179        1.6741  -11.3230  -42.8415 H         1 UNK         0.3000 
    180 H180       -1.0862  -11.4092  -44.3471 H         1 UNK         0.0600 
    181 H181       -0.3668   -8.4520  -44.6651 H         1 UNK         0.0600 
    182 H182       -1.9647   -9.1280  -44.3967 H         1 UNK         0.0600 
    183 H183       -1.1294   -9.4458  -45.9073 H         1 UNK         0.0600 
    184 H184        0.7815  -11.9578  -45.3432 H         1 UNK         0.3000 
    185 H185        3.3487  -10.5066  -46.8192 H         1 UNK         0.0600 
    186 H186        4.1624  -11.6998  -44.1139 H         1 UNK         0.0600 
    187 H187        5.1695  -11.6943  -45.5622 H         1 UNK         0.0600 
    188 H188        4.7277  -10.1805  -44.7925 H         1 UNK         0.0600 
    189 H189        2.9929  -13.1876  -45.6962 H         1 UNK         0.3000 
    190 H190       -1.9500  -22.0227  -46.0980 H         1 UNK         0.3000 
    191 H191       -4.2514  -23.0218  -47.4682 H         1 UNK         0.0600 
    192 H192       -4.4259  -21.2058  -45.8201 H         1 UNK         0.0600 
    193 H193       -3.8725  -22.2678  -44.5292 H         1 UNK         0.0600 
    194 H194       -5.4144  -22.5683  -45.3182 H         1 UNK         0.0600 
    195 H195       -2.2867  -24.2786  -44.7262 H         1 UNK         0.3000 
    196 H196       -3.6378  -26.7673  -44.4520 H         1 UNK         0.0600 
    197 H197       -2.2047  -25.7980  -42.6800 H         1 UNK         0.0600 
    198 H198       -0.7795  -25.9469  -43.7051 H         1 UNK         0.0600 
    199 H199       -1.6068  -27.3894  -43.1263 H         1 UNK         0.0600 
    200 H200       -0.8038  -25.8046  -46.4216 H         1 UNK         0.3000 
    201 H201       -0.1050  -28.4087  -47.2840 H         1 UNK         0.0600 
    202 H202        1.4776  -26.5219  -47.3431 H         1 UNK         0.0600 
    203 H203        0.4998  -25.6923  -48.5539 H         1 UNK         0.0600 
    204 H204        1.3045  -27.2037  -48.9517 H         1 UNK         0.0600 
    205 H205       -1.9861  -25.8463  -49.0505 H         1 UNK         0.3000 
    206 H206       -3.2322  -27.8966  -50.7694 H         1 UNK         0.0600 
    207 H207       -0.9737  -27.5481  -51.8054 H         1 UNK         0.0600 
    208 H208       -1.2762  -25.8149  -51.8931 H         1 UNK         0.0600 
    209 H209       -2.2398  -26.9382  -52.8473 H         1 UNK         0.0600 
    210 H210       -4.1703  -25.7309  -48.8611 H         1 UNK         0.3000 
    211 H211       -5.7705  -24.1840  -48.6895 H         1 UNK         0.0600 
    212 H212       -6.8571  -25.3435  -51.3013 H         1 UNK         0.0600 
    213 H213       -7.7564  -24.4102  -50.1147 H         1 UNK         0.0600 
    214 H214       -7.1426  -25.9990  -49.6910 H         1 UNK         0.0600 
    215 H215       -3.3821  -23.1978  -49.6979 H         1 UNK         0.3000 
    216 H216       -2.3562  -21.4888  -50.6562 H         1 UNK         0.0600 
    217 H217       -3.5309  -19.3447  -51.0141 H         1 UNK         0.0600 
    218 H218       -4.0374  -20.0619  -49.4946 H         1 UNK         0.0600 
    219 H219       -5.0958  -20.1354  -50.9019 H         1 UNK         0.0600 
    220 H220       -2.7476  -23.6373  -52.1895 H         1 UNK         0.3000 
    221 H221       -2.6296  -24.5338  -54.2066 H         1 UNK         0.0600 
    222 H222       -2.1232  -21.7046  -55.2777 H         1 UNK         0.0600 
    223 H223       -0.8851  -22.7940  -54.6580 H         1 UNK         0.0600 
    224 H224       -1.7757  -23.2099  -56.1143 H         1 UNK         0.0600 
    225 H225       -5.0538  -24.4499  -53.2976 H         1 UNK         0.3000 
    226 H226       -7.2602  -24.3615  -53.5872 H         1 UNK         0.0600 
    227 H227       -6.7140  -25.9208  -55.4631 H         1 UNK         0.0600 
    228 H228       -8.1578  -24.9822  -55.8073 H         1 UNK         0.0600 
    229 H229       -6.6367  -24.5612  -56.5830 H         1 UNK         0.0600 
    230 H230       -6.2698  -21.9769  -53.0248 H         1 UNK         0.3000 
    231 H231       -6.5359  -19.8249  -52.8851 H         1 UNK         0.0600 
    232 H232       -8.7361  -18.8261  -53.3350 H         1 UNK         0.0600 
    233 H233       -8.9552  -20.4347  -52.6698 H         1 UNK         0.0600 
    234 H234       -9.1774  -20.1546  -54.3971 H         1 UNK         0.0600 
    235 H235       -5.3807  -20.9760  -55.5966 H         1 UNK         0.3000 
    236 H236       -5.6493  -18.6480  -57.3586 H         1 UNK         0.0600 
    237 H237       -3.7624  -21.0412  -57.6004 H         1 UNK         0.0600 
    238 H238       -5.4139  -21.0168  -58.2216 H         1 UNK         0.0600 
    239 H239       -4.2115  -19.9052  -58.8605 H         1 UNK         0.0600 
    240 H240       -3.5892  -19.5916  -54.7133 H         1 UNK         0.3000 
    241 H241       -1.9019  -18.7165  -53.6765 H         1 UNK         0.0600 
    242 H242        0.3330  -19.6400  -56.7332 H         1 UNK         0.3800 
    243 H243       -1.3846  -19.9211  -56.6129 H         1 UNK         0.3800 
    244 H244       -2.2695  -16.1484  -55.2997 H         1 UNK         0.0800 
    245 H245       -1.2894  -16.3010  -53.8736 H         1 UNK         0.0800 
    246 H246       -3.7659  -14.4347  -51.8982 H         1 UNK         0.0800 
    247 H247       -2.1841  -14.5241  -52.6194 H         1 UNK         0.0800 
@<TRIPOS>BOND
     1    1    2 1    
     2    1  127 1    
     3    1  128 1    
     4    1  129 1    
     5    2    3 2    
     6    2    4 am   BACKBONE|DICT|INTERRES
     7    4    5 1    
     8    4  130 1    
     9    5    6 1    
    10    5   65 1    
    11    5  131 1    
    12    6    7 1    
    13    6  132 1    
    14    6  133 1    
    15    7    8 1    
    16    8    9 1    
    17    8  134 1    
    18    8  135 1    
    19    9   10 ar   
    20    9   14 ar   
    21   10   11 ar   
    22   10  136 1    
    23   11   12 ar   
    24   11  126 1    
    25   12   13 ar   
    26   12  137 1    
    27   13   14 ar   
    28   13   15 1    
    29   14  138 1    
    30   15   16 1    
    31   15  139 1    
    32   15  140 1    
    33   16   17 1    
    34   17   18 1    
    35   17  141 1    
    36   17  142 1    
    37   18   19 1    
    38   18   67 1    
    39   18  143 1    
    40   19   20 am   BACKBONE|DICT|INTERRES
    41   19  144 1    
    42   20   21 2    
    43   20   22 1    
    44   22   23 1    
    45   22   24 1    
    46   22  145 1    
    47   23  146 1    
    48   23  147 1    
    49   23  148 1    
    50   24   25 am   BACKBONE|DICT|INTERRES
    51   24  149 1    
    52   25   26 2    
    53   25   27 1    
    54   27   28 1    
    55   27   29 1    
    56   27  150 1    
    57   28  151 1    
    58   28  152 1    
    59   28  153 1    
    60   29   30 am   BACKBONE|DICT|INTERRES
    61   29  154 1    
    62   30   31 2    
    63   30   32 1    
    64   32   33 1    
    65   32   34 1    
    66   32  155 1    
    67   33  156 1    
    68   33  157 1    
    69   33  158 1    
    70   34   35 am   BACKBONE|DICT|INTERRES
    71   34  159 1    
    72   35   36 2    
    73   35   37 1    
    74   37   38 1    
    75   37   39 1    
    76   37  160 1    
    77   38  161 1    
    78   38  162 1    
    79   38  163 1    
    80   39   40 am   BACKBONE|DICT|INTERRES
    81   39  164 1    
    82   40   41 2    
    83   40   42 1    
    84   42   43 1    
    85   42   44 1    
    86   42  165 1    
    87   43  166 1    
    88   43  167 1    
    89   43  168 1    
    90   44   45 am   BACKBONE|DICT|INTERRES
    91   44  169 1    
    92   45   46 2    
    93   45   47 1    
    94   47   48 1    
    95   47   49 1    
    96   47  170 1    
    97   48  171 1    
    98   48  172 1    
    99   48  173 1    
   100   49   50 am   BACKBONE|DICT|INTERRES
   101   49  174 1    
   102   50   51 2    
   103   50   52 1    
   104   52   53 1    
   105   52   54 1    
   106   52  175 1    
   107   53  176 1    
   108   53  177 1    
   109   53  178 1    
   110   54   55 am   BACKBONE|DICT|INTERRES
   111   54  179 1    
   112   55   56 2    
   113   55   57 1    
   114   57   58 1    
   115   57   59 1    
   116   57  180 1    
   117   58  181 1    
   118   58  182 1    
   119   58  183 1    
   120   59   60 am   BACKBONE|DICT|INTERRES
   121   59  184 1    
   122   60   61 2    
   123   60   62 1    
   124   62   63 1    
   125   62   64 1    
   126   62  185 1    
   127   63  186 1    
   128   63  187 1    
   129   63  188 1    
   130   64   65 am   BACKBONE|DICT|INTERRES
   131   64  189 1    
   132   65   66 2    
   133   67   68 2    
   134   67   69 am   BACKBONE|DICT|INTERRES
   135   69   70 1    
   136   69  190 1    
   137   70   71 1    
   138   70   72 1    
   139   70  191 1    
   140   71  192 1    
   141   71  193 1    
   142   71  194 1    
   143   72   73 2    
   144   72   74 am   BACKBONE|DICT|INTERRES
   145   74   75 1    
   146   74  195 1    
   147   75   76 1    
   148   75   77 1    
   149   75  196 1    
   150   76  197 1    
   151   76  198 1    
   152   76  199 1    
   153   77   78 2    
   154   77   79 am   BACKBONE|DICT|INTERRES
   155   79   80 1    
   156   79  200 1    
   157   80   81 1    
   158   80   82 1    
   159   80  201 1    
   160   81  202 1    
   161   81  203 1    
   162   81  204 1    
   163   82   83 2    
   164   82   84 am   BACKBONE|DICT|INTERRES
   165   84   85 1    
   166   84  205 1    
   167   85   86 1    
   168   85   87 1    
   169   85  206 1    
   170   86  207 1    
   171   86  208 1    
   172   86  209 1    
   173   87   88 2    
   174   87   89 am   BACKBONE|DICT|INTERRES
   175   89   90 1    
   176   89  210 1    
   177   90   91 1    
   178   90   92 1    
   179   90  211 1    
   180   91  212 1    
   181   91  213 1    
   182   91  214 1    
   183   92   93 2    
   184   92   94 am   BACKBONE|DICT|INTERRES
   185   94   95 1    
   186   94  215 1    
   187   95   96 1    
   188   95   97 1    
   189   95  216 1    
   190   96  217 1    
   191   96  218 1    
   192   96  219 1    
   193   97   98 2    
   194   97   99 am   BACKBONE|DICT|INTERRES
   195   99  100 1    
   196   99  220 1    
   197  100  101 1    
   198  100  102 1    
   199  100  221 1    
   200  101  222 1    
   201  101  223 1    
   202  101  224 1    
   203  102  103 2    
   204  102  104 am   BACKBONE|DICT|INTERRES
   205  104  105 1    
   206  104  225 1    
   207  105  106 1    
   208  105  107 1    
   209  105  226 1    
   210  106  227 1    
   211  106  228 1    
   212  106  229 1    
   213  107  108 2    
   214  107  109 am   BACKBONE|DICT|INTERRES
   215  109  110 1    
   216  109  230 1    
   217  110  111 1    
   218  110  112 1    
   219  110  231 1    
   220  111  232 1    
   221  111  233 1    
   222  111  234 1    
   223  112  113 2    
   224  112  114 am   BACKBONE|DICT|INTERRES
   225  114  115 1    
   226  114  235 1    
   227  115  116 1    
   228  115  117 1    
   229  115  236 1    
   230  116  237 1    
   231  116  238 1    
   232  116  239 1    
   233  117  118 2    
   234  117  119 am   BACKBONE|DICT|INTERRES
   235  119  120 1    
   236  119  240 1    
   237  120  121 1    
   238  120  124 1    
   239  120  241 1    
   240  121  122 am   BACKBONE|DICT|INTERRES
   241  121  123 2    
   242  122  242 1    
   243  122  243 1    
   244  124  125 1    
   245  124  244 1    
   246  124  245 1    
   247  125  126 1    
   248  126  246 1    
   249  126  247 1    
@<TRIPOS>SUBSTRUCTURE
     1 UNK         1 GROUP             0       ****    0 ROOT    
