@<TRIPOS>MOLECULE
3R540
247   249    1
SMALL
USER_CHARGES


@<TRIPOS>ATOM
      1 CA         -5.9986  -18.9613  -46.3782 C.3       0 UNK        -0.1800 
      2 C          -5.3344  -17.6218  -46.6523 C.2       0 UNK         0.5000 
      3 O          -5.6786  -16.6344  -46.0021 O.2       0 UNK        -0.5000 
      4 N          -4.3829  -17.5702  -47.5956 N.am      1 UNK        -0.5000 
      5 CA         -3.6333  -16.3606  -47.9678 C.3       1 UNK         0.1400 
      6 C6         -3.1651  -16.3876  -49.4460 C.3       23 UNK        -0.0398 
      7 S7         -1.9694  -17.6985  -49.8815 S.3       23 UNK        -0.2404 
      8 C8         -0.6136  -16.6793  -50.5435 C.3       23 UNK        -0.0205 
      9 C9          0.6428  -17.4974  -50.7871 C.ar      23 UNK        -0.0193 
     10 C10         0.9043  -18.0473  -52.0447 C.ar      23 UNK        -0.1150 
     11 C11         2.0748  -18.7809  -52.2700 C.ar      23 UNK        -0.0193 
     12 C12         2.9761  -18.9786  -51.2200 C.ar      23 UNK        -0.1150 
     13 C13         2.7103  -18.4542  -49.9523 C.ar      23 UNK        -0.0193 
     14 C14         1.5524  -17.6986  -49.7477 C.ar      23 UNK        -0.1150 
     15 C15         3.6397  -18.7532  -48.7859 C.3       23 UNK        -0.0205 
     16 S16         3.3977  -20.4444  -48.1454 S.3       23 UNK        -0.2404 
     17 C17         1.5835  -20.5020  -47.9420 C.3       23 UNK        -0.0398 
     18 CA          1.0873  -21.7754  -47.2245 C.3       11 UNK         0.1400 
     19 N           1.7117  -21.9517  -45.9074 N.am      11 UNK        -0.5000 
     20 C           1.4722  -22.9410  -45.0366 C.2       10 UNK         0.5000 
     21 O           0.5377  -23.7370  -45.1336 O.2       10 UNK        -0.5000 
     22 CA          2.4805  -23.0939  -43.8882 C.3       10 UNK         0.1400 
     23 CB          3.9387  -22.9982  -44.3766 C.3       10 UNK        -0.1800 
     24 N           2.2546  -22.0962  -42.8461 N.am      10 UNK        -0.5000 
     25 C           1.6458  -22.3545  -41.6812 C.2       9 UNK         0.5000 
     26 O           1.1375  -23.4395  -41.3947 O.2       9 UNK        -0.5000 
     27 CA          1.6247  -21.2205  -40.6418 C.3       9 UNK         0.1400 
     28 CB          3.0102  -21.0464  -39.9995 C.3       9 UNK        -0.1800 
     29 N           1.1827  -19.9452  -41.1978 N.am      9 UNK        -0.5000 
     30 C          -0.0765  -19.6733  -41.5659 C.2       8 UNK         0.5000 
     31 O          -1.0105  -20.4690  -41.4655 O.2       8 UNK        -0.5000 
     32 CA         -0.3343  -18.2689  -42.1423 C.3       8 UNK         0.1400 
     33 CB         -0.4809  -17.2443  -41.0060 C.3       8 UNK        -0.1800 
     34 N           0.7223  -17.8291  -43.0518 N.am      8 UNK        -0.5000 
     35 C           1.0368  -18.4267  -44.2083 C.2       7 UNK         0.5000 
     36 O           0.4363  -19.3947  -44.6653 O.2       7 UNK        -0.5000 
     37 CA          2.2576  -17.8786  -44.9621 C.3       7 UNK         0.1400 
     38 CB          1.8779  -16.6470  -45.7972 C.3       7 UNK        -0.1800 
     39 N           3.3588  -17.5563  -44.0569 N.am      7 UNK        -0.5000 
     40 C           4.0498  -18.4696  -43.3592 C.2       6 UNK         0.5000 
     41 O           3.8527  -19.6830  -43.4353 O.2       6 UNK        -0.5000 
     42 CA          5.1050  -17.9274  -42.3787 C.3       6 UNK         0.1400 
     43 CB          6.4132  -17.6028  -43.1150 C.3       6 UNK        -0.1800 
     44 N           4.6393  -16.7375  -41.6632 N.am      6 UNK        -0.5000 
     45 C           3.6443  -16.7410  -40.7646 C.2       5 UNK         0.5000 
     46 O           3.0436  -17.7568  -40.4165 O.2       5 UNK        -0.5000 
     47 CA          3.2140  -15.3727  -40.2011 C.3       5 UNK         0.1400 
     48 CB          4.1000  -14.9748  -39.0114 C.3       5 UNK        -0.1800 
     49 N           3.2245  -14.2975  -41.1999 N.am      5 UNK        -0.5000 
     50 C           2.4800  -14.2928  -42.3126 C.2       4 UNK         0.5000 
     51 O           1.7236  -15.2150  -42.6297 O.2       4 UNK        -0.5000 
     52 CA          2.6281  -13.0838  -43.2461 C.3       4 UNK         0.1400 
     53 CB          3.9796  -13.1143  -43.9821 C.3       4 UNK        -0.1800 
     54 N           1.5430  -13.1386  -44.2163 N.am      4 UNK        -0.5000 
     55 C           1.0063  -12.1148  -44.8845 C.2       3 UNK         0.5000 
     56 O           1.4011  -10.9524  -44.7847 O.2       3 UNK        -0.5000 
     57 CA         -0.1666  -12.4425  -45.8323 C.3       3 UNK         0.1400 
     58 CB          0.3034  -12.4138  -47.2952 C.3       3 UNK        -0.1800 
     59 N          -0.7918  -13.7435  -45.5765 N.am      3 UNK        -0.5000 
     60 C          -1.5850  -14.0437  -44.5420 C.2       2 UNK         0.5000 
     61 O          -1.8833  -13.2336  -43.6631 O.2       2 UNK        -0.5000 
     62 CA         -2.1428  -15.4856  -44.5036 C.3       2 UNK         0.1400 
     63 CB         -3.0055  -15.7533  -43.2568 C.3       2 UNK        -0.1800 
     64 N          -2.9476  -15.8218  -45.6787 N.am      2 UNK        -0.5000 
     65 C          -2.5296  -16.0121  -46.9358 C.2       1 UNK         0.5000 
     66 O          -1.3477  -15.9185  -47.2700 O.2       1 UNK        -0.5000 
     67 C          -0.4528  -21.7913  -47.2157 C.2       11 UNK         0.5000 
     68 O          -1.0532  -22.4530  -48.0617 O.2       11 UNK        -0.5000 
     69 N          -1.0590  -21.0909  -46.2506 N.am      12 UNK        -0.5000 
     70 CA         -2.5027  -20.9234  -46.0802 C.3       12 UNK         0.1400 
     71 CB         -2.7445  -19.9458  -44.9195 C.3       12 UNK        -0.1800 
     72 C          -3.2856  -22.2327  -45.8583 C.2       12 UNK         0.5000 
     73 O          -4.4911  -22.2544  -46.1054 O.2       12 UNK        -0.5000 
     74 N          -2.6045  -23.3000  -45.4157 N.am      13 UNK        -0.5000 
     75 CA         -3.1860  -24.6356  -45.2758 C.3       13 UNK         0.1400 
     76 CB         -2.2865  -25.4899  -44.3702 C.3       13 UNK        -0.1800 
     77 C          -3.4049  -25.3318  -46.6339 C.2       13 UNK         0.5000 
     78 O          -4.3169  -26.1514  -46.7486 O.2       13 UNK        -0.5000 
     79 N          -2.5742  -24.9973  -47.6308 N.am      14 UNK        -0.5000 
     80 CA         -2.6712  -25.4994  -48.9999 C.3       14 UNK         0.1400 
     81 CB         -1.2578  -25.7303  -49.5594 C.3       14 UNK        -0.1800 
     82 C          -3.4560  -24.5104  -49.8743 C.2       14 UNK         0.5000 
     83 O          -4.4229  -24.9000  -50.5300 O.2       14 UNK        -0.5000 
     84 N          -3.0537  -23.2348  -49.8348 N.am      15 UNK        -0.5000 
     85 CA         -3.6732  -22.1139  -50.5373 C.3       15 UNK         0.1400 
     86 CB         -2.5859  -21.0675  -50.8323 C.3       15 UNK        -0.1800 
     87 C          -4.8519  -21.5481  -49.7213 C.2       15 UNK         0.5000 
     88 O          -4.8654  -20.3646  -49.3695 O.2       15 UNK        -0.5000 
     89 N          -5.8154  -22.4265  -49.4147 N.am      16 UNK        -0.5000 
     90 CA         -7.0454  -22.1324  -48.6854 C.3       16 UNK         0.1400 
     91 CB         -7.7830  -23.4475  -48.3916 C.3       16 UNK        -0.1800 
     92 C          -7.9241  -21.1569  -49.4863 C.2       16 UNK         0.5000 
     93 O          -8.3701  -21.5018  -50.5819 O.2       16 UNK        -0.5000 
     94 N          -8.0981  -19.9435  -48.9429 N.am      17 UNK        -0.5000 
     95 CA         -8.7163  -18.7700  -49.5756 C.3       17 UNK         0.1400 
     96 CB        -10.2277  -18.9938  -49.7906 C.3       17 UNK        -0.1800 
     97 C          -7.9808  -18.3333  -50.8634 C.2       17 UNK         0.5000 
     98 O          -8.6166  -17.8698  -51.8124 O.2       17 UNK        -0.5000 
     99 N          -6.6524  -18.5269  -50.8781 N.am      18 UNK        -0.5000 
    100 CA        -5.7153  -18.3985  -51.9974 C.3       18 UNK         0.1400 
    101 CB        -5.7203  -16.9862  -52.6157 C.3       18 UNK        -0.1800 
    102 C         -5.9215  -19.4939  -53.0584 C.2       18 UNK         0.5000 
    103 O         -5.0019  -20.2741  -53.3052 O.2       18 UNK        -0.5000 
    104 N         -7.1232  -19.5441  -53.6495 N.am      19 UNK        -0.5000 
    105 CA        -7.5475  -20.4399  -54.7276 C.3       19 UNK         0.1400 
    106 CB        -7.6593  -21.8930  -54.2122 C.3       19 UNK        -0.1800 
    107 C         -6.6458  -20.2692  -55.9684 C.2       19 UNK         0.5000 
    108 O         -6.6492  -19.1922  -56.5671 O.2       19 UNK        -0.5000 
    109 N         -5.8732  -21.3064  -56.3158 N.am      20 UNK        -0.5000 
    110 CA        -4.8687  -21.2813  -57.3821 C.3       20 UNK         0.1400 
    111 CB        -4.5296  -22.7289  -57.7712 C.3       20 UNK        -0.1800 
    112 C         -3.5849  -20.5130  -57.0009 C.2       20 UNK         0.5000 
    113 O         -2.7857  -20.2065  -57.8888 O.2       20 UNK        -0.5000 
    114 N         -3.3988  -20.2311  -55.7012 N.am      21 UNK        -0.5000 
    115 CA        -2.2479  -19.5688  -55.0868 C.3       21 UNK         0.1400 
    116 CB        -2.2556  -18.0599  -55.4186 C.3       21 UNK        -0.1800 
    117 C         -0.9354  -20.2985  -55.4342 C.2       21 UNK         0.5000 
    118 O         -0.7954  -21.4740  -55.0915 O.2       21 UNK        -0.5000 
    119 N         -0.0124  -19.6062  -56.1088 N.am      22 UNK        -0.5000 
    120 CA         1.2740  -20.1488  -56.5720 C.3       22 UNK         0.1400 
    121 C          1.2046  -20.8110  -57.9807 C.2       22 UNK         0.5000 
    122 N          0.0524  -20.8792  -58.6392 N.am      22 UNK        -0.7600 
    123 O          2.2184  -21.2850  -58.4864 O.2       22 UNK        -0.5000 
    124 C124        2.4105  -19.0908  -56.4916 C.3       23 UNK        -0.0398 
    125 S125        2.5062  -18.1318  -54.9324 S.3       23 UNK        -0.2404 
    126 C126        2.3347  -19.4012  -53.6335 C.3       23 UNK        -0.0205 
    127 H127       -7.0504  -18.9166  -46.6531 H         1 UNK         0.0600 
    128 H128       -5.9479  -19.1934  -45.3149 H         1 UNK         0.0600 
    129 H129       -5.5187  -19.7720  -46.9233 H         1 UNK         0.0600 
    130 H130       -4.1320  -18.4100  -48.1027 H         1 UNK         0.3000 
    131 H131       -4.3348  -15.5248  -47.9146 H         1 UNK         0.0600 
    132 H132       -4.0347  -16.5182  -50.0888 H         1 UNK         0.0800 
    133 H133       -2.7572  -15.4122  -49.7155 H         1 UNK         0.0800 
    134 H134       -0.9394  -16.2023  -51.4691 H         1 UNK         0.0800 
    135 H135       -0.3874  -15.8732  -49.8435 H         1 UNK         0.0800 
    136 H136        0.1992  -17.9030  -52.8511 H         1 UNK         0.1150 
    137 H137        3.8682  -19.5689  -51.3763 H         1 UNK         0.1150 
    138 H138        1.3387  -17.2893  -48.7712 H         1 UNK         0.1150 
    139 H139        4.6769  -18.6362  -49.1029 H         1 UNK         0.0800 
    140 H140        3.4849  -18.0369  -47.9786 H         1 UNK         0.0800 
    141 H141        1.2587  -19.6077  -47.4077 H         1 UNK         0.0800 
    142 H142        1.1349  -20.4464  -48.9360 H         1 UNK         0.0800 
    143 H143        1.4005  -22.6336  -47.8226 H         1 UNK         0.0600 
    144 H144        2.4905  -21.3385  -45.7181 H         1 UNK         0.3000 
    145 H145        2.3507  -24.1003  -43.4843 H         1 UNK         0.0600 
    146 H146        4.6338  -23.2327  -43.5704 H         1 UNK         0.0600 
    147 H147        4.1280  -23.7076  -45.1832 H         1 UNK         0.0600 
    148 H148        4.1906  -22.0043  -44.7469 H         1 UNK         0.0600 
    149 H149        2.6500  -21.1739  -43.0064 H         1 UNK         0.3000 
    150 H150        0.9253  -21.5059  -39.8530 H         1 UNK         0.0600 
    151 H151        3.3673  -21.9864  -39.5770 H         1 UNK         0.0600 
    152 H152        2.9788  -20.3174  -39.1895 H         1 UNK         0.0600 
    153 H153        3.7517  -20.7077  -40.7239 H         1 UNK         0.0600 
    154 H154        1.8771  -19.2076  -41.2528 H         1 UNK         0.3000 
    155 H155       -1.2677  -18.2974  -42.7072 H         1 UNK         0.0600 
    156 H156       -0.5638  -16.2284  -41.3894 H         1 UNK         0.0600 
    157 H157        0.3736  -17.2659  -40.3296 H         1 UNK         0.0600 
    158 H158       -1.3729  -17.4479  -40.4126 H         1 UNK         0.0600 
    159 H159        1.2420  -16.9992  -42.7771 H         1 UNK         0.3000 
    160 H160        2.6055  -18.6573  -45.6427 H         1 UNK         0.0600 
    161 H161        1.5146  -15.8303  -45.1768 H         1 UNK         0.0600 
    162 H162        1.0831  -16.8917  -46.5017 H         1 UNK         0.0600 
    163 H163        2.7260  -16.2784  -46.3739 H         1 UNK         0.0600 
    164 H164        3.5474  -16.5790  -43.8959 H         1 UNK         0.3000 
    165 H165        5.3107  -18.7094  -41.6446 H         1 UNK         0.0600 
    166 H166        7.1903  -17.2898  -42.4175 H         1 UNK         0.0600 
    167 H167        6.7885  -18.4783  -43.6466 H         1 UNK         0.0600 
    168 H168        6.2788  -16.8062  -43.8478 H         1 UNK         0.0600 
    169 H169        5.0815  -15.8596  -41.8918 H         1 UNK         0.3000 
    170 H170        2.1886  -15.4772  -39.8403 H         1 UNK         0.0600 
    171 H171        4.0955  -15.7509  -38.2447 H         1 UNK         0.0600 
    172 H172        5.1361  -14.8181  -39.3141 H         1 UNK         0.0600 
    173 H173        3.7437  -14.0567  -38.5439 H         1 UNK         0.0600 
    174 H174        3.8276  -13.5105  -41.0081 H         1 UNK         0.3000 
    175 H175        2.5437  -12.1728  -42.6502 H         1 UNK         0.0600 
    176 H176        4.0916  -14.0205  -44.5789 H         1 UNK         0.0600 
    177 H177        4.0827  -12.2606  -44.6520 H         1 UNK         0.0600 
    178 H178        4.8140  -13.0749  -43.2810 H         1 UNK         0.0600 
    179 H179        1.1121  -14.0502  -44.2929 H         1 UNK         0.3000 
    180 H180       -0.9226  -11.6662  -45.6983 H         1 UNK         0.0600 
    181 H181        1.0517  -13.1831  -47.4908 H         1 UNK         0.0600 
    182 H182        0.7484  -11.4500  -47.5461 H         1 UNK         0.0600 
    183 H183       -0.5292  -12.5748  -47.9804 H         1 UNK         0.0600 
    184 H184       -0.6618  -14.4624  -46.2842 H         1 UNK         0.3000 
    185 H185       -1.2845  -16.1593  -44.4710 H         1 UNK         0.0600 
    186 H186       -2.4824  -15.4816  -42.3409 H         1 UNK         0.0600 
    187 H187       -3.9313  -15.1773  -43.2811 H         1 UNK         0.0600 
    188 H188       -3.2711  -16.8079  -43.1806 H         1 UNK         0.0600 
    189 H189       -3.9455  -15.9247  -45.5178 H         1 UNK         0.3000 
    190 H190       -0.4721  -20.5708  -45.5974 H         1 UNK         0.3000 
    191 H191       -2.8911  -20.4727  -46.9959 H         1 UNK         0.0600 
    192 H192       -2.2646  -20.2928  -44.0040 H         1 UNK         0.0600 
    193 H193       -3.8058  -19.8342  -44.7033 H         1 UNK         0.0600 
    194 H194       -2.3522  -18.9548  -45.1500 H         1 UNK         0.0600 
    195 H195       -1.6082  -23.2152  -45.2481 H         1 UNK         0.3000 
    196 H196       -4.1593  -24.5391  -44.7899 H         1 UNK         0.0600 
    197 H197       -2.7385  -26.4643  -44.1812 H         1 UNK         0.0600 
    198 H198       -2.1276  -25.0111  -43.4037 H         1 UNK         0.0600 
    199 H199       -1.3099  -25.6656  -44.8224 H         1 UNK         0.0600 
    200 H200       -1.8902  -24.2680  -47.4671 H         1 UNK         0.3000 
    201 H201       -3.1969  -26.4565  -49.0150 H         1 UNK         0.0600 
    202 H202       -0.7213  -26.4750  -48.9714 H         1 UNK         0.0600 
    203 H203       -0.6635  -24.8157  -49.5596 H         1 UNK         0.0600 
    204 H204       -1.3000  -26.0953  -50.5863 H         1 UNK         0.0600 
    205 H205       -2.2778  -22.9889  -49.2219 H         1 UNK         0.3000 
    206 H206       -4.0725  -22.4571  -51.4941 H         1 UNK         0.0600 
    207 H207       -2.1426  -20.6820  -49.9140 H         1 UNK         0.0600 
    208 H208       -1.7844  -21.4904  -51.4380 H         1 UNK         0.0600 
    209 H209       -2.9935  -20.2214  -51.3846 H         1 UNK         0.0600 
    210 H210       -5.7092  -23.3732  -49.7584 H         1 UNK         0.3000 
    211 H211       -6.7729  -21.6786  -47.7310 H         1 UNK         0.0600 
    212 H212       -8.0478  -23.9761  -49.3083 H         1 UNK         0.0600 
    213 H213       -8.7053  -23.2620  -47.8399 H         1 UNK         0.0600 
    214 H214       -7.1691  -24.1145  -47.7855 H         1 UNK         0.0600 
    215 H215       -7.6847  -19.7734  -48.0381 H         1 UNK         0.3000 
    216 H216       -8.6030  -17.9454  -48.8705 H         1 UNK         0.0600 
    217 H217      -10.7147  -18.0771  -50.1253 H         1 UNK         0.0600 
    218 H218      -10.7165  -19.3001  -48.8658 H         1 UNK         0.0600 
    219 H219      -10.4223  -19.7590  -50.5425 H         1 UNK         0.0600 
    220 H220       -6.2457  -18.9844  -50.0692 H         1 UNK         0.3000 
    221 H221       -4.7255  -18.5556  -51.5668 H         1 UNK         0.0600 
    222 H222       -6.6429  -16.7720  -53.1552 H         1 UNK         0.0600 
    223 H223       -5.5972  -16.2174  -51.8538 H         1 UNK         0.0600 
    224 H224       -4.9000  -16.8759  -53.3256 H         1 UNK         0.0600 
    225 H225       -7.8130  -18.8686  -53.3351 H         1 UNK         0.3000 
    226 H226       -8.5459  -20.1176  -55.0261 H         1 UNK         0.0600 
    227 H227       -8.3669  -21.9539  -53.3852 H         1 UNK         0.0600 
    228 H228       -8.0241  -22.5613  -54.9932 H         1 UNK         0.0600 
    229 H229       -6.7072  -22.2848  -53.8531 H         1 UNK         0.0600 
    230 H230       -5.9207  -22.1477  -55.7596 H         1 UNK         0.3000 
    231 H231       -5.2987  -20.7853  -58.2548 H         1 UNK         0.0600 
    232 H232       -3.8104  -22.7557  -58.5910 H         1 UNK         0.0600 
    233 H233       -5.4176  -23.2674  -58.1028 H         1 UNK         0.0600 
    234 H234       -4.0943  -23.2783  -56.9355 H         1 UNK         0.0600 
    235 H235       -4.1102  -20.5248  -55.0389 H         1 UNK         0.3000 
    236 H236       -2.3718  -19.6680  -54.0073 H         1 UNK         0.0600 
    237 H237       -3.1867  -17.5985  -55.0897 H         1 UNK         0.0600 
    238 H238       -1.4445  -17.5387  -54.9083 H         1 UNK         0.0600 
    239 H239       -2.1579  -17.8712  -56.4882 H         1 UNK         0.0600 
    240 H240       -0.2132  -18.6530  -56.3728 H         1 UNK         0.3000 
    241 H241        1.5600  -20.9684  -55.9115 H         1 UNK         0.0600 
    242 H242        0.0313  -21.3145  -59.5477 H         1 UNK         0.3800 
    243 H243       -0.8096  -20.5217  -58.2406 H         1 UNK         0.3800 
    244 H244        3.3781  -19.5710  -56.6462 H         1 UNK         0.0800 
    245 H245        2.3030  -18.3692  -57.3032 H         1 UNK         0.0800 
    246 H246        1.5033  -20.0705  -53.8430 H         1 UNK         0.0800 
    247 H247        3.2339  -20.0189  -53.6204 H         1 UNK         0.0800 
@<TRIPOS>BOND
     1    1    2 1    
     2    1  127 1    
     3    1  128 1    
     4    1  129 1    
     5    2    3 2    
     6    2    4 am   BACKBONE|DICT|INTERRES
     7    4    5 1    
     8    4  130 1    
     9    5    6 1    
    10    5   65 1    
    11    5  131 1    
    12    6    7 1    
    13    6  132 1    
    14    6  133 1    
    15    7    8 1    
    16    8    9 1    
    17    8  134 1    
    18    8  135 1    
    19    9   10 ar   
    20    9   14 ar   
    21   10   11 ar   
    22   10  136 1    
    23   11   12 ar   
    24   11  126 1    
    25   12   13 ar   
    26   12  137 1    
    27   13   14 ar   
    28   13   15 1    
    29   14  138 1    
    30   15   16 1    
    31   15  139 1    
    32   15  140 1    
    33   16   17 1    
    34   17   18 1    
    35   17  141 1    
    36   17  142 1    
    37   18   19 1    
    38   18   67 1    
    39   18  143 1    
    40   19   20 am   BACKBONE|DICT|INTERRES
    41   19  144 1    
    42   20   21 2    
    43   20   22 1    
    44   22   23 1    
    45   22   24 1    
    46   22  145 1    
    47   23  146 1    
    48   23  147 1    
    49   23  148 1    
    50   24   25 am   BACKBONE|DICT|INTERRES
    51   24  149 1    
    52   25   26 2    
    53   25   27 1    
    54   27   28 1    
    55   27   29 1    
    56   27  150 1    
    57   28  151 1    
    58   28  152 1    
    59   28  153 1    
    60   29   30 am   BACKBONE|DICT|INTERRES
    61   29  154 1    
    62   30   31 2    
    63   30   32 1    
    64   32   33 1    
    65   32   34 1    
    66   32  155 1    
    67   33  156 1    
    68   33  157 1    
    69   33  158 1    
    70   34   35 am   BACKBONE|DICT|INTERRES
    71   34  159 1    
    72   35   36 2    
    73   35   37 1    
    74   37   38 1    
    75   37   39 1    
    76   37  160 1    
    77   38  161 1    
    78   38  162 1    
    79   38  163 1    
    80   39   40 am   BACKBONE|DICT|INTERRES
    81   39  164 1    
    82   40   41 2    
    83   40   42 1    
    84   42   43 1    
    85   42   44 1    
    86   42  165 1    
    87   43  166 1    
    88   43  167 1    
    89   43  168 1    
    90   44   45 am   BACKBONE|DICT|INTERRES
    91   44  169 1    
    92   45   46 2    
    93   45   47 1    
    94   47   48 1    
    95   47   49 1    
    96   47  170 1    
    97   48  171 1    
    98   48  172 1    
    99   48  173 1    
   100   49   50 am   BACKBONE|DICT|INTERRES
   101   49  174 1    
   102   50   51 2    
   103   50   52 1    
   104   52   53 1    
   105   52   54 1    
   106   52  175 1    
   107   53  176 1    
   108   53  177 1    
   109   53  178 1    
   110   54   55 am   BACKBONE|DICT|INTERRES
   111   54  179 1    
   112   55   56 2    
   113   55   57 1    
   114   57   58 1    
   115   57   59 1    
   116   57  180 1    
   117   58  181 1    
   118   58  182 1    
   119   58  183 1    
   120   59   60 am   BACKBONE|DICT|INTERRES
   121   59  184 1    
   122   60   61 2    
   123   60   62 1    
   124   62   63 1    
   125   62   64 1    
   126   62  185 1    
   127   63  186 1    
   128   63  187 1    
   129   63  188 1    
   130   64   65 am   BACKBONE|DICT|INTERRES
   131   64  189 1    
   132   65   66 2    
   133   67   68 2    
   134   67   69 am   BACKBONE|DICT|INTERRES
   135   69   70 1    
   136   69  190 1    
   137   70   71 1    
   138   70   72 1    
   139   70  191 1    
   140   71  192 1    
   141   71  193 1    
   142   71  194 1    
   143   72   73 2    
   144   72   74 am   BACKBONE|DICT|INTERRES
   145   74   75 1    
   146   74  195 1    
   147   75   76 1    
   148   75   77 1    
   149   75  196 1    
   150   76  197 1    
   151   76  198 1    
   152   76  199 1    
   153   77   78 2    
   154   77   79 am   BACKBONE|DICT|INTERRES
   155   79   80 1    
   156   79  200 1    
   157   80   81 1    
   158   80   82 1    
   159   80  201 1    
   160   81  202 1    
   161   81  203 1    
   162   81  204 1    
   163   82   83 2    
   164   82   84 am   BACKBONE|DICT|INTERRES
   165   84   85 1    
   166   84  205 1    
   167   85   86 1    
   168   85   87 1    
   169   85  206 1    
   170   86  207 1    
   171   86  208 1    
   172   86  209 1    
   173   87   88 2    
   174   87   89 am   BACKBONE|DICT|INTERRES
   175   89   90 1    
   176   89  210 1    
   177   90   91 1    
   178   90   92 1    
   179   90  211 1    
   180   91  212 1    
   181   91  213 1    
   182   91  214 1    
   183   92   93 2    
   184   92   94 am   BACKBONE|DICT|INTERRES
   185   94   95 1    
   186   94  215 1    
   187   95   96 1    
   188   95   97 1    
   189   95  216 1    
   190   96  217 1    
   191   96  218 1    
   192   96  219 1    
   193   97   98 2    
   194   97   99 am   BACKBONE|DICT|INTERRES
   195   99  100 1    
   196   99  220 1    
   197  100  101 1    
   198  100  102 1    
   199  100  221 1    
   200  101  222 1    
   201  101  223 1    
   202  101  224 1    
   203  102  103 2    
   204  102  104 am   BACKBONE|DICT|INTERRES
   205  104  105 1    
   206  104  225 1    
   207  105  106 1    
   208  105  107 1    
   209  105  226 1    
   210  106  227 1    
   211  106  228 1    
   212  106  229 1    
   213  107  108 2    
   214  107  109 am   BACKBONE|DICT|INTERRES
   215  109  110 1    
   216  109  230 1    
   217  110  111 1    
   218  110  112 1    
   219  110  231 1    
   220  111  232 1    
   221  111  233 1    
   222  111  234 1    
   223  112  113 2    
   224  112  114 am   BACKBONE|DICT|INTERRES
   225  114  115 1    
   226  114  235 1    
   227  115  116 1    
   228  115  117 1    
   229  115  236 1    
   230  116  237 1    
   231  116  238 1    
   232  116  239 1    
   233  117  118 2    
   234  117  119 am   BACKBONE|DICT|INTERRES
   235  119  120 1    
   236  119  240 1    
   237  120  121 1    
   238  120  124 1    
   239  120  241 1    
   240  121  122 am   BACKBONE|DICT|INTERRES
   241  121  123 2    
   242  122  242 1    
   243  122  243 1    
   244  124  125 1    
   245  124  244 1    
   246  124  245 1    
   247  125  126 1    
   248  126  246 1    
   249  126  247 1    
@<TRIPOS>SUBSTRUCTURE
     1 UNK         1 GROUP             0       ****    0 ROOT    
