@<TRIPOS>MOLECULE
3R540
247   249    1
SMALL
USER_CHARGES


@<TRIPOS>ATOM
      1 CA          3.5819  -16.0575  -52.3730 C.3       0 UNK        -0.1800 
      2 C           4.0285  -14.7131  -51.8179 C.2       0 UNK         0.5000 
      3 O           4.3138  -13.7981  -52.5906 O.2       0 UNK        -0.5000 
      4 N           4.1079  -14.5961  -50.4857 N.am      1 UNK        -0.5000 
      5 CA          4.5580  -13.3926  -49.7723 C.3       1 UNK         0.1400 
      6 C6          4.8498  -13.6594  -48.2722 C.3       23 UNK        -0.0398 
      7 S7          5.9505  -15.0842  -47.9591 S.3       23 UNK        -0.2404 
      8 C8          4.8535  -16.2170  -47.0394 C.3       23 UNK        -0.0205 
      9 C9          3.8450  -16.8970  -47.9530 C.ar      23 UNK        -0.0193 
     10 C10         2.5776  -16.3388  -48.1490 C.ar      23 UNK        -0.1150 
     11 C11         1.6659  -16.9401  -49.0195 C.ar      23 UNK        -0.0193 
     12 C12         2.0205  -18.1225  -49.6727 C.ar      23 UNK        -0.1150 
     13 C13         3.2667  -18.7143  -49.4566 C.ar      23 UNK        -0.0193 
     14 C14         4.1799  -18.0900  -48.6022 C.ar      23 UNK        -0.1150 
     15 C15         3.6326  -20.0091  -50.1709 C.3       23 UNK        -0.0205 
     16 S16         3.3612  -21.4831  -49.1313 S.3       23 UNK        -0.2404 
     17 C17         1.5466  -21.4696  -48.9478 C.3       23 UNK        -0.0398 
     18 CA          0.9707  -22.7891  -48.3830 C.3       11 UNK         0.1400 
     19 N           1.5288  -23.1333  -47.0718 N.am      11 UNK        -0.5000 
     20 C           1.4550  -24.3524  -46.5195 C.2       10 UNK         0.5000 
     21 O           0.9289  -25.3174  -47.0726 O.2       10 UNK        -0.5000 
     22 CA          2.0076  -24.5106  -45.0894 C.3       10 UNK         0.1400 
     23 CB          3.5049  -24.8483  -45.1255 C.3       10 UNK        -0.1800 
     24 N           1.7997  -23.3249  -44.2564 N.am      10 UNK        -0.5000 
     25 C           0.6057  -22.7968  -43.9556 C.2       9 UNK         0.5000 
     26 O          -0.4615  -23.3011  -44.3040 O.2       9 UNK        -0.5000 
     27 CA          0.5958  -21.4623  -43.1835 C.3       9 UNK         0.1400 
     28 CB          1.8103  -21.2899  -42.2468 C.3       9 UNK        -0.1800 
     29 N           0.4744  -20.2951  -44.0640 N.am      9 UNK        -0.5000 
     30 C           1.2535  -19.9655  -45.1079 C.2       8 UNK         0.5000 
     31 O           2.1423  -20.6814  -45.5692 O.2       8 UNK        -0.5000 
     32 CA          1.0086  -18.5803  -45.7303 C.3       8 UNK         0.1400 
     33 CB         -0.1929  -18.6225  -46.6844 C.3       8 UNK        -0.1800 
     34 N           0.7698  -17.5424  -44.7280 N.am      8 UNK        -0.5000 
     35 C           1.6319  -17.1458  -43.7809 C.2       7 UNK         0.5000 
     36 O           2.7696  -17.5973  -43.6499 O.2       7 UNK        -0.5000 
     37 CA          1.1347  -16.0564  -42.8141 C.3       7 UNK         0.1400 
     38 CB          1.5052  -14.6639  -43.3419 C.3       7 UNK        -0.1800 
     39 N          -0.3153  -16.1205  -42.6290 N.am      7 UNK        -0.5000 
     40 C          -0.9294  -16.8681  -41.7028 C.2       6 UNK         0.5000 
     41 O          -0.3351  -17.5252  -40.8476 O.2       6 UNK        -0.5000 
     42 CA         -2.4705  -16.9010  -41.7480 C.3       6 UNK         0.1400 
     43 CB         -3.0584  -15.7713  -40.8889 C.3       6 UNK        -0.1800 
     44 N          -3.0183  -16.8059  -43.1037 N.am      6 UNK        -0.5000 
     45 C          -2.8457  -17.7274  -44.0610 C.2       5 UNK         0.5000 
     46 O          -2.2055  -18.7675  -43.9001 O.2       5 UNK        -0.5000 
     47 CA         -3.4533  -17.4159  -45.4447 C.3       5 UNK         0.1400 
     48 CB         -4.8923  -17.9462  -45.5279 C.3       5 UNK        -0.1800 
     49 N          -3.4334  -16.0022  -45.8452 N.am      5 UNK        -0.5000 
     50 C          -2.3660  -15.1903  -45.8537 C.2       4 UNK         0.5000 
     51 O          -1.2585  -15.5062  -45.4080 O.2       4 UNK        -0.5000 
     52 CA         -2.5772  -13.7851  -46.4422 C.3       4 UNK         0.1400 
     53 CB         -3.5909  -12.9746  -45.6120 C.3       4 UNK        -0.1800 
     54 N          -1.2955  -13.0870  -46.4666 N.am      4 UNK        -0.5000 
     55 C          -0.9581  -12.0655  -47.2606 C.2       3 UNK         0.5000 
     56 O          -1.7032  -11.5889  -48.1191 O.2       3 UNK        -0.5000 
     57 CA          0.4427  -11.4645  -47.0185 C.3       3 UNK         0.1400 
     58 CB          1.5410  -12.5324  -46.8816 C.3       3 UNK        -0.1800 
     59 N           0.8295  -10.4005  -47.9565 N.am      3 UNK        -0.5000 
     60 C           1.0762  -10.3958  -49.2778 C.2       2 UNK         0.5000 
     61 O           1.3175   -9.3304  -49.8467 O.2       2 UNK        -0.5000 
     62 CA          1.0769  -11.7020  -50.1140 C.3       2 UNK         0.1400 
     63 CB          0.8696  -11.4273  -51.6171 C.3       2 UNK        -0.1800 
     64 N           2.2641  -12.5504  -49.9540 N.am      2 UNK        -0.5000 
     65 C           3.5640  -12.2160  -49.9177 C.2       1 UNK         0.5000 
     66 O           3.9979  -11.0665  -49.9918 O.2       1 UNK        -0.5000 
     67 C          -0.5743  -22.7500  -48.3476 C.2       11 UNK         0.5000 
     68 O          -1.2048  -23.0943  -49.3471 O.2       11 UNK        -0.5000 
     69 N          -1.1653  -22.3865  -47.1959 N.am      12 UNK        -0.5000 
     70 CA         -2.6092  -22.4714  -46.9622 C.3       12 UNK         0.1400 
     71 CB         -3.0294  -21.6168  -45.7566 C.3       12 UNK        -0.1800 
     72 C          -3.0729  -23.9238  -46.7994 C.2       12 UNK         0.5000 
     73 O          -4.0862  -24.2975  -47.3884 O.2       12 UNK        -0.5000 
     74 N          -2.3057  -24.7254  -46.0484 N.am      13 UNK        -0.5000 
     75 CA         -2.5407  -26.1574  -45.8575 C.3       13 UNK         0.1400 
     76 CB         -1.5408  -26.7152  -44.8339 C.3       13 UNK        -0.1800 
     77 C          -2.4817  -26.9464  -47.1789 C.2       13 UNK         0.5000 
     78 O          -3.3712  -27.7565  -47.4398 O.2       13 UNK        -0.5000 
     79 N          -1.4767  -26.6479  -48.0155 N.am      14 UNK        -0.5000 
     80 CA         -1.3034  -27.2135  -49.3566 C.3       14 UNK         0.1400 
     81 CB          0.0448  -26.7520  -49.9299 C.3       14 UNK        -0.1800 
     82 C          -2.4479  -26.8581  -50.3266 C.2       14 UNK         0.5000 
     83 O          -2.8048  -27.6797  -51.1714 O.2       14 UNK        -0.5000 
     84 N          -3.0172  -25.6557  -50.1716 N.am      15 UNK        -0.5000 
     85 CA         -4.1652  -25.1665  -50.9370 C.3       15 UNK         0.1400 
     86 CB         -4.1124  -23.6315  -50.9703 C.3       15 UNK        -0.1800 
     87 C          -5.5223  -25.6352  -50.3735 C.2       15 UNK         0.5000 
     88 O          -6.5507  -25.3027  -50.9615 O.2       15 UNK        -0.5000 
     89 N          -5.5171  -26.3503  -49.2378 N.am      16 UNK        -0.5000 
     90 CA         -6.6836  -26.7996  -48.4692 C.3       16 UNK         0.1400 
     91 CB         -7.4939  -27.8487  -49.2591 C.3       16 UNK        -0.1800 
     92 C          -7.5448  -25.6261  -47.9499 C.2       16 UNK         0.5000 
     93 O          -8.7746  -25.7038  -47.9621 O.2       16 UNK        -0.5000 
     94 N          -6.8660  -24.5582  -47.5040 N.am      17 UNK        -0.5000 
     95 CA         -7.4076  -23.3134  -46.9490 C.3       17 UNK         0.1400 
     96 CB         -8.1466  -23.5779  -45.6205 C.3       17 UNK        -0.1800 
     97 C          -8.2388  -22.4868  -47.9550 C.2       17 UNK         0.5000 
     98 O          -9.1615  -21.7768  -47.5503 O.2       17 UNK        -0.5000 
     99 N          -7.8875  -22.5818  -49.2451 N.am      18 UNK        -0.5000 
    100 CA        -8.4506  -21.7832  -50.3339 C.3       18 UNK         0.1400 
    101 CB        -8.4340  -22.6248  -51.6259 C.3       18 UNK        -0.1800 
    102 C         -7.7052  -20.4336  -50.4512 C.2       18 UNK         0.5000 
    103 O         -7.6193  -19.6970  -49.4676 O.2       18 UNK        -0.5000 
    104 N         -7.1712  -20.1231  -51.6418 N.am      19 UNK        -0.5000 
    105 CA        -6.4306  -18.8909  -51.9417 C.3       19 UNK         0.1400 
    106 CB        -6.2810  -18.7653  -53.4660 C.3       19 UNK        -0.1800 
    107 C         -5.0478  -18.8065  -51.2626 C.2       19 UNK         0.5000 
    108 O         -4.4794  -17.7182  -51.1763 O.2       19 UNK        -0.5000 
    109 N         -4.5199  -19.9563  -50.8161 N.am      20 UNK        -0.5000 
    110 CA        -3.2565  -20.1233  -50.0873 C.3       20 UNK         0.1400 
    111 CB        -3.3217  -19.4087  -48.7216 C.3       20 UNK        -0.1800 
    112 C         -1.9995  -19.7345  -50.8889 C.2       20 UNK         0.5000 
    113 O         -0.9606  -19.4797  -50.2859 O.2       20 UNK        -0.5000 
    114 N         -2.1203  -19.7010  -52.2243 N.am      21 UNK        -0.5000 
    115 CA        -1.1171  -19.2573  -53.1993 C.3       21 UNK         0.1400 
    116 CB         0.1580  -20.1264  -53.1323 C.3       21 UNK        -0.1800 
    117 C         -0.8172  -17.7409  -53.1447 C.2       21 UNK         0.5000 
    118 O          0.2176  -17.3139  -53.6589 O.2       21 UNK        -0.5000 
    119 N         -1.7375  -16.9538  -52.5720 N.am      22 UNK        -0.5000 
    120 CA        -1.7033  -15.4845  -52.5228 C.3       22 UNK         0.1400 
    121 C         -3.0093  -14.8706  -53.1034 C.2       22 UNK         0.5000 
    122 N         -3.0756  -13.5524  -53.2386 N.am      22 UNK        -0.7600 
    123 O         -3.9597  -15.5639  -53.4594 O.2       22 UNK        -0.5000 
    124 C124       -1.3945  -14.9687  -51.0896 C.3       23 UNK        -0.0398 
    125 S125        0.3672  -15.1851  -50.6749 S.3       23 UNK        -0.2404 
    126 C126        0.3006  -16.3181  -49.2635 C.3       23 UNK        -0.0205 
    127 H127        2.5560  -15.9937  -52.7353 H         1 UNK         0.0600 
    128 H128        3.6306  -16.8393  -51.6169 H         1 UNK         0.0600 
    129 H129        4.2206  -16.3555  -53.2042 H         1 UNK         0.0600 
    130 H130        3.8847  -15.3935  -49.9047 H         1 UNK         0.3000 
    131 H131        5.4957  -13.0791  -50.2366 H         1 UNK         0.0600 
    132 H132        5.3190  -12.7808  -47.8260 H         1 UNK         0.0800 
    133 H133        3.9243  -13.8084  -47.7204 H         1 UNK         0.0800 
    134 H134        4.3447  -15.6790  -46.2377 H         1 UNK         0.0800 
    135 H135        5.4662  -16.9742  -46.5478 H         1 UNK         0.0800 
    136 H136        2.3004  -15.4353  -47.6286 H         1 UNK         0.1150 
    137 H137        1.3238  -18.5814  -50.3564 H         1 UNK         0.1150 
    138 H138        5.1535  -18.5325  -48.4449 H         1 UNK         0.1150 
    139 H139        3.0642  -20.1079  -51.0969 H         1 UNK         0.0800 
    140 H140        4.6828  -19.9759  -50.4643 H         1 UNK         0.0800 
    141 H141        1.1023  -21.2452  -49.9193 H         1 UNK         0.0800 
    142 H142        1.2987  -20.6424  -48.2905 H         1 UNK         0.0800 
    143 H143        1.2476  -23.5853  -49.0775 H         1 UNK         0.0600 
    144 H144        1.9567  -22.3746  -46.5474 H         1 UNK         0.3000 
    145 H145        1.4801  -25.3427  -44.6196 H         1 UNK         0.0600 
    146 H146        3.8904  -25.0419  -44.1243 H         1 UNK         0.0600 
    147 H147        3.6888  -25.7427  -45.7224 H         1 UNK         0.0600 
    148 H148        4.0897  -24.0368  -45.5607 H         1 UNK         0.0600 
    149 H149        2.6269  -22.8164  -43.9795 H         1 UNK         0.3000 
    150 H150       -0.3008  -21.4745  -42.5620 H         1 UNK         0.0600 
    151 H151        1.9248  -22.1510  -41.5872 H         1 UNK         0.0600 
    152 H152        1.6852  -20.4122  -41.6121 H         1 UNK         0.0600 
    153 H153        2.7437  -21.1630  -42.7962 H         1 UNK         0.0600 
    154 H154       -0.2801  -19.6570  -43.8320 H         1 UNK         0.3000 
    155 H155        1.8993  -18.2979  -46.2919 H         1 UNK         0.0600 
    156 H156       -1.0031  -19.2203  -46.2747 H         1 UNK         0.0600 
    157 H157       -0.5801  -17.6268  -46.8903 H         1 UNK         0.0600 
    158 H158        0.0669  -19.0534  -47.6463 H         1 UNK         0.0600 
    159 H159       -0.1138  -17.0518  -44.7945 H         1 UNK         0.3000 
    160 H160        1.6380  -16.2017  -41.8558 H         1 UNK         0.0600 
    161 H161        0.9982  -14.4560  -44.2823 H         1 UNK         0.0600 
    162 H162        2.5786  -14.5805  -43.5171 H         1 UNK         0.0600 
    163 H163        1.2275  -13.8856  -42.6310 H         1 UNK         0.0600 
    164 H164       -0.8786  -15.6545  -43.3295 H         1 UNK         0.3000 
    165 H165       -2.7911  -17.8550  -41.3240 H         1 UNK         0.0600 
    166 H166       -4.1457  -15.8351  -40.8431 H         1 UNK         0.0600 
    167 H167       -2.6875  -15.8264  -39.8645 H         1 UNK         0.0600 
    168 H168       -2.7949  -14.7883  -41.2812 H         1 UNK         0.0600 
    169 H169       -3.5498  -15.9769  -43.3249 H         1 UNK         0.3000 
    170 H170       -2.8684  -17.9562  -46.1860 H         1 UNK         0.0600 
    171 H171       -4.9364  -19.0036  -45.2629 H         1 UNK         0.0600 
    172 H172       -5.5584  -17.4096  -44.8512 H         1 UNK         0.0600 
    173 H173       -5.2910  -17.8516  -46.5382 H         1 UNK         0.0600 
    174 H174       -4.3038  -15.6444  -46.2109 H         1 UNK         0.3000 
    175 H175       -2.9439  -13.9016  -47.4642 H         1 UNK         0.0600 
    176 H176       -3.2613  -12.8604  -44.5785 H         1 UNK         0.0600 
    177 H177       -3.7339  -11.9769  -46.0273 H         1 UNK         0.0600 
    178 H178       -4.5696  -13.4548  -45.5951 H         1 UNK         0.0600 
    179 H179       -0.6136  -13.4800  -45.8306 H         1 UNK         0.3000 
    180 H180        0.3761  -10.9571  -46.0549 H         1 UNK         0.0600 
    181 H181        1.4282  -13.3271  -47.6164 H         1 UNK         0.0600 
    182 H182        1.5062  -12.9986  -45.8996 H         1 UNK         0.0600 
    183 H183        2.5330  -12.0935  -46.9820 H         1 UNK         0.0600 
    184 H184        0.8435   -9.4910  -47.5189 H         1 UNK         0.3000 
    185 H185        0.2265  -12.2974  -49.7890 H         1 UNK         0.0600 
    186 H186       -0.0280  -10.8317  -51.7874 H         1 UNK         0.0600 
    187 H187        1.7131  -10.8868  -52.0481 H         1 UNK         0.0600 
    188 H188        0.7526  -12.3572  -52.1741 H         1 UNK         0.0600 
    189 H189        2.0595  -13.5402  -49.9274 H         1 UNK         0.3000 
    190 H190       -0.5874  -22.1947  -46.3903 H         1 UNK         0.3000 
    191 H191       -3.1261  -22.0769  -47.8351 H         1 UNK         0.0600 
    192 H192       -2.5365  -21.9231  -44.8355 H         1 UNK         0.0600 
    193 H193       -4.1044  -21.6891  -45.5869 H         1 UNK         0.0600 
    194 H194       -2.8057  -20.5652  -45.9183 H         1 UNK         0.0600 
    195 H195       -1.5204  -24.3167  -45.5496 H         1 UNK         0.3000 
    196 H196       -3.5458  -26.2727  -45.4465 H         1 UNK         0.0600 
    197 H197       -1.7466  -27.7652  -44.6223 H         1 UNK         0.0600 
    198 H198       -1.5995  -26.1742  -43.8892 H         1 UNK         0.0600 
    199 H199       -0.5145  -26.6498  -45.1937 H         1 UNK         0.0600 
    200 H200       -0.7521  -26.0091  -47.6983 H         1 UNK         0.3000 
    201 H201       -1.2796  -28.3006  -49.2583 H         1 UNK         0.0600 
    202 H202        0.8727  -27.0710  -49.2966 H         1 UNK         0.0600 
    203 H203        0.0910  -25.6662  -50.0203 H         1 UNK         0.0600 
    204 H204        0.2138  -27.1727  -50.9219 H         1 UNK         0.0600 
    205 H205       -2.6473  -25.0307  -49.4675 H         1 UNK         0.3000 
    206 H206       -4.0924  -25.5314  -51.9635 H         1 UNK         0.0600 
    207 H207       -3.1580  -23.2771  -51.3605 H         1 UNK         0.0600 
    208 H208       -4.8948  -23.2240  -51.6112 H         1 UNK         0.0600 
    209 H209       -4.2496  -23.2135  -49.9730 H         1 UNK         0.0600 
    210 H210       -4.6202  -26.5588  -48.8166 H         1 UNK         0.3000 
    211 H211       -6.2858  -27.2947  -47.5823 H         1 UNK         0.0600 
    212 H212       -7.9794  -27.4145  -50.1335 H         1 UNK         0.0600 
    213 H213       -8.2749  -28.2873  -48.6370 H         1 UNK         0.0600 
    214 H214       -6.8556  -28.6640  -49.5995 H         1 UNK         0.0600 
    215 H215       -5.8477  -24.5939  -47.5449 H         1 UNK         0.3000 
    216 H216       -6.5387  -22.6966  -46.7148 H         1 UNK         0.0600 
    217 H217       -8.4094  -22.6425  -45.1253 H         1 UNK         0.0600 
    218 H218       -7.5227  -24.1441  -44.9289 H         1 UNK         0.0600 
    219 H219       -9.0703  -24.1362  -45.7745 H         1 UNK         0.0600 
    220 H220       -7.1470  -23.2224  -49.4919 H         1 UNK         0.3000 
    221 H221       -9.4933  -21.5507  -50.1087 H         1 UNK         0.0600 
    222 H222       -7.4204  -22.8752  -51.9406 H         1 UNK         0.0600 
    223 H223       -8.9708  -23.5632  -51.4832 H         1 UNK         0.0600 
    224 H224       -8.9247  -22.1018  -52.4477 H         1 UNK         0.0600 
    225 H225       -7.2939  -20.7706  -52.4071 H         1 UNK         0.3000 
    226 H226       -7.0186  -18.0431  -51.5842 H         1 UNK         0.0600 
    227 H227       -7.2539  -18.7367  -53.9570 H         1 UNK         0.0600 
    228 H228       -5.7581  -17.8457  -53.7334 H         1 UNK         0.0600 
    229 H229       -5.7158  -19.5980  -53.8863 H         1 UNK         0.0600 
    230 H230       -5.0621  -20.7953  -50.9573 H         1 UNK         0.3000 
    231 H231       -3.1513  -21.1887  -49.9000 H         1 UNK         0.0600 
    232 H232       -2.4494  -19.6540  -48.1188 H         1 UNK         0.0600 
    233 H233       -4.2040  -19.7108  -48.1575 H         1 UNK         0.0600 
    234 H234       -3.3445  -18.3239  -48.8285 H         1 UNK         0.0600 
    235 H235       -3.0231  -19.9363  -52.6097 H         1 UNK         0.3000 
    236 H236       -1.5679  -19.4278  -54.1778 H         1 UNK         0.0600 
    237 H237        0.8140  -19.9226  -53.9791 H         1 UNK         0.0600 
    238 H238        0.7335  -19.9374  -52.2269 H         1 UNK         0.0600 
    239 H239       -0.0852  -21.1884  -53.1598 H         1 UNK         0.0600 
    240 H240       -2.5913  -17.3674  -52.2145 H         1 UNK         0.3000 
    241 H241       -0.9185  -15.1254  -53.1915 H         1 UNK         0.0600 
    242 H242       -2.3065  -12.9498  -52.9922 H         1 UNK         0.3800 
    243 H243       -3.9149  -13.1472  -53.6232 H         1 UNK         0.3800 
    244 H244       -1.6057  -13.9030  -50.9922 H         1 UNK         0.0800 
    245 H245       -2.0282  -15.4683  -50.3550 H         1 UNK         0.0800 
    246 H246       -0.4354  -17.0989  -49.4545 H         1 UNK         0.0800 
    247 H247       -0.0391  -15.7763  -48.3794 H         1 UNK         0.0800 
@<TRIPOS>BOND
     1    1    2 1    
     2    1  127 1    
     3    1  128 1    
     4    1  129 1    
     5    2    3 2    
     6    2    4 am   BACKBONE|DICT|INTERRES
     7    4    5 1    
     8    4  130 1    
     9    5    6 1    
    10    5   65 1    
    11    5  131 1    
    12    6    7 1    
    13    6  132 1    
    14    6  133 1    
    15    7    8 1    
    16    8    9 1    
    17    8  134 1    
    18    8  135 1    
    19    9   10 ar   
    20    9   14 ar   
    21   10   11 ar   
    22   10  136 1    
    23   11   12 ar   
    24   11  126 1    
    25   12   13 ar   
    26   12  137 1    
    27   13   14 ar   
    28   13   15 1    
    29   14  138 1    
    30   15   16 1    
    31   15  139 1    
    32   15  140 1    
    33   16   17 1    
    34   17   18 1    
    35   17  141 1    
    36   17  142 1    
    37   18   19 1    
    38   18   67 1    
    39   18  143 1    
    40   19   20 am   BACKBONE|DICT|INTERRES
    41   19  144 1    
    42   20   21 2    
    43   20   22 1    
    44   22   23 1    
    45   22   24 1    
    46   22  145 1    
    47   23  146 1    
    48   23  147 1    
    49   23  148 1    
    50   24   25 am   BACKBONE|DICT|INTERRES
    51   24  149 1    
    52   25   26 2    
    53   25   27 1    
    54   27   28 1    
    55   27   29 1    
    56   27  150 1    
    57   28  151 1    
    58   28  152 1    
    59   28  153 1    
    60   29   30 am   BACKBONE|DICT|INTERRES
    61   29  154 1    
    62   30   31 2    
    63   30   32 1    
    64   32   33 1    
    65   32   34 1    
    66   32  155 1    
    67   33  156 1    
    68   33  157 1    
    69   33  158 1    
    70   34   35 am   BACKBONE|DICT|INTERRES
    71   34  159 1    
    72   35   36 2    
    73   35   37 1    
    74   37   38 1    
    75   37   39 1    
    76   37  160 1    
    77   38  161 1    
    78   38  162 1    
    79   38  163 1    
    80   39   40 am   BACKBONE|DICT|INTERRES
    81   39  164 1    
    82   40   41 2    
    83   40   42 1    
    84   42   43 1    
    85   42   44 1    
    86   42  165 1    
    87   43  166 1    
    88   43  167 1    
    89   43  168 1    
    90   44   45 am   BACKBONE|DICT|INTERRES
    91   44  169 1    
    92   45   46 2    
    93   45   47 1    
    94   47   48 1    
    95   47   49 1    
    96   47  170 1    
    97   48  171 1    
    98   48  172 1    
    99   48  173 1    
   100   49   50 am   BACKBONE|DICT|INTERRES
   101   49  174 1    
   102   50   51 2    
   103   50   52 1    
   104   52   53 1    
   105   52   54 1    
   106   52  175 1    
   107   53  176 1    
   108   53  177 1    
   109   53  178 1    
   110   54   55 am   BACKBONE|DICT|INTERRES
   111   54  179 1    
   112   55   56 2    
   113   55   57 1    
   114   57   58 1    
   115   57   59 1    
   116   57  180 1    
   117   58  181 1    
   118   58  182 1    
   119   58  183 1    
   120   59   60 am   BACKBONE|DICT|INTERRES
   121   59  184 1    
   122   60   61 2    
   123   60   62 1    
   124   62   63 1    
   125   62   64 1    
   126   62  185 1    
   127   63  186 1    
   128   63  187 1    
   129   63  188 1    
   130   64   65 am   BACKBONE|DICT|INTERRES
   131   64  189 1    
   132   65   66 2    
   133   67   68 2    
   134   67   69 am   BACKBONE|DICT|INTERRES
   135   69   70 1    
   136   69  190 1    
   137   70   71 1    
   138   70   72 1    
   139   70  191 1    
   140   71  192 1    
   141   71  193 1    
   142   71  194 1    
   143   72   73 2    
   144   72   74 am   BACKBONE|DICT|INTERRES
   145   74   75 1    
   146   74  195 1    
   147   75   76 1    
   148   75   77 1    
   149   75  196 1    
   150   76  197 1    
   151   76  198 1    
   152   76  199 1    
   153   77   78 2    
   154   77   79 am   BACKBONE|DICT|INTERRES
   155   79   80 1    
   156   79  200 1    
   157   80   81 1    
   158   80   82 1    
   159   80  201 1    
   160   81  202 1    
   161   81  203 1    
   162   81  204 1    
   163   82   83 2    
   164   82   84 am   BACKBONE|DICT|INTERRES
   165   84   85 1    
   166   84  205 1    
   167   85   86 1    
   168   85   87 1    
   169   85  206 1    
   170   86  207 1    
   171   86  208 1    
   172   86  209 1    
   173   87   88 2    
   174   87   89 am   BACKBONE|DICT|INTERRES
   175   89   90 1    
   176   89  210 1    
   177   90   91 1    
   178   90   92 1    
   179   90  211 1    
   180   91  212 1    
   181   91  213 1    
   182   91  214 1    
   183   92   93 2    
   184   92   94 am   BACKBONE|DICT|INTERRES
   185   94   95 1    
   186   94  215 1    
   187   95   96 1    
   188   95   97 1    
   189   95  216 1    
   190   96  217 1    
   191   96  218 1    
   192   96  219 1    
   193   97   98 2    
   194   97   99 am   BACKBONE|DICT|INTERRES
   195   99  100 1    
   196   99  220 1    
   197  100  101 1    
   198  100  102 1    
   199  100  221 1    
   200  101  222 1    
   201  101  223 1    
   202  101  224 1    
   203  102  103 2    
   204  102  104 am   BACKBONE|DICT|INTERRES
   205  104  105 1    
   206  104  225 1    
   207  105  106 1    
   208  105  107 1    
   209  105  226 1    
   210  106  227 1    
   211  106  228 1    
   212  106  229 1    
   213  107  108 2    
   214  107  109 am   BACKBONE|DICT|INTERRES
   215  109  110 1    
   216  109  230 1    
   217  110  111 1    
   218  110  112 1    
   219  110  231 1    
   220  111  232 1    
   221  111  233 1    
   222  111  234 1    
   223  112  113 2    
   224  112  114 am   BACKBONE|DICT|INTERRES
   225  114  115 1    
   226  114  235 1    
   227  115  116 1    
   228  115  117 1    
   229  115  236 1    
   230  116  237 1    
   231  116  238 1    
   232  116  239 1    
   233  117  118 2    
   234  117  119 am   BACKBONE|DICT|INTERRES
   235  119  120 1    
   236  119  240 1    
   237  120  121 1    
   238  120  124 1    
   239  120  241 1    
   240  121  122 am   BACKBONE|DICT|INTERRES
   241  121  123 2    
   242  122  242 1    
   243  122  243 1    
   244  124  125 1    
   245  124  244 1    
   246  124  245 1    
   247  125  126 1    
   248  126  246 1    
   249  126  247 1    
@<TRIPOS>SUBSTRUCTURE
     1 UNK         1 GROUP             0       ****    0 ROOT    
