@<TRIPOS>MOLECULE
3R540
247   249    1
SMALL
USER_CHARGES


@<TRIPOS>ATOM
      1 CA         -1.6242  -12.4943  -46.3617 C.3       0 UNK        -0.1800 
      2 C          -0.1855  -12.9089  -46.6272 C.2       0 UNK         0.5000 
      3 O           0.2925  -13.8846  -46.0457 O.2       0 UNK        -0.5000 
      4 N           0.4975  -12.1746  -47.5144 N.am      1 UNK        -0.5000 
      5 CA          1.9085  -12.3556  -47.8722 C.3       1 UNK         0.1400 
      6 C6          2.1703  -13.7295  -48.5544 C.3       23 UNK        -0.0398 
      7 S7          3.6667  -13.7521  -49.5973 S.3       23 UNK        -0.2404 
      8 C8          4.2421  -15.4703  -49.3544 C.3       23 UNK        -0.0205 
      9 C9          3.3739  -16.5688  -49.9750 C.ar      23 UNK        -0.0193 
     10 C10         2.3535  -16.3074  -50.8993 C.ar      23 UNK        -0.1150 
     11 C11         1.5942  -17.3459  -51.4476 C.ar      23 UNK        -0.0193 
     12 C12         1.8796  -18.6662  -51.0895 C.ar      23 UNK        -0.1150 
     13 C13         2.9133  -18.9486  -50.1919 C.ar      23 UNK        -0.0193 
     14 C14         3.6430  -17.8968  -49.6305 C.ar      23 UNK        -0.1150 
     15 C15         3.2808  -20.3883  -49.8627 C.3       23 UNK        -0.0205 
     16 S16         2.4944  -20.9673  -48.3298 S.3       23 UNK        -0.2404 
     17 C17         0.7799  -21.2203  -48.8930 C.3       23 UNK        -0.0398 
     18 CA         -0.0173  -22.1223  -47.9250 C.3       11 UNK         0.1400 
     19 N          -0.2667  -21.4832  -46.6307 N.am      11 UNK        -0.5000 
     20 C          -0.7543  -22.1162  -45.5549 C.2       10 UNK         0.5000 
     21 O          -1.0198  -23.3183  -45.5313 O.2       10 UNK        -0.5000 
     22 CA         -1.0392  -21.2559  -44.3107 C.3       10 UNK         0.1400 
     23 CB          0.2585  -20.9271  -43.5576 C.3       10 UNK        -0.1800 
     24 N          -1.7496  -20.0188  -44.6338 N.am      10 UNK        -0.5000 
     25 C          -2.9769  -19.9649  -45.1700 C.2       9 UNK         0.5000 
     26 O          -3.6614  -20.9568  -45.4163 O.2       9 UNK        -0.5000 
     27 CA         -3.5157  -18.5717  -45.5347 C.3       9 UNK         0.1400 
     28 CB         -4.0795  -17.8540  -44.2989 C.3       9 UNK        -0.1800 
     29 N          -2.5015  -17.7339  -46.1714 N.am      9 UNK        -0.5000 
     30 C          -1.9570  -17.9807  -47.3716 C.2       8 UNK         0.5000 
     31 O          -2.2579  -18.9407  -48.0783 O.2       8 UNK        -0.5000 
     32 CA         -0.8572  -17.0080  -47.8303 C.3       8 UNK         0.1400 
     33 CB         -1.4918  -15.7080  -48.3430 C.3       8 UNK        -0.1800 
     34 N           0.1012  -16.7084  -46.7622 N.am      8 UNK        -0.5000 
     35 C           0.8628  -17.6361  -46.1632 C.2       7 UNK         0.5000 
     36 O           0.8504  -18.8277  -46.4638 O.2       7 UNK        -0.5000 
     37 CA          1.7312  -17.1784  -44.9810 C.3       7 UNK         0.1400 
     38 CB          3.0502  -16.5683  -45.4654 C.3       7 UNK        -0.1800 
     39 N           1.0518  -16.2343  -44.0957 N.am      7 UNK        -0.5000 
     40 C          -0.0471  -16.5144  -43.3810 C.2       6 UNK         0.5000 
     41 O          -0.6271  -17.5993  -43.4330 O.2       6 UNK        -0.5000 
     42 CA         -0.5975  -15.4181  -42.4534 C.3       6 UNK         0.1400 
     43 CB         -0.5218  -15.8632  -40.9835 C.3       6 UNK        -0.1800 
     44 N           0.1317  -14.1579  -42.5950 N.am      6 UNK        -0.5000 
     45 C          -0.4260  -12.9664  -42.8463 C.2       5 UNK         0.5000 
     46 O          -1.6360  -12.7973  -43.0048 O.2       5 UNK        -0.5000 
     47 CA          0.5407  -11.7628  -42.9285 C.3       5 UNK         0.1400 
     48 CB         -0.1483  -10.4122  -42.6447 C.3       5 UNK        -0.1800 
     49 N           1.7389  -11.9297  -42.0959 N.am      5 UNK        -0.5000 
     50 C           1.7837  -12.1132  -40.7677 C.2       4 UNK         0.5000 
     51 O           0.7952  -12.0351  -40.0372 O.2       4 UNK        -0.5000 
     52 CA          3.1508  -12.4583  -40.1373 C.3       4 UNK         0.1400 
     53 CB          3.0482  -13.7118  -39.2430 C.3       4 UNK        -0.1800 
     54 N           4.2821  -12.5970  -41.0695 N.am      4 UNK        -0.5000 
     55 C           4.4624  -13.5090  -42.0365 C.2       3 UNK         0.5000 
     56 O           3.5962  -14.3042  -42.4106 O.2       3 UNK        -0.5000 
     57 CA          5.8620  -13.5060  -42.6854 C.3       3 UNK         0.1400 
     58 CB          6.9011  -14.0704  -41.7022 C.3       3 UNK        -0.1800 
     59 N           5.9304  -14.2996  -43.9144 N.am      3 UNK        -0.5000 
     60 C           5.5150  -13.9662  -45.1433 C.2       2 UNK         0.5000 
     61 O           5.6480  -14.7399  -46.0928 O.2       2 UNK        -0.5000 
     62 CA          4.8874  -12.5857  -45.4065 C.3       2 UNK         0.1400 
     63 CB          5.9591  -11.5477  -45.7820 C.3       2 UNK        -0.1800 
     64 N           3.9420  -12.7257  -46.5074 N.am      2 UNK        -0.5000 
     65 C           2.8234  -12.0147  -46.6676 C.2       1 UNK         0.5000 
     66 O           2.5041  -11.0941  -45.9108 O.2       1 UNK        -0.5000 
     67 C          -1.3200  -22.6206  -48.5795 C.2       11 UNK         0.5000 
     68 O          -1.3455  -23.7486  -49.0715 O.2       11 UNK        -0.5000 
     69 N          -2.3853  -21.8065  -48.5394 N.am      12 UNK        -0.5000 
     70 CA         -3.7142  -22.1742  -49.0297 C.3       12 UNK         0.1400 
     71 CB         -4.6489  -20.9588  -48.9754 C.3       12 UNK        -0.1800 
     72 C          -4.3195  -23.3597  -48.2592 C.2       12 UNK         0.5000 
     73 O          -4.8670  -24.2650  -48.8856 O.2       12 UNK        -0.5000 
     74 N          -4.1782  -23.3590  -46.9257 N.am      13 UNK        -0.5000 
     75 CA         -4.6067  -24.4465  -46.0453 C.3       13 UNK         0.1400 
     76 CB         -4.4759  -24.0149  -44.5772 C.3       13 UNK        -0.1800 
     77 C          -3.8401  -25.7552  -46.3037 C.2       13 UNK         0.5000 
     78 O          -4.4657  -26.8124  -46.3855 O.2       13 UNK        -0.5000 
     79 N          -2.5137  -25.6616  -46.4803 N.am      14 UNK        -0.5000 
     80 CA         -1.6400  -26.7846  -46.8355 C.3       14 UNK         0.1400 
     81 CB         -0.1733  -26.3323  -46.7754 C.3       14 UNK        -0.1800 
     82 C          -1.9690  -27.3907  -48.2144 C.2       14 UNK         0.5000 
     83 O          -1.8994  -28.6089  -48.3788 O.2       14 UNK        -0.5000 
     84 N          -2.3639  -26.5326  -49.1628 N.am      15 UNK        -0.5000 
     85 CA         -2.8415  -26.8978  -50.4966 C.3       15 UNK         0.1400 
     86 CB         -2.5921  -25.7100  -51.4380 C.3       15 UNK        -0.1800 
     87 C          -4.3278  -27.3175  -50.5297 C.2       15 UNK         0.5000 
     88 O          -4.8418  -27.5968  -51.6134 O.2       15 UNK        -0.5000 
     89 N          -5.0074  -27.3269  -49.3713 N.am      16 UNK        -0.5000 
     90 CA         -6.4239  -27.6607  -49.1690 C.3       16 UNK         0.1400 
     91 CB         -6.6571  -29.1674  -49.4033 C.3       16 UNK        -0.1800 
     92 C          -7.3895  -26.7714  -49.9852 C.2       16 UNK         0.5000 
     93 O          -8.4425  -27.2387  -50.4217 O.2       16 UNK        -0.5000 
     94 N          -6.9890  -25.5091  -50.1962 N.am      17 UNK        -0.5000 
     95 CA         -7.6357  -24.4644  -50.9959 C.3       17 UNK         0.1400 
     96 CB         -9.0009  -24.0772  -50.3922 C.3       17 UNK        -0.1800 
     97 C          -7.7254  -24.7688  -52.5087 C.2       17 UNK         0.5000 
     98 O          -8.4032  -24.0334  -53.2283 O.2       17 UNK        -0.5000 
     99 N          -7.0322  -25.8143  -52.9848 N.am      18 UNK        -0.5000 
    100 CA        -6.9744  -26.1912  -54.4001 C.3       18 UNK         0.1400 
    101 CB        -6.6274  -27.6841  -54.5077 C.3       18 UNK        -0.1800 
    102 C         -5.9643  -25.3432  -55.1973 C.2       18 UNK         0.5000 
    103 O         -6.0357  -25.3093  -56.4265 O.2       18 UNK        -0.5000 
    104 N         -5.0472  -24.6775  -54.4890 N.am      19 UNK        -0.5000 
    105 CA        -4.0116  -23.7954  -55.0077 C.3       19 UNK         0.1400 
    106 CB        -2.8379  -24.6335  -55.5520 C.3       19 UNK        -0.1800 
    107 C         -3.5630  -22.8616  -53.8723 C.2       19 UNK         0.5000 
    108 O         -4.0309  -23.0050  -52.7398 O.2       19 UNK        -0.5000 
    109 N         -2.6622  -21.9247  -54.2003 N.am      20 UNK        -0.5000 
    110 CA        -1.9557  -21.0092  -53.2910 C.3       20 UNK         0.1400 
    111 CB        -1.0485  -21.7997  -52.3274 C.3       20 UNK        -0.1800 
    112 C         -2.8457  -19.9938  -52.5411 C.2       20 UNK         0.5000 
    113 O         -2.3622  -19.3231  -51.6290 O.2       20 UNK        -0.5000 
    114 N         -4.1106  -19.8524  -52.9566 N.am      21 UNK        -0.5000 
    115 CA        -5.1019  -18.9332  -52.3961 C.3       21 UNK         0.1400 
    116 CB        -6.5068  -19.4859  -52.6970 C.3       21 UNK        -0.1800 
    117 C         -4.8969  -17.4893  -52.9014 C.2       21 UNK         0.5000 
    118 O         -5.7992  -16.9047  -53.5037 O.2       21 UNK        -0.5000 
    119 N         -3.6965  -16.9498  -52.6652 N.am      22 UNK        -0.5000 
    120 CA        -3.2767  -15.5946  -53.0530 C.3       22 UNK         0.1400 
    121 C         -3.8086  -14.4498  -52.1384 C.2       22 UNK         0.5000 
    122 N         -4.4546  -14.7375  -51.0145 N.am      22 UNK        -0.7600 
    123 O         -3.6484  -13.2771  -52.4661 O.2       22 UNK        -0.5000 
    124 C124       -1.7424  -15.5149  -53.2643 C.3       23 UNK        -0.0398 
    125 S125       -0.7660  -15.9255  -51.7754 S.3       23 UNK        -0.2404 
    126 C126        0.5001  -17.0377  -52.4616 C.3       23 UNK        -0.0205 
    127 H127       -2.1306  -12.2224  -47.2880 H         1 UNK         0.0600 
    128 H128       -2.1793  -13.3099  -45.8980 H         1 UNK         0.0600 
    129 H129       -1.6508  -11.6396  -45.6859 H         1 UNK         0.0600 
    130 H130        0.0496  -11.3708  -47.9316 H         1 UNK         0.3000 
    131 H131        2.1088  -11.5803  -48.6132 H         1 UNK         0.0600 
    132 H132        2.1982  -14.5373  -47.8242 H         1 UNK         0.0800 
    133 H133        1.3373  -13.9677  -49.2165 H         1 UNK         0.0800 
    134 H134        5.2436  -15.5514  -49.7788 H         1 UNK         0.0800 
    135 H135        4.3492  -15.6576  -48.2852 H         1 UNK         0.0800 
    136 H136        2.1365  -15.2958  -51.2077 H         1 UNK         0.1150 
    137 H137        1.3135  -19.4759  -51.5267 H         1 UNK         0.1150 
    138 H138        4.4406  -18.1171  -48.9346 H         1 UNK         0.1150 
    139 H139        3.0190  -21.0509  -50.6891 H         1 UNK         0.0800 
    140 H140        4.3628  -20.4679  -49.7482 H         1 UNK         0.0800 
    141 H141        0.8262  -21.6798  -49.8808 H         1 UNK         0.0800 
    142 H142        0.2923  -20.2510  -49.0162 H         1 UNK         0.0800 
    143 H143        0.5869  -23.0112  -47.7300 H         1 UNK         0.0600 
    144 H144       -0.0243  -20.4971  -46.5612 H         1 UNK         0.3000 
    145 H145       -1.6782  -21.8387  -43.6442 H         1 UNK         0.0600 
    146 H146        0.0537  -20.3656  -42.6458 H         1 UNK         0.0600 
    147 H147        0.7832  -21.8387  -43.2693 H         1 UNK         0.0600 
    148 H148        0.9404  -20.3352  -44.1679 H         1 UNK         0.0600 
    149 H149       -1.2695  -19.1483  -44.4237 H         1 UNK         0.3000 
    150 H150       -4.3315  -18.7080  -46.2477 H         1 UNK         0.0600 
    151 H151       -4.8633  -18.4492  -43.8289 H         1 UNK         0.0600 
    152 H152       -4.5185  -16.8929  -44.5670 H         1 UNK         0.0600 
    153 H153       -3.3112  -17.6737  -43.5467 H         1 UNK         0.0600 
    154 H154       -2.1523  -16.9539  -45.6356 H         1 UNK         0.3000 
    155 H155       -0.3121  -17.4754  -48.6538 H         1 UNK         0.0600 
    156 H156       -0.7403  -15.0373  -48.7564 H         1 UNK         0.0600 
    157 H157       -2.0236  -15.1790  -47.5527 H         1 UNK         0.0600 
    158 H158       -2.2126  -15.9136  -49.1352 H         1 UNK         0.0600 
    159 H159        0.1603  -15.7443  -46.4437 H         1 UNK         0.3000 
    160 H160        1.9718  -18.0666  -44.3933 H         1 UNK         0.0600 
    161 H161        2.8939  -15.5998  -45.9377 H         1 UNK         0.0600 
    162 H162        3.5459  -17.2161  -46.1898 H         1 UNK         0.0600 
    163 H163        3.7385  -16.4249  -44.6326 H         1 UNK         0.0600 
    164 H164        1.4316  -15.3005  -44.0567 H         1 UNK         0.3000 
    165 H165       -1.6478  -15.2876  -42.7211 H         1 UNK         0.0600 
    166 H166        0.5084  -16.0347  -40.6687 H         1 UNK         0.0600 
    167 H167       -0.9519  -15.1101  -40.3228 H         1 UNK         0.0600 
    168 H168       -1.0749  -16.7897  -40.8234 H         1 UNK         0.0600 
    169 H169        1.1324  -14.1978  -42.4498 H         1 UNK         0.3000 
    170 H170        0.8902  -11.7388  -43.9598 H         1 UNK         0.0600 
    171 H171       -0.5916  -10.3833  -41.6491 H         1 UNK         0.0600 
    172 H172       -0.9466  -10.2225  -43.3631 H         1 UNK         0.0600 
    173 H173        0.5584   -9.5861  -42.7228 H         1 UNK         0.0600 
    174 H174        2.6085  -12.0236  -42.5992 H         1 UNK         0.3000 
    175 H175        3.3987  -11.6145  -39.4918 H         1 UNK         0.0600 
    176 H176        4.0015  -13.9334  -38.7631 H         1 UNK         0.0600 
    177 H177        2.3140  -13.5714  -38.4488 H         1 UNK         0.0600 
    178 H178        2.7464  -14.5917  -39.8122 H         1 UNK         0.0600 
    179 H179        5.0483  -11.9652  -40.8796 H         1 UNK         0.3000 
    180 H180        6.1357  -12.4739  -42.9091 H         1 UNK         0.0600 
    181 H181        6.6735  -15.1005  -41.4239 H         1 UNK         0.0600 
    182 H182        6.9412  -13.4850  -40.7828 H         1 UNK         0.0600 
    183 H183        7.9020  -14.0545  -42.1344 H         1 UNK         0.0600 
    184 H184        6.3041  -15.2284  -43.7926 H         1 UNK         0.3000 
    185 H185        4.3476  -12.2488  -44.5223 H         1 UNK         0.0600 
    186 H186        5.5146  -10.5676  -45.9560 H         1 UNK         0.0600 
    187 H187        6.6971  -11.4326  -44.9880 H         1 UNK         0.0600 
    188 H188        6.4949  -11.8364  -46.6872 H         1 UNK         0.0600 
    189 H189        4.1627  -13.4758  -47.1515 H         1 UNK         0.3000 
    190 H190       -2.2848  -20.8658  -48.1666 H         1 UNK         0.3000 
    191 H191       -3.6100  -22.4726  -50.0745 H         1 UNK         0.0600 
    192 H192       -4.2277  -20.1221  -49.5303 H         1 UNK         0.0600 
    193 H193       -5.6187  -21.1913  -49.4168 H         1 UNK         0.0600 
    194 H194       -4.8199  -20.6252  -47.9517 H         1 UNK         0.0600 
    195 H195       -3.7616  -22.5485  -46.4748 H         1 UNK         0.3000 
    196 H196       -5.6627  -24.6378  -46.2471 H         1 UNK         0.0600 
    197 H197       -4.7961  -24.8119  -43.9050 H         1 UNK         0.0600 
    198 H198       -5.0966  -23.1438  -44.3671 H         1 UNK         0.0600 
    199 H199       -3.4472  -23.7611  -44.3207 H         1 UNK         0.0600 
    200 H200       -2.0650  -24.7584  -46.3534 H         1 UNK         0.3000 
    201 H201       -1.7851  -27.5670  -46.0879 H         1 UNK         0.0600 
    202 H202        0.0871  -25.9706  -45.7805 H         1 UNK         0.0600 
    203 H203        0.0302  -25.5308  -47.4859 H         1 UNK         0.0600 
    204 H204        0.5003  -27.1577  -47.0087 H         1 UNK         0.0600 
    205 H205       -2.3301  -25.5386  -48.9585 H         1 UNK         0.3000 
    206 H206       -2.2604  -27.7468  -50.8616 H         1 UNK         0.0600 
    207 H207       -1.5330  -25.4561  -51.4845 H         1 UNK         0.0600 
    208 H208       -2.9188  -25.9300  -52.4546 H         1 UNK         0.0600 
    209 H209       -3.1304  -24.8242  -51.1011 H         1 UNK         0.0600 
    210 H210       -4.5127  -27.0473  -48.5331 H         1 UNK         0.3000 
    211 H211       -6.6378  -27.4522  -48.1200 H         1 UNK         0.0600 
    212 H212       -6.5167  -29.4403  -50.4497 H         1 UNK         0.0600 
    213 H213       -7.6706  -29.4562  -49.1226 H         1 UNK         0.0600 
    214 H214       -5.9728  -29.7690  -48.8049 H         1 UNK         0.0600 
    215 H215       -6.1124  -25.2188  -49.7626 H         1 UNK         0.3000 
    216 H216       -6.9844  -23.5928  -50.9128 H         1 UNK         0.0600 
    217 H217       -8.9099  -23.8424  -49.3316 H         1 UNK         0.0600 
    218 H218       -9.7330  -24.8780  -50.4981 H         1 UNK         0.0600 
    219 H219       -9.4110  -23.1942  -50.8834 H         1 UNK         0.0600 
    220 H220       -6.4830  -26.3772  -52.3447 H         1 UNK         0.3000 
    221 H221       -7.9595  -26.0417  -54.8470 H         1 UNK         0.0600 
    222 H222       -5.6217  -27.8918  -54.1415 H         1 UNK         0.0600 
    223 H223       -7.3263  -28.2956  -53.9366 H         1 UNK         0.0600 
    224 H224       -6.6722  -28.0200  -55.5444 H         1 UNK         0.0600 
    225 H225       -5.0913  -24.7031  -53.4778 H         1 UNK         0.3000 
    226 H226       -4.4306  -23.1811  -55.8071 H         1 UNK         0.0600 
    227 H227       -3.1650  -25.3093  -56.3422 H         1 UNK         0.0600 
    228 H228       -2.0594  -24.0000  -55.9776 H         1 UNK         0.0600 
    229 H229       -2.3784  -25.2365  -54.7682 H         1 UNK         0.0600 
    230 H230       -2.3706  -21.8695  -55.1665 H         1 UNK         0.3000 
    231 H231       -1.3040  -20.4064  -53.9250 H         1 UNK         0.0600 
    232 H232       -0.4311  -21.1246  -51.7369 H         1 UNK         0.0600 
    233 H233       -0.3752  -22.4625  -52.8706 H         1 UNK         0.0600 
    234 H234       -1.6274  -22.4074  -51.6320 H         1 UNK         0.0600 
    235 H235       -4.4169  -20.4240  -53.7291 H         1 UNK         0.3000 
    236 H236       -4.9868  -18.9045  -51.3120 H         1 UNK         0.0600 
    237 H237       -7.2793  -18.8526  -52.2591 H         1 UNK         0.0600 
    238 H238       -6.6963  -19.5444  -53.7695 H         1 UNK         0.0600 
    239 H239       -6.6333  -20.4853  -52.2795 H         1 UNK         0.0600 
    240 H240       -3.0109  -17.5081  -52.1650 H         1 UNK         0.3000 
    241 H241       -3.7245  -15.3948  -54.0284 H         1 UNK         0.0600 
    242 H242       -4.5962  -15.6946  -50.7376 H         1 UNK         0.3800 
    243 H243       -4.8027  -13.9886  -50.4373 H         1 UNK         0.3800 
    244 H244       -1.4617  -16.1914  -54.0725 H         1 UNK         0.0800 
    245 H245       -1.4513  -14.5196  -53.6041 H         1 UNK         0.0800 
    246 H246        0.9557  -16.5738  -53.3376 H         1 UNK         0.0800 
    247 H247        0.0166  -17.9542  -52.8037 H         1 UNK         0.0800 
@<TRIPOS>BOND
     1    1    2 1    
     2    1  127 1    
     3    1  128 1    
     4    1  129 1    
     5    2    3 2    
     6    2    4 am   BACKBONE|DICT|INTERRES
     7    4    5 1    
     8    4  130 1    
     9    5    6 1    
    10    5   65 1    
    11    5  131 1    
    12    6    7 1    
    13    6  132 1    
    14    6  133 1    
    15    7    8 1    
    16    8    9 1    
    17    8  134 1    
    18    8  135 1    
    19    9   10 ar   
    20    9   14 ar   
    21   10   11 ar   
    22   10  136 1    
    23   11   12 ar   
    24   11  126 1    
    25   12   13 ar   
    26   12  137 1    
    27   13   14 ar   
    28   13   15 1    
    29   14  138 1    
    30   15   16 1    
    31   15  139 1    
    32   15  140 1    
    33   16   17 1    
    34   17   18 1    
    35   17  141 1    
    36   17  142 1    
    37   18   19 1    
    38   18   67 1    
    39   18  143 1    
    40   19   20 am   BACKBONE|DICT|INTERRES
    41   19  144 1    
    42   20   21 2    
    43   20   22 1    
    44   22   23 1    
    45   22   24 1    
    46   22  145 1    
    47   23  146 1    
    48   23  147 1    
    49   23  148 1    
    50   24   25 am   BACKBONE|DICT|INTERRES
    51   24  149 1    
    52   25   26 2    
    53   25   27 1    
    54   27   28 1    
    55   27   29 1    
    56   27  150 1    
    57   28  151 1    
    58   28  152 1    
    59   28  153 1    
    60   29   30 am   BACKBONE|DICT|INTERRES
    61   29  154 1    
    62   30   31 2    
    63   30   32 1    
    64   32   33 1    
    65   32   34 1    
    66   32  155 1    
    67   33  156 1    
    68   33  157 1    
    69   33  158 1    
    70   34   35 am   BACKBONE|DICT|INTERRES
    71   34  159 1    
    72   35   36 2    
    73   35   37 1    
    74   37   38 1    
    75   37   39 1    
    76   37  160 1    
    77   38  161 1    
    78   38  162 1    
    79   38  163 1    
    80   39   40 am   BACKBONE|DICT|INTERRES
    81   39  164 1    
    82   40   41 2    
    83   40   42 1    
    84   42   43 1    
    85   42   44 1    
    86   42  165 1    
    87   43  166 1    
    88   43  167 1    
    89   43  168 1    
    90   44   45 am   BACKBONE|DICT|INTERRES
    91   44  169 1    
    92   45   46 2    
    93   45   47 1    
    94   47   48 1    
    95   47   49 1    
    96   47  170 1    
    97   48  171 1    
    98   48  172 1    
    99   48  173 1    
   100   49   50 am   BACKBONE|DICT|INTERRES
   101   49  174 1    
   102   50   51 2    
   103   50   52 1    
   104   52   53 1    
   105   52   54 1    
   106   52  175 1    
   107   53  176 1    
   108   53  177 1    
   109   53  178 1    
   110   54   55 am   BACKBONE|DICT|INTERRES
   111   54  179 1    
   112   55   56 2    
   113   55   57 1    
   114   57   58 1    
   115   57   59 1    
   116   57  180 1    
   117   58  181 1    
   118   58  182 1    
   119   58  183 1    
   120   59   60 am   BACKBONE|DICT|INTERRES
   121   59  184 1    
   122   60   61 2    
   123   60   62 1    
   124   62   63 1    
   125   62   64 1    
   126   62  185 1    
   127   63  186 1    
   128   63  187 1    
   129   63  188 1    
   130   64   65 am   BACKBONE|DICT|INTERRES
   131   64  189 1    
   132   65   66 2    
   133   67   68 2    
   134   67   69 am   BACKBONE|DICT|INTERRES
   135   69   70 1    
   136   69  190 1    
   137   70   71 1    
   138   70   72 1    
   139   70  191 1    
   140   71  192 1    
   141   71  193 1    
   142   71  194 1    
   143   72   73 2    
   144   72   74 am   BACKBONE|DICT|INTERRES
   145   74   75 1    
   146   74  195 1    
   147   75   76 1    
   148   75   77 1    
   149   75  196 1    
   150   76  197 1    
   151   76  198 1    
   152   76  199 1    
   153   77   78 2    
   154   77   79 am   BACKBONE|DICT|INTERRES
   155   79   80 1    
   156   79  200 1    
   157   80   81 1    
   158   80   82 1    
   159   80  201 1    
   160   81  202 1    
   161   81  203 1    
   162   81  204 1    
   163   82   83 2    
   164   82   84 am   BACKBONE|DICT|INTERRES
   165   84   85 1    
   166   84  205 1    
   167   85   86 1    
   168   85   87 1    
   169   85  206 1    
   170   86  207 1    
   171   86  208 1    
   172   86  209 1    
   173   87   88 2    
   174   87   89 am   BACKBONE|DICT|INTERRES
   175   89   90 1    
   176   89  210 1    
   177   90   91 1    
   178   90   92 1    
   179   90  211 1    
   180   91  212 1    
   181   91  213 1    
   182   91  214 1    
   183   92   93 2    
   184   92   94 am   BACKBONE|DICT|INTERRES
   185   94   95 1    
   186   94  215 1    
   187   95   96 1    
   188   95   97 1    
   189   95  216 1    
   190   96  217 1    
   191   96  218 1    
   192   96  219 1    
   193   97   98 2    
   194   97   99 am   BACKBONE|DICT|INTERRES
   195   99  100 1    
   196   99  220 1    
   197  100  101 1    
   198  100  102 1    
   199  100  221 1    
   200  101  222 1    
   201  101  223 1    
   202  101  224 1    
   203  102  103 2    
   204  102  104 am   BACKBONE|DICT|INTERRES
   205  104  105 1    
   206  104  225 1    
   207  105  106 1    
   208  105  107 1    
   209  105  226 1    
   210  106  227 1    
   211  106  228 1    
   212  106  229 1    
   213  107  108 2    
   214  107  109 am   BACKBONE|DICT|INTERRES
   215  109  110 1    
   216  109  230 1    
   217  110  111 1    
   218  110  112 1    
   219  110  231 1    
   220  111  232 1    
   221  111  233 1    
   222  111  234 1    
   223  112  113 2    
   224  112  114 am   BACKBONE|DICT|INTERRES
   225  114  115 1    
   226  114  235 1    
   227  115  116 1    
   228  115  117 1    
   229  115  236 1    
   230  116  237 1    
   231  116  238 1    
   232  116  239 1    
   233  117  118 2    
   234  117  119 am   BACKBONE|DICT|INTERRES
   235  119  120 1    
   236  119  240 1    
   237  120  121 1    
   238  120  124 1    
   239  120  241 1    
   240  121  122 am   BACKBONE|DICT|INTERRES
   241  121  123 2    
   242  122  242 1    
   243  122  243 1    
   244  124  125 1    
   245  124  244 1    
   246  124  245 1    
   247  125  126 1    
   248  126  246 1    
   249  126  247 1    
@<TRIPOS>SUBSTRUCTURE
     1 UNK         1 GROUP             0       ****    0 ROOT    
