@<TRIPOS>MOLECULE
3R540
247   249    1
SMALL
USER_CHARGES


@<TRIPOS>ATOM
      1 CA         -3.2506  -10.8635  -47.4697 C.3       0 UNK        -0.1800 
      2 C          -1.9570  -11.5152  -47.0045 C.2       0 UNK         0.5000 
      3 O          -1.3440  -11.0485  -46.0458 O.2       0 UNK        -0.5000 
      4 N          -1.5491  -12.6104  -47.6580 N.am      1 UNK        -0.5000 
      5 CA         -0.3129  -13.3597  -47.3864 C.3       1 UNK         0.1400 
      6 C6          0.0741  -14.2812  -48.5741 C.3       23 UNK        -0.0398 
      7 S7         -1.2368  -15.4379  -49.1171 S.3       23 UNK        -0.2404 
      8 C8         -0.5240  -16.0921  -50.6700 C.3       23 UNK        -0.0205 
      9 C9          0.0851  -17.4900  -50.5505 C.ar      23 UNK        -0.0193 
     10 C10        -0.1365  -18.4273  -51.5657 C.ar      23 UNK        -0.1150 
     11 C11         0.4396  -19.6996  -51.4998 C.ar      23 UNK        -0.0193 
     12 C12         1.2354  -20.0385  -50.4047 C.ar      23 UNK        -0.1150 
     13 C13         1.4429  -19.1298  -49.3633 C.ar      23 UNK        -0.0193 
     14 C14         0.8881  -17.8500  -49.4622 C.ar      23 UNK        -0.1150 
     15 C15         2.2680  -19.5036  -48.1322 C.3       23 UNK        -0.0205 
     16 S16         2.0409  -21.2223  -47.5392 S.3       23 UNK        -0.2404 
     17 C17         0.2269  -21.4378  -47.5531 C.3       23 UNK        -0.0398 
     18 CA         -0.2547  -22.5710  -46.6176 C.3       11 UNK         0.1400 
     19 N           0.1182  -22.3316  -45.2153 N.am      11 UNK        -0.5000 
     20 C           0.1880  -23.2573  -44.2490 C.2       10 UNK         0.5000 
     21 O          -0.0921  -24.4427  -44.4218 O.2       10 UNK        -0.5000 
     22 CA          0.5774  -22.7536  -42.8462 C.3       10 UNK         0.1400 
     23 CB          2.1011  -22.5988  -42.7297 C.3       10 UNK        -0.1800 
     24 N          -0.0670  -21.4758  -42.5342 N.am      10 UNK        -0.5000 
     25 C          -1.3693  -21.3415  -42.2334 C.2       9 UNK         0.5000 
     26 O          -2.1290  -22.2955  -42.0715 O.2       9 UNK        -0.5000 
     27 CA         -1.9327  -19.9049  -42.1533 C.3       9 UNK         0.1400 
     28 CB         -1.8247  -19.3569  -40.7230 C.3       9 UNK        -0.1800 
     29 N          -1.2515  -18.9898  -43.0699 N.am      9 UNK        -0.5000 
     30 C          -1.2391  -19.1299  -44.4013 C.2       8 UNK         0.5000 
     31 O          -1.9892  -19.8947  -45.0047 O.2       8 UNK        -0.5000 
     32 CA         -0.1693  -18.3625  -45.2010 C.3       8 UNK         0.1400 
     33 CB         -0.8152  -17.5288  -46.3085 C.3       8 UNK        -0.1800 
     34 N           0.7645  -17.5329  -44.4330 N.am      8 UNK        -0.5000 
     35 C           1.6542  -17.9865  -43.5373 C.2       7 UNK         0.5000 
     36 O           1.7012  -19.1599  -43.1604 O.2       7 UNK        -0.5000 
     37 CA          2.6464  -16.9421  -42.9921 C.3       7 UNK         0.1400 
     38 CB          3.7147  -17.5418  -42.0548 C.3       7 UNK        -0.1800 
     39 N           3.2601  -16.1709  -44.0761 N.am      7 UNK        -0.5000 
     40 C           4.0261  -16.6366  -45.0760 C.2       6 UNK         0.5000 
     41 O           4.3928  -17.8082  -45.1723 O.2       6 UNK        -0.5000 
     42 CA          4.4341  -15.6436  -46.1819 C.3       6 UNK         0.1400 
     43 CB          3.7253  -16.0041  -47.4959 C.3       6 UNK        -0.1800 
     44 N           4.1170  -14.2543  -45.8536 N.am      6 UNK        -0.5000 
     45 C           4.8832  -13.4455  -45.1109 C.2       5 UNK         0.5000 
     46 O           5.9649  -13.7820  -44.6263 O.2       5 UNK        -0.5000 
     47 CA          4.3554  -12.0173  -44.8553 C.3       5 UNK         0.1400 
     48 CB          3.2323  -11.5829  -45.8261 C.3       5 UNK        -0.1800 
     49 N           3.9185  -11.8205  -43.4696 N.am      5 UNK        -0.5000 
     50 C           2.9942  -12.5360  -42.8131 C.2       4 UNK         0.5000 
     51 O           2.4499  -13.5406  -43.2723 O.2       4 UNK        -0.5000 
     52 CA          2.5478  -12.0423  -41.4232 C.3       4 UNK         0.1400 
     53 CB          3.3155  -10.8136  -40.8839 C.3       4 UNK        -0.1800 
     54 N           1.0999  -11.8166  -41.4446 N.am      4 UNK        -0.5000 
     55 C           0.4358  -10.9289  -42.1996 C.2       3 UNK         0.5000 
     56 O           0.9701  -10.0186  -42.8358 O.2       3 UNK        -0.5000 
     57 CA         -1.0806  -11.1628  -42.3128 C.3       3 UNK         0.1400 
     58 CB         -1.8405   -9.9215  -42.8138 C.3       3 UNK        -0.1800 
     59 N          -1.3360  -12.2823  -43.2209 N.am      3 UNK        -0.5000 
     60 C          -1.2777  -13.5763  -42.8706 C.2       2 UNK         0.5000 
     61 O          -1.0170  -13.9522  -41.7264 O.2       2 UNK        -0.5000 
     62 CA         -1.5690  -14.6343  -43.9520 C.3       2 UNK         0.1400 
     63 CB         -2.9907  -15.1917  -43.7751 C.3       2 UNK        -0.1800 
     64 N          -1.4290  -14.1140  -45.3121 N.am      2 UNK        -0.5000 
     65 C          -0.2917  -14.0955  -46.0223 C.2       1 UNK         0.5000 
     66 O           0.7522  -14.6309  -45.6434 O.2       1 UNK        -0.5000 
     67 C          -1.7633  -22.8561  -46.8221 C.2       11 UNK         0.5000 
     68 O          -2.1905  -23.0808  -47.9563 O.2       11 UNK        -0.5000 
     69 N          -2.5481  -22.8719  -45.7362 N.am      12 UNK        -0.5000 
     70 CA         -3.9138  -23.3905  -45.7063 C.3       12 UNK         0.1400 
     71 CB         -4.6024  -22.9256  -44.4158 C.3       12 UNK        -0.1800 
     72 C          -3.9530  -24.9282  -45.8241 C.2       12 UNK         0.5000 
     73 O          -4.9852  -25.4726  -46.2184 O.2       12 UNK        -0.5000 
     74 N          -2.8332  -25.6048  -45.5159 N.am      13 UNK        -0.5000 
     75 CA         -2.6236  -27.0316  -45.7604 C.3       13 UNK         0.1400 
     76 CB         -1.2552  -27.4525  -45.2052 C.3       13 UNK        -0.1800 
     77 C          -2.7244  -27.3445  -47.2644 C.2       13 UNK         0.5000 
     78 O          -2.0709  -26.6791  -48.0711 O.2       13 UNK        -0.5000 
     79 N          -3.5933  -28.3054  -47.6067 N.am      14 UNK        -0.5000 
     80 CA         -4.0033  -28.6829  -48.9671 C.3       14 UNK         0.1400 
     81 CB         -2.8132  -29.2577  -49.7643 C.3       14 UNK        -0.1800 
     82 C          -4.7406  -27.5604  -49.7368 C.2       14 UNK         0.5000 
     83 O          -4.8897  -27.6628  -50.9551 O.2       14 UNK        -0.5000 
     84 N          -5.1978  -26.5217  -49.0165 N.am      15 UNK        -0.5000 
     85 CA         -5.9194  -25.3393  -49.4966 C.3       15 UNK         0.1400 
     86 CB         -7.3192  -25.7378  -50.0115 C.3       15 UNK        -0.1800 
     87 C          -5.1332  -24.4897  -50.5183 C.2       15 UNK         0.5000 
     88 O          -5.7541  -23.7908  -51.3180 O.2       15 UNK        -0.5000 
     89 N          -3.7931  -24.5457  -50.4826 N.am      16 UNK        -0.5000 
     90 CA         -2.9104  -23.9279  -51.4765 C.3       16 UNK         0.1400 
     91 CB         -1.4546  -24.3333  -51.2015 C.3       16 UNK        -0.1800 
     92 C          -3.0587  -22.3987  -51.5691 C.2       16 UNK         0.5000 
     93 O          -3.2502  -21.8724  -52.6671 O.2       16 UNK        -0.5000 
     94 N          -3.0111  -21.7150  -50.4182 N.am      17 UNK        -0.5000 
     95 CA         -3.2292  -20.2683  -50.3353 C.3       17 UNK         0.1400 
     96 CB         -2.6385  -19.7209  -49.0308 C.3       17 UNK        -0.1800 
     97 C          -4.7106  -19.8749  -50.4635 C.2       17 UNK         0.5000 
     98 O          -5.0014  -18.7877  -50.9606 O.2       17 UNK        -0.5000 
     99 N          -5.6186  -20.7628  -50.0341 N.am      18 UNK        -0.5000 
    100 CA        -7.0683  -20.5602  -50.0925 C.3       18 UNK         0.1400 
    101 CB        -7.7694  -21.6057  -49.2123 C.3       18 UNK        -0.1800 
    102 C         -7.6071  -20.5929  -51.5347 C.2       18 UNK         0.5000 
    103 O         -8.4250  -19.7483  -51.9004 O.2       18 UNK        -0.5000 
    104 N         -7.1062  -21.5419  -52.3364 N.am      19 UNK        -0.5000 
    105 CA        -7.3717  -21.6533  -53.7716 C.3       19 UNK         0.1400 
    106 CB        -7.0626  -23.0911  -54.2184 C.3       19 UNK        -0.1800 
    107 C         -6.5531  -20.6518  -54.6106 C.2       19 UNK         0.5000 
    108 O         -6.8703  -20.4542  -55.7841 O.2       19 UNK        -0.5000 
    109 N         -5.5117  -20.0629  -54.0022 N.am      20 UNK        -0.5000 
    110 CA        -4.5117  -19.1696  -54.5936 C.3       20 UNK         0.1400 
    111 CB        -5.1479  -17.8370  -55.0381 C.3       20 UNK        -0.1800 
    112 C         -3.7073  -19.8683  -55.7084 C.2       20 UNK         0.5000 
    113 O         -3.4582  -19.2850  -56.7658 O.2       20 UNK        -0.5000 
    114 N         -3.3019  -21.1174  -55.4361 N.am      21 UNK        -0.5000 
    115 CA        -2.5839  -22.0091  -56.3530 C.3       21 UNK         0.1400 
    116 CB        -2.4545  -23.3897  -55.6905 C.3       21 UNK        -0.1800 
    117 C         -1.1984  -21.4836  -56.7785 C.2       21 UNK         0.5000 
    118 O         -0.6939  -21.8690  -57.8338 O.2       21 UNK        -0.5000 
    119 N         -0.6262  -20.6029  -55.9522 N.am      22 UNK        -0.5000 
    120 CA         0.6315  -19.8840  -56.1932 C.3       22 UNK         0.1400 
    121 C          0.4928  -18.6754  -57.1670 C.2       22 UNK         0.5000 
    122 N         -0.7046  -18.2796  -57.5872 N.am      22 UNK        -0.7600 
    123 O          1.4971  -18.0869  -57.5577 O.2       22 UNK        -0.5000 
    124 C124        1.2941  -19.4499  -54.8598 C.3       23 UNK        -0.0398 
    125 S125        1.5957  -20.8600  -53.7380 S.3       23 UNK        -0.2404 
    126 C126        0.1893  -20.7294  -52.5883 C.3       23 UNK        -0.0205 
    127 H127       -3.9749  -10.8444  -46.6555 H         1 UNK         0.0600 
    128 H128       -3.6950  -11.3988  -48.3092 H         1 UNK         0.0600 
    129 H129       -3.0607   -9.8368  -47.7825 H         1 UNK         0.0600 
    130 H130       -2.1066  -12.9710  -48.4202 H         1 UNK         0.3000 
    131 H131        0.4821  -12.6154  -47.3081 H         1 UNK         0.0600 
    132 H132        0.3297  -13.6507  -49.4267 H         1 UNK         0.0800 
    133 H133        0.9808  -14.8413  -48.3521 H         1 UNK         0.0800 
    134 H134        0.2344  -15.4103  -51.0557 H         1 UNK         0.0800 
    135 H135       -1.3238  -16.1024  -51.4119 H         1 UNK         0.0800 
    136 H136       -0.7549  -18.1646  -52.4122 H         1 UNK         0.1150 
    137 H137        1.6786  -21.0231  -50.3579 H         1 UNK         0.1150 
    138 H138        1.0802  -17.1305  -48.6845 H         1 UNK         0.1150 
    139 H139        2.0511  -18.8216  -47.3098 H         1 UNK         0.0800 
    140 H140        3.3226  -19.3612  -48.3698 H         1 UNK         0.0800 
    141 H141       -0.0618  -21.6579  -48.5820 H         1 UNK         0.0800 
    142 H142       -0.2572  -20.4984  -47.2932 H         1 UNK         0.0800 
    143 H143        0.2545  -23.4845  -46.9323 H         1 UNK         0.0600 
    144 H144        0.3604  -21.3828  -44.9777 H         1 UNK         0.3000 
    145 H145        0.2534  -23.4987  -42.1163 H         1 UNK         0.0600 
    146 H146        2.6058  -23.5445  -42.9312 H         1 UNK         0.0600 
    147 H147        2.3891  -22.2830  -41.7269 H         1 UNK         0.0600 
    148 H148        2.4886  -21.8625  -43.4354 H         1 UNK         0.0600 
    149 H149        0.5034  -20.6421  -42.6472 H         1 UNK         0.3000 
    150 H150       -2.9879  -19.9431  -42.4319 H         1 UNK         0.0600 
    151 H151       -0.7862  -19.2811  -40.3979 H         1 UNK         0.0600 
    152 H152       -2.3438  -20.0061  -40.0167 H         1 UNK         0.0600 
    153 H153       -2.2747  -18.3669  -40.6449 H         1 UNK         0.0600 
    154 H154       -0.5880  -18.3514  -42.6579 H         1 UNK         0.3000 
    155 H155        0.4472  -19.1237  -45.6756 H         1 UNK         0.0600 
    156 H156       -0.0696  -16.9376  -46.8324 H         1 UNK         0.0600 
    157 H157       -1.5710  -16.8505  -45.9189 H         1 UNK         0.0600 
    158 H158       -1.3023  -18.1651  -47.0462 H         1 UNK         0.0600 
    159 H159        0.8215  -16.5571  -44.7060 H         1 UNK         0.3000 
    160 H160        2.0570  -16.2337  -42.4082 H         1 UNK         0.0600 
    161 H161        4.3136  -18.3050  -42.5522 H         1 UNK         0.0600 
    162 H162        3.2500  -18.0094  -41.1860 H         1 UNK         0.0600 
    163 H163        4.3914  -16.7710  -41.6862 H         1 UNK         0.0600 
    164 H164        3.0015  -15.1864  -44.0897 H         1 UNK         0.3000 
    165 H165        5.5111  -15.7379  -46.3359 H         1 UNK         0.0600 
    166 H166        4.0421  -16.9841  -47.8536 H         1 UNK         0.0600 
    167 H167        2.6456  -16.0392  -47.3585 H         1 UNK         0.0600 
    168 H168        3.9470  -15.2840  -48.2837 H         1 UNK         0.0600 
    169 H169        3.2064  -13.9232  -46.1402 H         1 UNK         0.3000 
    170 H170        5.2021  -11.3479  -45.0139 H         1 UNK         0.0600 
    171 H171        2.9837  -10.5312  -45.6828 H         1 UNK         0.0600 
    172 H172        2.3153  -12.1538  -45.6788 H         1 UNK         0.0600 
    173 H173        3.5389  -11.7005  -46.8663 H         1 UNK         0.0600 
    174 H174        4.3186  -11.0229  -42.9968 H         1 UNK         0.3000 
    175 H175        2.7224  -12.8697  -40.7340 H         1 UNK         0.0600 
    176 H176        4.3770  -11.0365  -40.7702 H         1 UNK         0.0600 
    177 H177        3.2282   -9.9431  -41.5341 H         1 UNK         0.0600 
    178 H178        2.9434  -10.5264  -39.9004 H         1 UNK         0.0600 
    179 H179        0.5477  -12.5712  -41.0536 H         1 UNK         0.3000 
    180 H180       -1.4637  -11.4025  -41.3185 H         1 UNK         0.0600 
    181 H181       -1.5084   -9.6117  -43.8050 H         1 UNK         0.0600 
    182 H182       -1.6903   -9.0771  -42.1403 H         1 UNK         0.0600 
    183 H183       -2.9127  -10.1105  -42.8653 H         1 UNK         0.0600 
    184 H184       -1.4666  -12.0379  -44.1960 H         1 UNK         0.3000 
    185 H185       -0.8650  -15.4523  -43.7990 H         1 UNK         0.0600 
    186 H186       -3.2067  -15.9777  -44.4981 H         1 UNK         0.0600 
    187 H187       -3.7453  -14.4131  -43.8932 H         1 UNK         0.0600 
    188 H188       -3.1190  -15.6252  -42.7823 H         1 UNK         0.0600 
    189 H189       -2.2404  -13.6672  -45.7129 H         1 UNK         0.3000 
    190 H190       -2.1426  -22.6124  -44.8488 H         1 UNK         0.3000 
    191 H191       -4.4601  -22.9753  -46.5558 H         1 UNK         0.0600 
    192 H192       -4.5669  -21.8402  -44.3173 H         1 UNK         0.0600 
    193 H193       -5.6523  -23.2208  -44.4072 H         1 UNK         0.0600 
    194 H194       -4.1336  -23.3592  -43.5320 H         1 UNK         0.0600 
    195 H195       -2.0189  -25.0843  -45.2127 H         1 UNK         0.3000 
    196 H196       -3.3983  -27.5809  -45.2216 H         1 UNK         0.0600 
    197 H197       -1.0904  -28.5219  -45.3423 H         1 UNK         0.0600 
    198 H198       -1.1810  -27.2448  -44.1375 H         1 UNK         0.0600 
    199 H199       -0.4401  -26.9275  -45.7051 H         1 UNK         0.0600 
    200 H200       -4.0925  -28.7791  -46.8660 H         1 UNK         0.3000 
    201 H201       -4.7321  -29.4855  -48.8467 H         1 UNK         0.0600 
    202 H202       -3.1483  -29.6991  -50.7035 H         1 UNK         0.0600 
    203 H203       -2.3039  -30.0415  -49.2038 H         1 UNK         0.0600 
    204 H204       -2.0795  -28.4899  -50.0114 H         1 UNK         0.0600 
    205 H205       -5.0181  -26.5215  -48.0184 H         1 UNK         0.3000 
    206 H206       -6.0622  -24.6968  -48.6271 H         1 UNK         0.0600 
    207 H207       -7.8645  -26.3132  -49.2634 H         1 UNK         0.0600 
    208 H208       -7.9234  -24.8611  -50.2447 H         1 UNK         0.0600 
    209 H209       -7.2598  -26.3386  -50.9194 H         1 UNK         0.0600 
    210 H210       -3.3488  -25.1095  -49.7701 H         1 UNK         0.3000 
    211 H211       -3.1900  -24.3376  -52.4494 H         1 UNK         0.0600 
    212 H212       -1.3462  -25.4179  -51.1791 H         1 UNK         0.0600 
    213 H213       -0.7920  -23.9593  -51.9824 H         1 UNK         0.0600 
    214 H214       -1.0955  -23.9440  -50.2485 H         1 UNK         0.0600 
    215 H215       -2.8262  -22.2171  -49.5528 H         1 UNK         0.3000 
    216 H216       -2.7004  -19.7893  -51.1618 H         1 UNK         0.0600 
    217 H217       -3.0148  -20.2491  -48.1541 H         1 UNK         0.0600 
    218 H218       -2.8734  -18.6626  -48.9074 H         1 UNK         0.0600 
    219 H219       -1.5542  -19.8004  -49.0447 H         1 UNK         0.0600 
    220 H220       -5.2918  -21.6471  -49.6763 H         1 UNK         0.3000 
    221 H221       -7.2880  -19.5732  -49.6797 H         1 UNK         0.0600 
    222 H222       -7.5777  -22.6196  -49.5600 H         1 UNK         0.0600 
    223 H223       -7.4364  -21.5374  -48.1765 H         1 UNK         0.0600 
    224 H224       -8.8499  -21.4570  -49.2169 H         1 UNK         0.0600 
    225 H225       -6.4865  -22.2477  -51.9412 H         1 UNK         0.3000 
    226 H226       -8.4302  -21.4556  -53.9528 H         1 UNK         0.0600 
    227 H227       -7.6484  -23.8153  -53.6519 H         1 UNK         0.0600 
    228 H228       -7.2991  -23.2341  -55.2734 H         1 UNK         0.0600 
    229 H229       -6.0077  -23.3346  -54.0819 H         1 UNK         0.0600 
    230 H230       -5.3444  -20.3197  -53.0398 H         1 UNK         0.3000 
    231 H231       -3.7988  -18.9437  -53.7992 H         1 UNK         0.0600 
    232 H232       -5.8365  -17.9719  -55.8726 H         1 UNK         0.0600 
    233 H233       -4.3832  -17.1282  -55.3578 H         1 UNK         0.0600 
    234 H234       -5.6984  -17.3730  -54.2196 H         1 UNK         0.0600 
    235 H235       -3.4905  -21.4877  -54.5074 H         1 UNK         0.3000 
    236 H236       -3.1878  -22.1128  -57.2566 H         1 UNK         0.0600 
    237 H237       -1.8648  -23.3404  -54.7740 H         1 UNK         0.0600 
    238 H238       -3.4325  -23.7999  -55.4375 H         1 UNK         0.0600 
    239 H239       -1.9660  -24.1006  -56.3582 H         1 UNK         0.0600 
    240 H240       -1.1303  -20.3522  -55.1171 H         1 UNK         0.3000 
    241 H241        1.3163  -20.5784  -56.6837 H         1 UNK         0.0600 
    242 H242       -1.5534  -18.7474  -57.2891 H         1 UNK         0.3800 
    243 H243       -0.7685  -17.4990  -58.2213 H         1 UNK         0.3800 
    244 H244        2.2593  -18.9788  -55.0535 H         1 UNK         0.0800 
    245 H245        0.6891  -18.6960  -54.3551 H         1 UNK         0.0800 
    246 H246       -0.7303  -20.5057  -53.1291 H         1 UNK         0.0800 
    247 H247        0.0322  -21.7029  -52.1236 H         1 UNK         0.0800 
@<TRIPOS>BOND
     1    1    2 1    
     2    1  127 1    
     3    1  128 1    
     4    1  129 1    
     5    2    3 2    
     6    2    4 am   BACKBONE|DICT|INTERRES
     7    4    5 1    
     8    4  130 1    
     9    5    6 1    
    10    5   65 1    
    11    5  131 1    
    12    6    7 1    
    13    6  132 1    
    14    6  133 1    
    15    7    8 1    
    16    8    9 1    
    17    8  134 1    
    18    8  135 1    
    19    9   10 ar   
    20    9   14 ar   
    21   10   11 ar   
    22   10  136 1    
    23   11   12 ar   
    24   11  126 1    
    25   12   13 ar   
    26   12  137 1    
    27   13   14 ar   
    28   13   15 1    
    29   14  138 1    
    30   15   16 1    
    31   15  139 1    
    32   15  140 1    
    33   16   17 1    
    34   17   18 1    
    35   17  141 1    
    36   17  142 1    
    37   18   19 1    
    38   18   67 1    
    39   18  143 1    
    40   19   20 am   BACKBONE|DICT|INTERRES
    41   19  144 1    
    42   20   21 2    
    43   20   22 1    
    44   22   23 1    
    45   22   24 1    
    46   22  145 1    
    47   23  146 1    
    48   23  147 1    
    49   23  148 1    
    50   24   25 am   BACKBONE|DICT|INTERRES
    51   24  149 1    
    52   25   26 2    
    53   25   27 1    
    54   27   28 1    
    55   27   29 1    
    56   27  150 1    
    57   28  151 1    
    58   28  152 1    
    59   28  153 1    
    60   29   30 am   BACKBONE|DICT|INTERRES
    61   29  154 1    
    62   30   31 2    
    63   30   32 1    
    64   32   33 1    
    65   32   34 1    
    66   32  155 1    
    67   33  156 1    
    68   33  157 1    
    69   33  158 1    
    70   34   35 am   BACKBONE|DICT|INTERRES
    71   34  159 1    
    72   35   36 2    
    73   35   37 1    
    74   37   38 1    
    75   37   39 1    
    76   37  160 1    
    77   38  161 1    
    78   38  162 1    
    79   38  163 1    
    80   39   40 am   BACKBONE|DICT|INTERRES
    81   39  164 1    
    82   40   41 2    
    83   40   42 1    
    84   42   43 1    
    85   42   44 1    
    86   42  165 1    
    87   43  166 1    
    88   43  167 1    
    89   43  168 1    
    90   44   45 am   BACKBONE|DICT|INTERRES
    91   44  169 1    
    92   45   46 2    
    93   45   47 1    
    94   47   48 1    
    95   47   49 1    
    96   47  170 1    
    97   48  171 1    
    98   48  172 1    
    99   48  173 1    
   100   49   50 am   BACKBONE|DICT|INTERRES
   101   49  174 1    
   102   50   51 2    
   103   50   52 1    
   104   52   53 1    
   105   52   54 1    
   106   52  175 1    
   107   53  176 1    
   108   53  177 1    
   109   53  178 1    
   110   54   55 am   BACKBONE|DICT|INTERRES
   111   54  179 1    
   112   55   56 2    
   113   55   57 1    
   114   57   58 1    
   115   57   59 1    
   116   57  180 1    
   117   58  181 1    
   118   58  182 1    
   119   58  183 1    
   120   59   60 am   BACKBONE|DICT|INTERRES
   121   59  184 1    
   122   60   61 2    
   123   60   62 1    
   124   62   63 1    
   125   62   64 1    
   126   62  185 1    
   127   63  186 1    
   128   63  187 1    
   129   63  188 1    
   130   64   65 am   BACKBONE|DICT|INTERRES
   131   64  189 1    
   132   65   66 2    
   133   67   68 2    
   134   67   69 am   BACKBONE|DICT|INTERRES
   135   69   70 1    
   136   69  190 1    
   137   70   71 1    
   138   70   72 1    
   139   70  191 1    
   140   71  192 1    
   141   71  193 1    
   142   71  194 1    
   143   72   73 2    
   144   72   74 am   BACKBONE|DICT|INTERRES
   145   74   75 1    
   146   74  195 1    
   147   75   76 1    
   148   75   77 1    
   149   75  196 1    
   150   76  197 1    
   151   76  198 1    
   152   76  199 1    
   153   77   78 2    
   154   77   79 am   BACKBONE|DICT|INTERRES
   155   79   80 1    
   156   79  200 1    
   157   80   81 1    
   158   80   82 1    
   159   80  201 1    
   160   81  202 1    
   161   81  203 1    
   162   81  204 1    
   163   82   83 2    
   164   82   84 am   BACKBONE|DICT|INTERRES
   165   84   85 1    
   166   84  205 1    
   167   85   86 1    
   168   85   87 1    
   169   85  206 1    
   170   86  207 1    
   171   86  208 1    
   172   86  209 1    
   173   87   88 2    
   174   87   89 am   BACKBONE|DICT|INTERRES
   175   89   90 1    
   176   89  210 1    
   177   90   91 1    
   178   90   92 1    
   179   90  211 1    
   180   91  212 1    
   181   91  213 1    
   182   91  214 1    
   183   92   93 2    
   184   92   94 am   BACKBONE|DICT|INTERRES
   185   94   95 1    
   186   94  215 1    
   187   95   96 1    
   188   95   97 1    
   189   95  216 1    
   190   96  217 1    
   191   96  218 1    
   192   96  219 1    
   193   97   98 2    
   194   97   99 am   BACKBONE|DICT|INTERRES
   195   99  100 1    
   196   99  220 1    
   197  100  101 1    
   198  100  102 1    
   199  100  221 1    
   200  101  222 1    
   201  101  223 1    
   202  101  224 1    
   203  102  103 2    
   204  102  104 am   BACKBONE|DICT|INTERRES
   205  104  105 1    
   206  104  225 1    
   207  105  106 1    
   208  105  107 1    
   209  105  226 1    
   210  106  227 1    
   211  106  228 1    
   212  106  229 1    
   213  107  108 2    
   214  107  109 am   BACKBONE|DICT|INTERRES
   215  109  110 1    
   216  109  230 1    
   217  110  111 1    
   218  110  112 1    
   219  110  231 1    
   220  111  232 1    
   221  111  233 1    
   222  111  234 1    
   223  112  113 2    
   224  112  114 am   BACKBONE|DICT|INTERRES
   225  114  115 1    
   226  114  235 1    
   227  115  116 1    
   228  115  117 1    
   229  115  236 1    
   230  116  237 1    
   231  116  238 1    
   232  116  239 1    
   233  117  118 2    
   234  117  119 am   BACKBONE|DICT|INTERRES
   235  119  120 1    
   236  119  240 1    
   237  120  121 1    
   238  120  124 1    
   239  120  241 1    
   240  121  122 am   BACKBONE|DICT|INTERRES
   241  121  123 2    
   242  122  242 1    
   243  122  243 1    
   244  124  125 1    
   245  124  244 1    
   246  124  245 1    
   247  125  126 1    
   248  126  246 1    
   249  126  247 1    
@<TRIPOS>SUBSTRUCTURE
     1 UNK         1 GROUP             0       ****    0 ROOT    
