@<TRIPOS>MOLECULE
3R540
247   249    1
SMALL
USER_CHARGES


@<TRIPOS>ATOM
      1 CA          6.8259  -14.2930  -44.5823 C.3       0 UNK        -0.1800 
      2 C           5.3455  -14.5163  -44.8506 C.2       0 UNK         0.5000 
      3 O           4.6310  -14.9822  -43.9643 O.2       0 UNK        -0.5000 
      4 N           4.8893  -14.2180  -46.0727 N.am      1 UNK        -0.5000 
      5 CA          3.4823  -14.3313  -46.4776 C.3       1 UNK         0.1400 
      6 C6          3.3295  -14.5601  -48.0020 C.3       23 UNK        -0.0398 
      7 S7          4.0821  -16.1236  -48.5652 S.3       23 UNK        -0.2404 
      8 C8          2.7831  -17.3334  -48.1613 C.3       23 UNK        -0.0205 
      9 C9          1.6306  -17.3286  -49.1550 C.ar      23 UNK        -0.0193 
     10 C10         1.6745  -18.1487  -50.2856 C.ar      23 UNK        -0.1150 
     11 C11         0.6203  -18.1504  -51.2045 C.ar      23 UNK        -0.0193 
     12 C12        -0.4783  -17.3119  -50.9914 C.ar      23 UNK        -0.1150 
     13 C13        -0.5444  -16.5032  -49.8536 C.ar      23 UNK        -0.0193 
     14 C14         0.5085  -16.5247  -48.9343 C.ar      23 UNK        -0.1150 
     15 C15        -1.7465  -15.5973  -49.6187 C.3       23 UNK        -0.0205 
     16 S16        -3.2762  -16.5255  -49.2688 S.3       23 UNK        -0.2404 
     17 C17        -2.7760  -17.5600  -47.8511 C.3       23 UNK        -0.0398 
     18 CA         -2.6026  -19.0485  -48.2568 C.3       11 UNK         0.1400 
     19 N          -1.4379  -19.6570  -47.6050 N.am      11 UNK        -0.5000 
     20 C          -0.9199  -20.8556  -47.9141 C.2       10 UNK         0.5000 
     21 O          -1.3660  -21.5857  -48.7989 O.2       10 UNK        -0.5000 
     22 CA          0.2262  -21.3775  -47.0268 C.3       10 UNK         0.1400 
     23 CB          1.5806  -21.0808  -47.6802 C.3       10 UNK        -0.1800 
     24 N           0.2048  -20.8357  -45.6651 N.am      10 UNK        -0.5000 
     25 C          -0.7999  -20.9988  -44.7880 C.2       9 UNK         0.5000 
     26 O          -1.8062  -21.6667  -45.0322 O.2       9 UNK        -0.5000 
     27 CA         -0.7048  -20.2510  -43.4421 C.3       9 UNK         0.1400 
     28 CB         -0.1450  -21.1803  -42.3558 C.3       9 UNK        -0.1800 
     29 N           0.1079  -19.0337  -43.4953 N.am      9 UNK        -0.5000 
     30 C          -0.1148  -17.9825  -44.2973 C.2       8 UNK         0.5000 
     31 O          -1.0935  -17.8873  -45.0380 O.2       8 UNK        -0.5000 
     32 CA          0.9651  -16.8835  -44.3309 C.3       8 UNK         0.1400 
     33 CB          0.5374  -15.6836  -43.4779 C.3       8 UNK        -0.1800 
     34 N           2.3088  -17.3192  -43.9249 N.am      8 UNK        -0.5000 
     35 C           3.0188  -18.2982  -44.5096 C.2       7 UNK         0.5000 
     36 O           2.5592  -19.0305  -45.3853 O.2       7 UNK        -0.5000 
     37 CA          4.4732  -18.5180  -44.0623 C.3       7 UNK         0.1400 
     38 CB          5.4420  -18.1870  -45.2092 C.3       7 UNK        -0.1800 
     39 N           4.8275  -17.7337  -42.8757 N.am      7 UNK        -0.5000 
     40 C           4.8598  -18.2451  -41.6378 C.2       6 UNK         0.5000 
     41 O           4.5774  -19.4168  -41.3812 O.2       6 UNK        -0.5000 
     42 CA          5.2888  -17.3249  -40.4768 C.3       6 UNK         0.1400 
     43 CB          6.7975  -17.4707  -40.2222 C.3       6 UNK        -0.1800 
     44 N           4.9726  -15.8984  -40.5954 N.am      6 UNK        -0.5000 
     45 C           3.7703  -15.3604  -40.8377 C.2       5 UNK         0.5000 
     46 O           2.7953  -16.0201  -41.2029 O.2       5 UNK        -0.5000 
     47 CA          3.6464  -13.8406  -40.5745 C.3       5 UNK         0.1400 
     48 CB          4.8285  -13.0253  -41.1314 C.3       5 UNK        -0.1800 
     49 N           2.3985  -13.2680  -41.0794 N.am      5 UNK        -0.5000 
     50 C           1.1959  -13.4067  -40.5011 C.2       4 UNK         0.5000 
     51 O           1.0160  -14.0116  -39.4418 O.2       4 UNK        -0.5000 
     52 CA         -0.0005  -12.7421  -41.2225 C.3       4 UNK         0.1400 
     53 CB         -1.2274  -12.5445  -40.3073 C.3       4 UNK        -0.1800 
     54 N           0.3558  -11.4888  -41.8972 N.am      4 UNK        -0.5000 
     55 C           0.8589  -10.3804  -41.3320 C.2       3 UNK         0.5000 
     56 O           1.0029  -10.2375  -40.1165 O.2       3 UNK        -0.5000 
     57 CA          1.2775   -9.2415  -42.2900 C.3       3 UNK         0.1400 
     58 CB          2.4527   -8.4133  -41.7289 C.3       3 UNK        -0.1800 
     59 N           1.5780   -9.6660  -43.6668 N.am      3 UNK        -0.5000 
     60 C           2.5047  -10.5528  -44.0593 C.2       2 UNK         0.5000 
     61 O           3.1753  -11.2396  -43.2862 O.2       2 UNK        -0.5000 
     62 CA          2.7316  -10.6567  -45.5772 C.3       2 UNK         0.1400 
     63 CB          3.6577   -9.5272  -46.0557 C.3       2 UNK        -0.1800 
     64 N           3.3286  -11.9357  -45.9540 N.am      2 UNK        -0.5000 
     65 C           2.6654  -13.0954  -46.0478 C.2       1 UNK         0.5000 
     66 O           1.4578  -13.2103  -45.8357 O.2       1 UNK        -0.5000 
     67 C          -3.9098  -19.8501  -48.0416 C.2       11 UNK         0.5000 
     68 O          -4.8713  -19.6442  -48.7820 O.2       11 UNK        -0.5000 
     69 N          -3.9200  -20.7563  -47.0537 N.am      12 UNK        -0.5000 
     70 CA         -4.9592  -21.7580  -46.8512 C.3       12 UNK         0.1400 
     71 CB         -5.4666  -21.6851  -45.4027 C.3       12 UNK        -0.1800 
     72 C          -4.4161  -23.1597  -47.1711 C.2       12 UNK         0.5000 
     73 O          -5.0494  -23.8869  -47.9351 O.2       12 UNK        -0.5000 
     74 N          -3.2690  -23.5219  -46.5790 N.am      13 UNK        -0.5000 
     75 CA         -2.7232  -24.8798  -46.5918 C.3       13 UNK         0.1400 
     76 CB         -1.6220  -24.9966  -45.5260 C.3       13 UNK        -0.1800 
     77 C          -2.2065  -25.3434  -47.9647 C.2       13 UNK         0.5000 
     78 O          -2.5707  -26.4323  -48.4092 O.2       13 UNK        -0.5000 
     79 N          -1.3732  -24.5197  -48.6143 N.am      14 UNK        -0.5000 
     80 CA         -0.7883  -24.8193  -49.9255 C.3       14 UNK         0.1400 
     81 CB          0.5191  -24.0320  -50.1086 C.3       14 UNK        -0.1800 
     82 C          -1.7739  -24.5067  -51.0618 C.2       14 UNK         0.5000 
     83 O          -1.7790  -25.2012  -52.0777 O.2       14 UNK        -0.5000 
     84 N          -2.6118  -23.4848  -50.8473 N.am      15 UNK        -0.5000 
     85 CA         -3.6794  -23.0658  -51.7508 C.3       15 UNK         0.1400 
     86 CB         -4.1508  -21.6729  -51.3159 C.3       15 UNK        -0.1800 
     87 C          -4.8796  -24.0335  -51.7920 C.2       15 UNK         0.5000 
     88 O          -5.7223  -23.8956  -52.6817 O.2       15 UNK        -0.5000 
     89 N          -4.9653  -24.9498  -50.8155 N.am      16 UNK        -0.5000 
     90 CA         -6.0488  -25.9100  -50.5805 C.3       16 UNK         0.1400 
     91 CB         -6.1018  -26.9607  -51.7084 C.3       16 UNK        -0.1800 
     92 C          -7.3953  -25.1937  -50.3617 C.2       16 UNK         0.5000 
     93 O          -8.3629  -25.4522  -51.0766 O.2       16 UNK        -0.5000 
     94 N          -7.3990  -24.2343  -49.4250 N.am      17 UNK        -0.5000 
     95 CA         -8.4975  -23.3085  -49.1131 C.3       17 UNK         0.1400 
     96 CB         -9.6801  -24.0630  -48.4717 C.3       17 UNK        -0.1800 
     97 C          -8.9190  -22.4464  -50.3261 C.2       17 UNK         0.5000 
     98 O         -10.0934  -22.1036  -50.4683 O.2       17 UNK        -0.5000 
     99 N          -7.9362  -22.1405  -51.1862 N.am      18 UNK        -0.5000 
    100 CA        -8.0311  -21.4341  -52.4672 C.3       18 UNK         0.1400 
    101 CB        -8.5919  -20.0084  -52.2866 C.3       18 UNK        -0.1800 
    102 C         -8.7504  -22.2248  -53.5812 C.2       18 UNK         0.5000 
    103 O         -9.0558  -21.6408  -54.6221 O.2       18 UNK        -0.5000 
    104 N         -8.9832  -23.5322  -53.3838 N.am      19 UNK        -0.5000 
    105 CA        -9.5574  -24.4138  -54.4026 C.3       19 UNK         0.1400 
    106 CB       -10.1391  -25.6724  -53.7419 C.3       19 UNK        -0.1800 
    107 C         -8.5283  -24.7980  -55.4807 C.2       19 UNK         0.5000 
    108 O         -8.9011  -24.9315  -56.6471 O.2       19 UNK        -0.5000 
    109 N         -7.2600  -24.9586  -55.0780 N.am      20 UNK        -0.5000 
    110 CA        -6.1404  -25.2335  -55.9792 C.3       20 UNK         0.1400 
    111 CB        -5.1787  -26.2313  -55.3137 C.3       20 UNK        -0.1800 
    112 C         -5.4002  -23.9387  -56.3508 C.2       20 UNK         0.5000 
    113 O         -5.0020  -23.7842  -57.5062 O.2       20 UNK        -0.5000 
    114 N         -5.2459  -23.0442  -55.3613 N.am      21 UNK        -0.5000 
    115 CA        -4.4741  -21.7965  -55.3709 C.3       21 UNK         0.1400 
    116 CB        -4.9770  -20.8332  -56.4655 C.3       21 UNK        -0.1800 
    117 C         -2.9491  -22.0299  -55.4540 C.2       21 UNK         0.5000 
    118 O         -2.4908  -23.1502  -55.6900 O.2       21 UNK        -0.5000 
    119 N         -2.1815  -20.9618  -55.2194 N.am      22 UNK        -0.5000 
    120 CA        -0.7087  -20.9745  -55.2267 C.3       22 UNK         0.1400 
    121 C         -0.0686  -19.7111  -55.8717 C.2       22 UNK         0.5000 
    122 N         -0.8281  -18.8354  -56.5200 N.am      22 UNK        -0.7600 
    123 O          1.1443  -19.5299  -55.8112 O.2       22 UNK        -0.5000 
    124 C124       -0.1062  -21.3523  -53.8431 C.3       23 UNK        -0.0398 
    125 S125       -0.6350  -20.2940  -52.4491 S.3       23 UNK        -0.2404 
    126 C126        0.6823  -19.0354  -52.4399 C.3       23 UNK        -0.0205 
    127 H127        7.3452  -13.9124  -45.4620 H         1 UNK         0.0600 
    128 H128        7.2969  -15.2307  -44.2871 H         1 UNK         0.0600 
    129 H129        6.9549  -13.5755  -43.7721 H         1 UNK         0.0600 
    130 H130        5.5309  -13.8894  -46.7803 H         1 UNK         0.3000 
    131 H131        3.0415  -15.1878  -45.9647 H         1 UNK         0.0600 
    132 H132        3.8023  -13.7462  -48.5543 H         1 UNK         0.0800 
    133 H133        2.2821  -14.5425  -48.3007 H         1 UNK         0.0800 
    134 H134        2.4068  -17.1409  -47.1596 H         1 UNK         0.0800 
    135 H135        3.2423  -18.3218  -48.1276 H         1 UNK         0.0800 
    136 H136        2.5343  -18.7828  -50.4506 H         1 UNK         0.1150 
    137 H137       -1.2912  -17.3020  -51.7040 H         1 UNK         0.1150 
    138 H138        0.4562  -15.9084  -48.0482 H         1 UNK         0.1150 
    139 H139       -1.5558  -14.9077  -48.7947 H         1 UNK         0.0800 
    140 H140       -1.9044  -14.9781  -50.5027 H         1 UNK         0.0800 
    141 H141       -3.5018  -17.4382  -47.0447 H         1 UNK         0.0800 
    142 H142       -1.8466  -17.1560  -47.4509 H         1 UNK         0.0800 
    143 H143       -2.3896  -19.0972  -49.3274 H         1 UNK         0.0600 
    144 H144       -1.0489  -19.1450  -46.8224 H         1 UNK         0.3000 
    145 H145        0.1194  -22.4603  -46.9512 H         1 UNK         0.0600 
    146 H146        2.4048  -21.4786  -47.0880 H         1 UNK         0.0600 
    147 H147        1.6464  -21.5237  -48.6743 H         1 UNK         0.0600 
    148 H148        1.7322  -20.0091  -47.7915 H         1 UNK         0.0600 
    149 H149        0.9912  -20.2451  -45.4091 H         1 UNK         0.3000 
    150 H150       -1.7186  -19.9603  -43.1596 H         1 UNK         0.0600 
    151 H151       -0.7413  -22.0903  -42.2744 H         1 UNK         0.0600 
    152 H152       -0.1565  -20.6974  -41.3785 H         1 UNK         0.0600 
    153 H153        0.8818  -21.4783  -42.5720 H         1 UNK         0.0600 
    154 H154        0.9461  -19.0237  -42.9328 H         1 UNK         0.3000 
    155 H155        1.0350  -16.5434  -45.3648 H         1 UNK         0.0600 
    156 H156        0.4008  -15.9635  -42.4328 H         1 UNK         0.0600 
    157 H157       -0.4060  -15.2685  -43.8346 H         1 UNK         0.0600 
    158 H158        1.2804  -14.8865  -43.5195 H         1 UNK         0.0600 
    159 H159        2.7382  -16.7948  -43.1694 H         1 UNK         0.3000 
    160 H160        4.5811  -19.5844  -43.8541 H         1 UNK         0.0600 
    161 H161        6.4811  -18.2526  -44.8867 H         1 UNK         0.0600 
    162 H162        5.2731  -17.1905  -45.6123 H         1 UNK         0.0600 
    163 H163        5.3133  -18.8874  -46.0354 H         1 UNK         0.0600 
    164 H164        4.9906  -16.7412  -43.0166 H         1 UNK         0.3000 
    165 H165        4.7647  -17.6831  -39.5885 H         1 UNK         0.0600 
    166 H166        7.0995  -16.9457  -39.3158 H         1 UNK         0.0600 
    167 H167        7.0759  -18.5179  -40.0951 H         1 UNK         0.0600 
    168 H168        7.3830  -17.0741  -41.0527 H         1 UNK         0.0600 
    169 H169        5.7190  -15.2705  -40.3370 H         1 UNK         0.3000 
    170 H170        3.6540  -13.7180  -39.4896 H         1 UNK         0.0600 
    171 H171        5.7838  -13.3511  -40.7201 H         1 UNK         0.0600 
    172 H172        4.8914  -13.0959  -42.2157 H         1 UNK         0.0600 
    173 H173        4.7218  -11.9694  -40.8814 H         1 UNK         0.0600 
    174 H174        2.4749  -12.7294  -41.9348 H         1 UNK         0.3000 
    175 H175       -0.2978  -13.4322  -42.0116 H         1 UNK         0.0600 
    176 H176       -0.9964  -11.9147  -39.4479 H         1 UNK         0.0600 
    177 H177       -2.0534  -12.0836  -40.8489 H         1 UNK         0.0600 
    178 H178       -1.5865  -13.5002  -39.9239 H         1 UNK         0.0600 
    179 H179        0.2886  -11.5011  -42.9050 H         1 UNK         0.3000 
    180 H180        0.4129   -8.5799  -42.3588 H         1 UNK         0.0600 
    181 H181        3.3396   -9.0284  -41.5719 H         1 UNK         0.0600 
    182 H182        2.1950   -7.9597  -40.7711 H         1 UNK         0.0600 
    183 H183        2.7228   -7.6024  -42.4054 H         1 UNK         0.0600 
    184 H184        1.0654   -9.1707  -44.3837 H         1 UNK         0.3000 
    185 H185        1.7684  -10.5569  -46.0824 H         1 UNK         0.0600 
    186 H186        3.2352   -8.5478  -45.8276 H         1 UNK         0.0600 
    187 H187        4.6370   -9.5804  -45.5779 H         1 UNK         0.0600 
    188 H188        3.8078   -9.5702  -47.1347 H         1 UNK         0.0600 
    189 H189        4.3290  -11.9436  -46.0822 H         1 UNK         0.3000 
    190 H190       -3.0869  -20.8587  -46.4871 H         1 UNK         0.3000 
    191 H191       -5.8082  -21.5759  -47.5132 H         1 UNK         0.0600 
    192 H192       -4.6643  -21.8433  -44.6808 H         1 UNK         0.0600 
    193 H193       -6.2307  -22.4412  -45.2178 H         1 UNK         0.0600 
    194 H194       -5.9140  -20.7132  -45.1943 H         1 UNK         0.0600 
    195 H195       -2.7997  -22.8609  -45.9639 H         1 UNK         0.3000 
    196 H196       -3.5299  -25.5581  -46.3049 H         1 UNK         0.0600 
    197 H197       -1.2191  -26.0095  -45.4889 H         1 UNK         0.0600 
    198 H198       -2.0095  -24.7651  -44.5336 H         1 UNK         0.0600 
    199 H199       -0.7908  -24.3199  -45.7237 H         1 UNK         0.0600 
    200 H200       -1.2047  -23.5930  -48.2467 H         1 UNK         0.3000 
    201 H201       -0.5464  -25.8836  -49.9703 H         1 UNK         0.0600 
    202 H202        1.2019  -24.1944  -49.2747 H         1 UNK         0.0600 
    203 H203        0.3417  -22.9603  -50.1981 H         1 UNK         0.0600 
    204 H204        1.0334  -24.3477  -51.0170 H         1 UNK         0.0600 
    205 H205       -2.4714  -22.9240  -50.0145 H         1 UNK         0.3000 
    206 H206       -3.2641  -23.0015  -52.7565 H         1 UNK         0.0600 
    207 H207       -3.3155  -20.9807  -51.2099 H         1 UNK         0.0600 
    208 H208       -4.8369  -21.2386  -52.0406 H         1 UNK         0.0600 
    209 H209       -4.6701  -21.7185  -50.3587 H         1 UNK         0.0600 
    210 H210       -4.2448  -24.9367  -50.1068 H         1 UNK         0.3000 
    211 H211       -5.8112  -26.4279  -49.6501 H         1 UNK         0.0600 
    212 H212       -6.8119  -27.7523  -51.4672 H         1 UNK         0.0600 
    213 H213       -5.1291  -27.4288  -51.8588 H         1 UNK         0.0600 
    214 H214       -6.4148  -26.5244  -52.6563 H         1 UNK         0.0600 
    215 H215       -6.5401  -24.0978  -48.8919 H         1 UNK         0.3000 
    216 H216       -8.1079  -22.6128  -48.3687 H         1 UNK         0.0600 
    217 H217      -10.4384  -23.3676  -48.1100 H         1 UNK         0.0600 
    218 H218       -9.3521  -24.6559  -47.6179 H         1 UNK         0.0600 
    219 H219      -10.1648  -24.7348  -49.1807 H         1 UNK         0.0600 
    220 H220       -7.0246  -22.5220  -50.9815 H         1 UNK         0.3000 
    221 H221       -7.0057  -21.3278  -52.8195 H         1 UNK         0.0600 
    222 H222       -9.6510  -20.0167  -52.0288 H         1 UNK         0.0600 
    223 H223       -8.0579  -19.4712  -51.5027 H         1 UNK         0.0600 
    224 H224       -8.4868  -19.4278  -53.2038 H         1 UNK         0.0600 
    225 H225       -8.7097  -23.9662  -52.5089 H         1 UNK         0.3000 
    226 H226      -10.3791  -23.8871  -54.8928 H         1 UNK         0.0600 
    227 H227      -10.8275  -25.4166  -52.9362 H         1 UNK         0.0600 
    228 H228      -10.6927  -26.2690  -54.4679 H         1 UNK         0.0600 
    229 H229       -9.3578  -26.3105  -53.3282 H         1 UNK         0.0600 
    230 H230       -7.0307  -24.7908  -54.1055 H         1 UNK         0.3000 
    231 H231       -6.5038  -25.6905  -56.9021 H         1 UNK         0.0600 
    232 H232       -5.6872  -27.1625  -55.0638 H         1 UNK         0.0600 
    233 H233       -4.7423  -25.8299  -54.3987 H         1 UNK         0.0600 
    234 H234       -4.3546  -26.4802  -55.9835 H         1 UNK         0.0600 
    235 H235       -5.5731  -23.3280  -54.4425 H         1 UNK         0.3000 
    236 H236       -4.6682  -21.3274  -54.4065 H         1 UNK         0.0600 
    237 H237       -4.7101  -21.1750  -57.4657 H         1 UNK         0.0600 
    238 H238       -6.0612  -20.7247  -56.4259 H         1 UNK         0.0600 
    239 H239       -4.5502  -19.8379  -56.3403 H         1 UNK         0.0600 
    240 H240       -2.6071  -20.0782  -54.9797 H         1 UNK         0.3000 
    241 H241       -0.3949  -21.7617  -55.9148 H         1 UNK         0.0600 
    242 H242       -1.8140  -18.9886  -56.6526 H         1 UNK         0.3800 
    243 H243       -0.3923  -18.0287  -56.9395 H         1 UNK         0.3800 
    244 H244       -0.4090  -22.3711  -53.5968 H         1 UNK         0.0800 
    245 H245        0.9834  -21.3855  -53.8879 H         1 UNK         0.0800 
    246 H246        1.6532  -19.5284  -52.5070 H         1 UNK         0.0800 
    247 H247        0.5915  -18.4055  -53.3250 H         1 UNK         0.0800 
@<TRIPOS>BOND
     1    1    2 1    
     2    1  127 1    
     3    1  128 1    
     4    1  129 1    
     5    2    3 2    
     6    2    4 am   BACKBONE|DICT|INTERRES
     7    4    5 1    
     8    4  130 1    
     9    5    6 1    
    10    5   65 1    
    11    5  131 1    
    12    6    7 1    
    13    6  132 1    
    14    6  133 1    
    15    7    8 1    
    16    8    9 1    
    17    8  134 1    
    18    8  135 1    
    19    9   10 ar   
    20    9   14 ar   
    21   10   11 ar   
    22   10  136 1    
    23   11   12 ar   
    24   11  126 1    
    25   12   13 ar   
    26   12  137 1    
    27   13   14 ar   
    28   13   15 1    
    29   14  138 1    
    30   15   16 1    
    31   15  139 1    
    32   15  140 1    
    33   16   17 1    
    34   17   18 1    
    35   17  141 1    
    36   17  142 1    
    37   18   19 1    
    38   18   67 1    
    39   18  143 1    
    40   19   20 am   BACKBONE|DICT|INTERRES
    41   19  144 1    
    42   20   21 2    
    43   20   22 1    
    44   22   23 1    
    45   22   24 1    
    46   22  145 1    
    47   23  146 1    
    48   23  147 1    
    49   23  148 1    
    50   24   25 am   BACKBONE|DICT|INTERRES
    51   24  149 1    
    52   25   26 2    
    53   25   27 1    
    54   27   28 1    
    55   27   29 1    
    56   27  150 1    
    57   28  151 1    
    58   28  152 1    
    59   28  153 1    
    60   29   30 am   BACKBONE|DICT|INTERRES
    61   29  154 1    
    62   30   31 2    
    63   30   32 1    
    64   32   33 1    
    65   32   34 1    
    66   32  155 1    
    67   33  156 1    
    68   33  157 1    
    69   33  158 1    
    70   34   35 am   BACKBONE|DICT|INTERRES
    71   34  159 1    
    72   35   36 2    
    73   35   37 1    
    74   37   38 1    
    75   37   39 1    
    76   37  160 1    
    77   38  161 1    
    78   38  162 1    
    79   38  163 1    
    80   39   40 am   BACKBONE|DICT|INTERRES
    81   39  164 1    
    82   40   41 2    
    83   40   42 1    
    84   42   43 1    
    85   42   44 1    
    86   42  165 1    
    87   43  166 1    
    88   43  167 1    
    89   43  168 1    
    90   44   45 am   BACKBONE|DICT|INTERRES
    91   44  169 1    
    92   45   46 2    
    93   45   47 1    
    94   47   48 1    
    95   47   49 1    
    96   47  170 1    
    97   48  171 1    
    98   48  172 1    
    99   48  173 1    
   100   49   50 am   BACKBONE|DICT|INTERRES
   101   49  174 1    
   102   50   51 2    
   103   50   52 1    
   104   52   53 1    
   105   52   54 1    
   106   52  175 1    
   107   53  176 1    
   108   53  177 1    
   109   53  178 1    
   110   54   55 am   BACKBONE|DICT|INTERRES
   111   54  179 1    
   112   55   56 2    
   113   55   57 1    
   114   57   58 1    
   115   57   59 1    
   116   57  180 1    
   117   58  181 1    
   118   58  182 1    
   119   58  183 1    
   120   59   60 am   BACKBONE|DICT|INTERRES
   121   59  184 1    
   122   60   61 2    
   123   60   62 1    
   124   62   63 1    
   125   62   64 1    
   126   62  185 1    
   127   63  186 1    
   128   63  187 1    
   129   63  188 1    
   130   64   65 am   BACKBONE|DICT|INTERRES
   131   64  189 1    
   132   65   66 2    
   133   67   68 2    
   134   67   69 am   BACKBONE|DICT|INTERRES
   135   69   70 1    
   136   69  190 1    
   137   70   71 1    
   138   70   72 1    
   139   70  191 1    
   140   71  192 1    
   141   71  193 1    
   142   71  194 1    
   143   72   73 2    
   144   72   74 am   BACKBONE|DICT|INTERRES
   145   74   75 1    
   146   74  195 1    
   147   75   76 1    
   148   75   77 1    
   149   75  196 1    
   150   76  197 1    
   151   76  198 1    
   152   76  199 1    
   153   77   78 2    
   154   77   79 am   BACKBONE|DICT|INTERRES
   155   79   80 1    
   156   79  200 1    
   157   80   81 1    
   158   80   82 1    
   159   80  201 1    
   160   81  202 1    
   161   81  203 1    
   162   81  204 1    
   163   82   83 2    
   164   82   84 am   BACKBONE|DICT|INTERRES
   165   84   85 1    
   166   84  205 1    
   167   85   86 1    
   168   85   87 1    
   169   85  206 1    
   170   86  207 1    
   171   86  208 1    
   172   86  209 1    
   173   87   88 2    
   174   87   89 am   BACKBONE|DICT|INTERRES
   175   89   90 1    
   176   89  210 1    
   177   90   91 1    
   178   90   92 1    
   179   90  211 1    
   180   91  212 1    
   181   91  213 1    
   182   91  214 1    
   183   92   93 2    
   184   92   94 am   BACKBONE|DICT|INTERRES
   185   94   95 1    
   186   94  215 1    
   187   95   96 1    
   188   95   97 1    
   189   95  216 1    
   190   96  217 1    
   191   96  218 1    
   192   96  219 1    
   193   97   98 2    
   194   97   99 am   BACKBONE|DICT|INTERRES
   195   99  100 1    
   196   99  220 1    
   197  100  101 1    
   198  100  102 1    
   199  100  221 1    
   200  101  222 1    
   201  101  223 1    
   202  101  224 1    
   203  102  103 2    
   204  102  104 am   BACKBONE|DICT|INTERRES
   205  104  105 1    
   206  104  225 1    
   207  105  106 1    
   208  105  107 1    
   209  105  226 1    
   210  106  227 1    
   211  106  228 1    
   212  106  229 1    
   213  107  108 2    
   214  107  109 am   BACKBONE|DICT|INTERRES
   215  109  110 1    
   216  109  230 1    
   217  110  111 1    
   218  110  112 1    
   219  110  231 1    
   220  111  232 1    
   221  111  233 1    
   222  111  234 1    
   223  112  113 2    
   224  112  114 am   BACKBONE|DICT|INTERRES
   225  114  115 1    
   226  114  235 1    
   227  115  116 1    
   228  115  117 1    
   229  115  236 1    
   230  116  237 1    
   231  116  238 1    
   232  116  239 1    
   233  117  118 2    
   234  117  119 am   BACKBONE|DICT|INTERRES
   235  119  120 1    
   236  119  240 1    
   237  120  121 1    
   238  120  124 1    
   239  120  241 1    
   240  121  122 am   BACKBONE|DICT|INTERRES
   241  121  123 2    
   242  122  242 1    
   243  122  243 1    
   244  124  125 1    
   245  124  244 1    
   246  124  245 1    
   247  125  126 1    
   248  126  246 1    
   249  126  247 1    
@<TRIPOS>SUBSTRUCTURE
     1 UNK         1 GROUP             0       ****    0 ROOT    
