@<TRIPOS>MOLECULE
3R540
247   249    1
SMALL
USER_CHARGES


@<TRIPOS>ATOM
      1 CA         -4.8612  -15.1947  -47.1458 C.3       0 UNK        -0.1800 
      2 C          -4.1670  -14.4506  -48.2792 C.2       0 UNK         0.5000 
      3 O          -4.7066  -13.4690  -48.7891 O.2       0 UNK        -0.5000 
      4 N          -2.9860  -14.9329  -48.6855 N.am      1 UNK        -0.5000 
      5 CA         -2.1818  -14.3871  -49.7819 C.3       1 UNK         0.1400 
      6 C6         -1.2408  -15.4771  -50.3589 C.3       23 UNK        -0.0398 
      7 S7         -0.1181  -14.9261  -51.6907 S.3       23 UNK        -0.2404 
      8 C8          1.5161  -15.2227  -50.9399 C.3       23 UNK        -0.0205 
      9 C9          1.8790  -16.7012  -50.9278 C.ar      23 UNK        -0.0193 
     10 C10         2.4226  -17.2915  -52.0699 C.ar      23 UNK        -0.1150 
     11 C11         2.7559  -18.6475  -52.0789 C.ar      23 UNK        -0.0193 
     12 C12         2.5532  -19.4131  -50.9271 C.ar      23 UNK        -0.1150 
     13 C13         2.0264  -18.8348  -49.7630 C.ar      23 UNK        -0.0193 
     14 C14         1.6925  -17.4762  -49.7788 C.ar      23 UNK        -0.1150 
     15 C15         1.7966  -19.6180  -48.4669 C.3       23 UNK        -0.0205 
     16 S16         2.6118  -21.2474  -48.3552 S.3       23 UNK        -0.2404 
     17 C17         1.4744  -22.3363  -49.2911 C.3       23 UNK        -0.0398 
     18 CA          0.6287  -23.2864  -48.4018 C.3       11 UNK         0.1400 
     19 N           1.4271  -23.9193  -47.3483 N.am      11 UNK        -0.5000 
     20 C           1.0259  -24.9237  -46.5592 C.2       10 UNK         0.5000 
     21 O          -0.0653  -25.4830  -46.6649 O.2       10 UNK        -0.5000 
     22 CA          1.9906  -25.3331  -45.4267 C.3       10 UNK         0.1400 
     23 CB          2.9691  -26.4080  -45.9222 C.3       10 UNK        -0.1800 
     24 N           2.7514  -24.2191  -44.8440 N.am      10 UNK        -0.5000 
     25 C           2.2200  -23.1080  -44.3144 C.2       9 UNK         0.5000 
     26 O           1.0084  -22.8783  -44.3038 O.2       9 UNK        -0.5000 
     27 CA          3.2112  -22.0736  -43.7452 C.3       9 UNK         0.1400 
     28 CB          4.0904  -21.4744  -44.8550 C.3       9 UNK        -0.1800 
     29 N           2.5187  -20.9718  -43.0809 N.am      9 UNK        -0.5000 
     30 C           2.0030  -20.9993  -41.8459 C.2       8 UNK         0.5000 
     31 O           2.1098  -21.9623  -41.0840 O.2       8 UNK        -0.5000 
     32 CA          1.2365  -19.7322  -41.4017 C.3       8 UNK         0.1400 
     33 CB          1.2079  -19.5458  -39.8704 C.3       8 UNK        -0.1800 
     34 N           1.6881  -18.5072  -42.0789 N.am      8 UNK        -0.5000 
     35 C           2.8999  -17.9309  -42.0039 C.2       7 UNK         0.5000 
     36 O           3.8038  -18.3454  -41.2772 O.2       7 UNK        -0.5000 
     37 CA          3.1765  -16.7130  -42.9132 C.3       7 UNK         0.1400 
     38 CB          4.4594  -16.9277  -43.7360 C.3       7 UNK        -0.1800 
     39 N           2.0819  -16.4424  -43.8468 N.am      7 UNK        -0.5000 
     40 C           1.1206  -15.5266  -43.6775 C.2       6 UNK         0.5000 
     41 O           1.0623  -14.7616  -42.7142 O.2       6 UNK        -0.5000 
     42 CA          0.0237  -15.4586  -44.7645 C.3       6 UNK         0.1400 
     43 CB          0.3261  -16.2929  -46.0303 C.3       6 UNK        -0.1800 
     44 N          -1.3049  -15.8050  -44.2519 N.am      6 UNK        -0.5000 
     45 C          -1.6492  -16.8735  -43.5160 C.2       5 UNK         0.5000 
     46 O          -0.8487  -17.7422  -43.1694 O.2       5 UNK        -0.5000 
     47 CA         -3.1404  -17.0214  -43.1342 C.3       5 UNK         0.1400 
     48 CB         -3.3375  -17.7328  -41.7792 C.3       5 UNK        -0.1800 
     49 N          -3.9013  -15.7659  -43.2004 N.am      5 UNK        -0.5000 
     50 C          -3.7426  -14.6735  -42.4388 C.2       4 UNK         0.5000 
     51 O          -2.9708  -14.5941  -41.4817 O.2       4 UNK        -0.5000 
     52 CA         -4.5358  -13.4259  -42.8814 C.3       4 UNK         0.1400 
     53 CB         -5.3019  -12.7990  -41.7053 C.3       4 UNK        -0.1800 
     54 N          -3.6482  -12.4195  -43.4711 N.am      4 UNK        -0.5000 
     55 C          -2.8764  -12.6220  -44.5465 C.2       3 UNK         0.5000 
     56 O          -2.9082  -13.6584  -45.2187 O.2       3 UNK        -0.5000 
     57 CA         -1.8722  -11.5181  -44.9136 C.3       3 UNK         0.1400 
     58 CB         -0.8718  -11.2837  -43.7612 C.3       3 UNK        -0.1800 
     59 N          -1.1747  -11.9724  -46.1110 N.am      3 UNK        -0.5000 
     60 C          -0.2763  -11.3175  -46.8495 C.2       2 UNK         0.5000 
     61 O           0.0570  -10.1481  -46.6552 O.2       2 UNK        -0.5000 
     62 CA          0.3777  -12.1193  -47.9905 C.3       2 UNK         0.1400 
     63 CB          1.7378  -12.6723  -47.5333 C.3       2 UNK        -0.1800 
     64 N          -0.4524  -13.2336  -48.4636 N.am      2 UNK        -0.5000 
     65 C          -1.4619  -13.0945  -49.3356 C.2       1 UNK         0.5000 
     66 O          -1.8276  -12.0068  -49.7841 O.2       1 UNK        -0.5000 
     67 C          -0.6351  -22.5832  -47.8603 C.2       11 UNK         0.5000 
     68 O          -1.6776  -22.6137  -48.5169 O.2       11 UNK        -0.5000 
     69 N          -0.5261  -21.9779  -46.6704 N.am      12 UNK        -0.5000 
     70 CA         -1.6388  -21.3467  -45.9679 C.3       12 UNK         0.1400 
     71 CB         -1.1059  -20.2810  -45.0053 C.3       12 UNK        -0.1800 
     72 C          -2.4891  -22.3833  -45.2188 C.2       12 UNK         0.5000 
     73 O          -3.7155  -22.2844  -45.2370 O.2       12 UNK        -0.5000 
     74 N          -1.8267  -23.3747  -44.6039 N.am      13 UNK        -0.5000 
     75 CA         -2.4515  -24.4763  -43.8658 C.3       13 UNK         0.1400 
     76 CB         -1.3636  -25.3371  -43.2092 C.3       13 UNK        -0.1800 
     77 C          -3.3794  -25.3465  -44.7352 C.2       13 UNK         0.5000 
     78 O          -4.3975  -25.8305  -44.2389 O.2       13 UNK        -0.5000 
     79 N          -3.0544  -25.4767  -46.0288 N.am      14 UNK        -0.5000 
     80 CA         -3.8669  -26.1092  -47.0713 C.3       14 UNK         0.1400 
     81 CB         -2.9490  -26.4466  -48.2601 C.3       14 UNK        -0.1800 
     82 C          -5.0803  -25.2446  -47.4925 C.2       14 UNK         0.5000 
     83 O          -5.2788  -24.9962  -48.6836 O.2       14 UNK        -0.5000 
     84 N          -5.8531  -24.7696  -46.5029 N.am      15 UNK        -0.5000 
     85 CA         -7.0640  -23.9403  -46.6049 C.3       15 UNK         0.1400 
     86 CB         -8.2279  -24.7869  -47.1598 C.3       15 UNK        -0.1800 
     87 C          -6.8720  -22.6254  -47.3960 C.2       15 UNK         0.5000 
     88 O          -7.8309  -22.1097  -47.9723 O.2       15 UNK        -0.5000 
     89 N          -5.6237  -22.1378  -47.4471 N.am      16 UNK        -0.5000 
     90 CA         -5.1056  -21.0480  -48.2798 C.3       16 UNK         0.1400 
     91 CB         -5.6742  -19.6898  -47.8233 C.3       16 UNK        -0.1800 
     92 C          -5.2550  -21.2673  -49.8024 C.2       16 UNK         0.5000 
     93 O          -5.0179  -20.3318  -50.5659 O.2       16 UNK        -0.5000 
     94 N          -5.6066  -22.4852  -50.2398 N.am      17 UNK        -0.5000 
     95 CA         -5.8204  -22.8241  -51.6463 C.3       17 UNK         0.1400 
     96 CB         -6.5678  -24.1620  -51.7478 C.3       17 UNK        -0.1800 
     97 C          -4.4971  -22.8711  -52.4222 C.2       17 UNK         0.5000 
     98 O          -4.4146  -22.3347  -53.5265 O.2       17 UNK        -0.5000 
     99 N          -3.4692  -23.4642  -51.8015 N.am      18 UNK        -0.5000 
    100 CA        -2.1073  -23.5053  -52.3310 C.3       18 UNK         0.1400 
    101 CB        -1.2996  -24.5618  -51.5668 C.3       18 UNK        -0.1800 
    102 C         -1.4174  -22.1279  -52.2995 C.2       18 UNK         0.5000 
    103 O         -0.5881  -21.8554  -53.1645 O.2       18 UNK        -0.5000 
    104 N         -1.7943  -21.2755  -51.3348 N.am      19 UNK        -0.5000 
    105 CA        -1.3738  -19.8764  -51.2585 C.3       19 UNK         0.1400 
    106 CB        -1.7304  -19.3008  -49.8771 C.3       19 UNK        -0.1800 
    107 C         -2.0030  -19.0390  -52.3864 C.2       19 UNK         0.5000 
    108 O         -1.2938  -18.2974  -53.0629 O.2       19 UNK        -0.5000 
    109 N         -3.3185  -19.1993  -52.5955 N.am      20 UNK        -0.5000 
    110 CA        -4.0811  -18.5421  -53.6594 C.3       20 UNK         0.1400 
    111 CB        -5.5779  -18.8285  -53.4698 C.3       20 UNK        -0.1800 
    112 C         -3.6239  -18.9490  -55.0727 C.2       20 UNK         0.5000 
    113 O         -3.5932  -18.1019  -55.9669 O.2       20 UNK        -0.5000 
    114 N         -3.2287  -20.2200  -55.2394 N.am      21 UNK        -0.5000 
    115 CA        -2.6826  -20.7843  -56.4777 C.3       21 UNK         0.1400 
    116 CB        -2.4761  -22.2962  -56.3005 C.3       21 UNK        -0.1800 
    117 C         -1.3801  -20.1141  -56.9645 C.2       21 UNK         0.5000 
    118 O         -1.0776  -20.1933  -58.1561 O.2       21 UNK        -0.5000 
    119 N         -0.6512  -19.4477  -56.0595 N.am      22 UNK        -0.5000 
    120 CA         0.5043  -18.5967  -56.3832 C.3       22 UNK         0.1400 
    121 C          0.1271  -17.2334  -57.0394 C.2       22 UNK         0.5000 
    122 N         -1.1373  -16.8266  -57.0827 N.am      22 UNK        -0.7600 
    123 O          1.0048  -16.5308  -57.5334 O.2       22 UNK        -0.5000 
    124 C124        1.4193  -18.3700  -55.1542 C.3       23 UNK        -0.0398 
    125 S125        2.0765  -19.9207  -54.4518 S.3       23 UNK        -0.2404 
    126 C126        3.3555  -19.2821  -53.3255 C.3       23 UNK        -0.0205 
    127 H127       -4.1821  -15.8797  -46.6374 H         1 UNK         0.0600 
    128 H128       -5.7023  -15.7693  -47.5336 H         1 UNK         0.0600 
    129 H129       -5.2415  -14.4874  -46.4088 H         1 UNK         0.0600 
    130 H130       -2.6078  -15.7412  -48.2152 H         1 UNK         0.3000 
    131 H131       -2.8627  -14.1040  -50.5880 H         1 UNK         0.0600 
    132 H132       -0.6594  -15.9287  -49.5570 H         1 UNK         0.0800 
    133 H133       -1.8471  -16.2835  -50.7728 H         1 UNK         0.0800 
    134 H134        1.5425  -14.8121  -49.9309 H         1 UNK         0.0800 
    135 H135        2.2663  -14.6709  -51.5082 H         1 UNK         0.0800 
    136 H136        2.5795  -16.6931  -52.9561 H         1 UNK         0.1150 
    137 H137        2.8177  -20.4592  -50.9523 H         1 UNK         0.1150 
    138 H138        1.2903  -17.0198  -48.8862 H         1 UNK         0.1150 
    139 H139        2.1693  -19.0189  -47.6348 H         1 UNK         0.0800 
    140 H140        0.7279  -19.7359  -48.2953 H         1 UNK         0.0800 
    141 H141        2.0942  -22.9398  -49.9554 H         1 UNK         0.0800 
    142 H142        0.8422  -21.7427  -49.9539 H         1 UNK         0.0800 
    143 H143        0.2781  -24.0977  -49.0394 H         1 UNK         0.0600 
    144 H144        2.3345  -23.5085  -47.1814 H         1 UNK         0.3000 
    145 H145        1.3925  -25.7682  -44.6257 H         1 UNK         0.0600 
    146 H146        3.5884  -26.7844  -45.1078 H         1 UNK         0.0600 
    147 H147        2.4333  -27.2610  -46.3411 H         1 UNK         0.0600 
    148 H148        3.6314  -26.0227  -46.6985 H         1 UNK         0.0600 
    149 H149        3.7548  -24.3314  -44.8250 H         1 UNK         0.3000 
    150 H150        3.8525  -22.5817  -43.0221 H         1 UNK         0.0600 
    151 H151        4.6348  -22.2449  -45.4018 H         1 UNK         0.0600 
    152 H152        4.8326  -20.7927  -44.4390 H         1 UNK         0.0600 
    153 H153        3.4964  -20.9138  -45.5765 H         1 UNK         0.0600 
    154 H154        2.3493  -20.1492  -43.6381 H         1 UNK         0.3000 
    155 H155        0.2063  -19.8858  -41.7260 H         1 UNK         0.0600 
    156 H156        2.2108  -19.4630  -39.4513 H         1 UNK         0.0600 
    157 H157        0.7203  -20.3909  -39.3833 H         1 UNK         0.0600 
    158 H158        0.6521  -18.6497  -39.5941 H         1 UNK         0.0600 
    159 H159        0.9781  -18.0716  -42.6626 H         1 UNK         0.3000 
    160 H160        3.3331  -15.8523  -42.2599 H         1 UNK         0.0600 
    161 H161        4.3846  -17.8068  -44.3775 H         1 UNK         0.0600 
    162 H162        5.3257  -17.0670  -43.0880 H         1 UNK         0.0600 
    163 H163        4.6693  -16.0663  -44.3704 H         1 UNK         0.0600 
    164 H164        2.0370  -17.0347  -44.6626 H         1 UNK         0.3000 
    165 H165       -0.0293  -14.4123  -45.0658 H         1 UNK         0.0600 
    166 H166        0.3745  -17.3601  -45.8155 H         1 UNK         0.0600 
    167 H167       -0.4480  -16.1490  -46.7834 H         1 UNK         0.0600 
    168 H168        1.2735  -15.9977  -46.4833 H         1 UNK         0.0600 
    169 H169       -2.0354  -15.1367  -44.4806 H         1 UNK         0.3000 
    170 H170       -3.5718  -17.6667  -43.9006 H         1 UNK         0.0600 
    171 H171       -2.9202  -18.7403  -41.8031 H         1 UNK         0.0600 
    172 H172       -2.8472  -17.1993  -40.9647 H         1 UNK         0.0600 
    173 H173       -4.3949  -17.8273  -41.5323 H         1 UNK         0.0600 
    174 H174       -4.5398  -15.6990  -43.9806 H         1 UNK         0.3000 
    175 H175       -5.2650  -13.7184  -43.6401 H         1 UNK         0.0600 
    176 H176       -4.6264  -12.4377  -40.9287 H         1 UNK         0.0600 
    177 H177       -5.9130  -11.9588  -42.0356 H         1 UNK         0.0600 
    178 H178       -5.9718  -13.5265  -41.2452 H         1 UNK         0.0600 
    179 H179       -3.5498  -11.5573  -42.9554 H         1 UNK         0.3000 
    180 H180       -2.4185  -10.6007  -45.1390 H         1 UNK         0.0600 
    181 H181       -0.3242  -12.1947  -43.5152 H         1 UNK         0.0600 
    182 H182       -1.3789  -10.9520  -42.8548 H         1 UNK         0.0600 
    183 H183       -0.1418  -10.5140  -44.0098 H         1 UNK         0.0600 
    184 H184       -1.4518  -12.9064  -46.3877 H         1 UNK         0.3000 
    185 H185        0.5556  -11.4298  -48.8188 H         1 UNK         0.0600 
    186 H186        2.2628  -13.1622  -48.3527 H         1 UNK         0.0600 
    187 H187        2.3839  -11.8699  -47.1747 H         1 UNK         0.0600 
    188 H188        1.6318  -13.3922  -46.7215 H         1 UNK         0.0600 
    189 H189       -0.2115  -14.1519  -48.1271 H         1 UNK         0.3000 
    190 H190        0.3386  -22.0672  -46.1521 H         1 UNK         0.3000 
    191 H191       -2.2762  -20.8403  -46.6932 H         1 UNK         0.0600 
    192 H192       -1.9325  -19.7816  -44.5000 H         1 UNK         0.0600 
    193 H193       -0.5379  -19.5193  -45.5374 H         1 UNK         0.0600 
    194 H194       -0.4618  -20.7032  -44.2344 H         1 UNK         0.0600 
    195 H195       -0.8108  -23.3411  -44.6002 H         1 UNK         0.3000 
    196 H196       -3.0590  -24.0323  -43.0747 H         1 UNK         0.0600 
    197 H197       -0.7876  -25.8854  -43.9534 H         1 UNK         0.0600 
    198 H198       -0.6725  -24.7304  -42.6234 H         1 UNK         0.0600 
    199 H199       -1.8058  -26.0721  -42.5356 H         1 UNK         0.0600 
    200 H200       -2.1703  -25.0855  -46.3323 H         1 UNK         0.3000 
    201 H201       -4.2647  -27.0469  -46.6788 H         1 UNK         0.0600 
    202 H202       -2.5089  -25.5462  -48.6895 H         1 UNK         0.0600 
    203 H203       -3.4969  -26.9590  -49.0518 H         1 UNK         0.0600 
    204 H204       -2.1334  -27.1022  -47.9545 H         1 UNK         0.0600 
    205 H205       -5.5756  -25.0223  -45.5588 H         1 UNK         0.3000 
    206 H206       -7.3200  -23.6458  -45.5863 H         1 UNK         0.0600 
    207 H207       -8.3612  -25.7012  -46.5817 H         1 UNK         0.0600 
    208 H208       -9.1701  -24.2394  -47.1171 H         1 UNK         0.0600 
    209 H209       -8.0591  -25.0693  -48.1997 H         1 UNK         0.0600 
    210 H210       -4.9291  -22.5948  -46.8659 H         1 UNK         0.3000 
    211 H211       -4.0315  -21.0284  -48.1036 H         1 UNK         0.0600 
    212 H212       -5.1876  -18.8638  -48.3435 H         1 UNK         0.0600 
    213 H213       -5.5153  -19.5363  -46.7559 H         1 UNK         0.0600 
    214 H214       -6.7440  -19.6134  -48.0189 H         1 UNK         0.0600 
    215 H215       -5.7177  -23.2383  -49.5682 H         1 UNK         0.3000 
    216 H216       -6.4471  -22.0502  -52.0948 H         1 UNK         0.0600 
    217 H217       -5.9874  -24.9840  -51.3273 H         1 UNK         0.0600 
    218 H218       -6.7818  -24.4100  -52.7881 H         1 UNK         0.0600 
    219 H219       -7.5204  -24.1215  -51.2192 H         1 UNK         0.0600 
    220 H220       -3.6229  -23.8676  -50.8880 H         1 UNK         0.3000 
    221 H221       -2.1558  -23.8159  -53.3769 H         1 UNK         0.0600 
    222 H222       -1.6674  -25.5651  -51.7824 H         1 UNK         0.0600 
    223 H223       -1.3713  -24.4107  -50.4925 H         1 UNK         0.0600 
    224 H224       -0.2444  -24.5345  -51.8423 H         1 UNK         0.0600 
    225 H225       -2.4526  -21.5962  -50.6397 H         1 UNK         0.3000 
    226 H226       -0.2888  -19.8432  -51.3750 H         1 UNK         0.0600 
    227 H227       -2.7994  -19.1201  -49.7676 H         1 UNK         0.0600 
    228 H228       -1.4276  -19.9689  -49.0738 H         1 UNK         0.0600 
    229 H229       -1.2205  -18.3528  -49.7144 H         1 UNK         0.0600 
    230 H230       -3.8514  -19.7860  -51.9587 H         1 UNK         0.3000 
    231 H231       -3.9256  -17.4658  -53.5608 H         1 UNK         0.0600 
    232 H232       -5.7926  -19.8964  -53.5197 H         1 UNK         0.0600 
    233 H233       -6.1717  -18.3364  -54.2411 H         1 UNK         0.0600 
    234 H234       -5.9296  -18.4620  -52.5052 H         1 UNK         0.0600 
    235 H235       -3.3549  -20.8660  -54.4674 H         1 UNK         0.3000 
    236 H236       -3.4308  -20.6347  -57.2585 H         1 UNK         0.0600 
    237 H237       -3.4087  -22.7962  -56.0391 H         1 UNK         0.0600 
    238 H238       -2.1128  -22.7519  -57.2224 H         1 UNK         0.0600 
    239 H239       -1.7466  -22.5119  -55.5203 H         1 UNK         0.0600 
    240 H240       -0.9588  -19.4278  -55.0957 H         1 UNK         0.3000 
    241 H241        1.0985  -19.1263  -57.1303 H         1 UNK         0.0600 
    242 H242       -1.3545  -15.9443  -57.5179 H         1 UNK         0.3800 
    243 H243       -1.8869  -17.3806  -56.6814 H         1 UNK         0.3800 
    244 H244        0.8780  -17.8311  -54.3765 H         1 UNK         0.0800 
    245 H245        2.2690  -17.7418  -55.4273 H         1 UNK         0.0800 
    246 H246        4.0105  -20.1065  -53.0398 H         1 UNK         0.0800 
    247 H247        3.9879  -18.5646  -53.8506 H         1 UNK         0.0800 
@<TRIPOS>BOND
     1    1    2 1    
     2    1  127 1    
     3    1  128 1    
     4    1  129 1    
     5    2    3 2    
     6    2    4 am   BACKBONE|DICT|INTERRES
     7    4    5 1    
     8    4  130 1    
     9    5    6 1    
    10    5   65 1    
    11    5  131 1    
    12    6    7 1    
    13    6  132 1    
    14    6  133 1    
    15    7    8 1    
    16    8    9 1    
    17    8  134 1    
    18    8  135 1    
    19    9   10 ar   
    20    9   14 ar   
    21   10   11 ar   
    22   10  136 1    
    23   11   12 ar   
    24   11  126 1    
    25   12   13 ar   
    26   12  137 1    
    27   13   14 ar   
    28   13   15 1    
    29   14  138 1    
    30   15   16 1    
    31   15  139 1    
    32   15  140 1    
    33   16   17 1    
    34   17   18 1    
    35   17  141 1    
    36   17  142 1    
    37   18   19 1    
    38   18   67 1    
    39   18  143 1    
    40   19   20 am   BACKBONE|DICT|INTERRES
    41   19  144 1    
    42   20   21 2    
    43   20   22 1    
    44   22   23 1    
    45   22   24 1    
    46   22  145 1    
    47   23  146 1    
    48   23  147 1    
    49   23  148 1    
    50   24   25 am   BACKBONE|DICT|INTERRES
    51   24  149 1    
    52   25   26 2    
    53   25   27 1    
    54   27   28 1    
    55   27   29 1    
    56   27  150 1    
    57   28  151 1    
    58   28  152 1    
    59   28  153 1    
    60   29   30 am   BACKBONE|DICT|INTERRES
    61   29  154 1    
    62   30   31 2    
    63   30   32 1    
    64   32   33 1    
    65   32   34 1    
    66   32  155 1    
    67   33  156 1    
    68   33  157 1    
    69   33  158 1    
    70   34   35 am   BACKBONE|DICT|INTERRES
    71   34  159 1    
    72   35   36 2    
    73   35   37 1    
    74   37   38 1    
    75   37   39 1    
    76   37  160 1    
    77   38  161 1    
    78   38  162 1    
    79   38  163 1    
    80   39   40 am   BACKBONE|DICT|INTERRES
    81   39  164 1    
    82   40   41 2    
    83   40   42 1    
    84   42   43 1    
    85   42   44 1    
    86   42  165 1    
    87   43  166 1    
    88   43  167 1    
    89   43  168 1    
    90   44   45 am   BACKBONE|DICT|INTERRES
    91   44  169 1    
    92   45   46 2    
    93   45   47 1    
    94   47   48 1    
    95   47   49 1    
    96   47  170 1    
    97   48  171 1    
    98   48  172 1    
    99   48  173 1    
   100   49   50 am   BACKBONE|DICT|INTERRES
   101   49  174 1    
   102   50   51 2    
   103   50   52 1    
   104   52   53 1    
   105   52   54 1    
   106   52  175 1    
   107   53  176 1    
   108   53  177 1    
   109   53  178 1    
   110   54   55 am   BACKBONE|DICT|INTERRES
   111   54  179 1    
   112   55   56 2    
   113   55   57 1    
   114   57   58 1    
   115   57   59 1    
   116   57  180 1    
   117   58  181 1    
   118   58  182 1    
   119   58  183 1    
   120   59   60 am   BACKBONE|DICT|INTERRES
   121   59  184 1    
   122   60   61 2    
   123   60   62 1    
   124   62   63 1    
   125   62   64 1    
   126   62  185 1    
   127   63  186 1    
   128   63  187 1    
   129   63  188 1    
   130   64   65 am   BACKBONE|DICT|INTERRES
   131   64  189 1    
   132   65   66 2    
   133   67   68 2    
   134   67   69 am   BACKBONE|DICT|INTERRES
   135   69   70 1    
   136   69  190 1    
   137   70   71 1    
   138   70   72 1    
   139   70  191 1    
   140   71  192 1    
   141   71  193 1    
   142   71  194 1    
   143   72   73 2    
   144   72   74 am   BACKBONE|DICT|INTERRES
   145   74   75 1    
   146   74  195 1    
   147   75   76 1    
   148   75   77 1    
   149   75  196 1    
   150   76  197 1    
   151   76  198 1    
   152   76  199 1    
   153   77   78 2    
   154   77   79 am   BACKBONE|DICT|INTERRES
   155   79   80 1    
   156   79  200 1    
   157   80   81 1    
   158   80   82 1    
   159   80  201 1    
   160   81  202 1    
   161   81  203 1    
   162   81  204 1    
   163   82   83 2    
   164   82   84 am   BACKBONE|DICT|INTERRES
   165   84   85 1    
   166   84  205 1    
   167   85   86 1    
   168   85   87 1    
   169   85  206 1    
   170   86  207 1    
   171   86  208 1    
   172   86  209 1    
   173   87   88 2    
   174   87   89 am   BACKBONE|DICT|INTERRES
   175   89   90 1    
   176   89  210 1    
   177   90   91 1    
   178   90   92 1    
   179   90  211 1    
   180   91  212 1    
   181   91  213 1    
   182   91  214 1    
   183   92   93 2    
   184   92   94 am   BACKBONE|DICT|INTERRES
   185   94   95 1    
   186   94  215 1    
   187   95   96 1    
   188   95   97 1    
   189   95  216 1    
   190   96  217 1    
   191   96  218 1    
   192   96  219 1    
   193   97   98 2    
   194   97   99 am   BACKBONE|DICT|INTERRES
   195   99  100 1    
   196   99  220 1    
   197  100  101 1    
   198  100  102 1    
   199  100  221 1    
   200  101  222 1    
   201  101  223 1    
   202  101  224 1    
   203  102  103 2    
   204  102  104 am   BACKBONE|DICT|INTERRES
   205  104  105 1    
   206  104  225 1    
   207  105  106 1    
   208  105  107 1    
   209  105  226 1    
   210  106  227 1    
   211  106  228 1    
   212  106  229 1    
   213  107  108 2    
   214  107  109 am   BACKBONE|DICT|INTERRES
   215  109  110 1    
   216  109  230 1    
   217  110  111 1    
   218  110  112 1    
   219  110  231 1    
   220  111  232 1    
   221  111  233 1    
   222  111  234 1    
   223  112  113 2    
   224  112  114 am   BACKBONE|DICT|INTERRES
   225  114  115 1    
   226  114  235 1    
   227  115  116 1    
   228  115  117 1    
   229  115  236 1    
   230  116  237 1    
   231  116  238 1    
   232  116  239 1    
   233  117  118 2    
   234  117  119 am   BACKBONE|DICT|INTERRES
   235  119  120 1    
   236  119  240 1    
   237  120  121 1    
   238  120  124 1    
   239  120  241 1    
   240  121  122 am   BACKBONE|DICT|INTERRES
   241  121  123 2    
   242  122  242 1    
   243  122  243 1    
   244  124  125 1    
   245  124  244 1    
   246  124  245 1    
   247  125  126 1    
   248  126  246 1    
   249  126  247 1    
@<TRIPOS>SUBSTRUCTURE
     1 UNK         1 GROUP             0       ****    0 ROOT    
