@<TRIPOS>MOLECULE
3R540
247   249    1
SMALL
USER_CHARGES


@<TRIPOS>ATOM
      1 CA          5.6912  -13.0203  -50.1585 C.3       0 UNK        -0.1800 
      2 C           4.7294  -12.9275  -48.9828 C.2       0 UNK         0.5000 
      3 O           5.1167  -12.4703  -47.9065 O.2       0 UNK        -0.5000 
      4 N           3.4741  -13.3495  -49.1815 N.am      1 UNK        -0.5000 
      5 CA          2.4008  -13.3307  -48.1818 C.3       1 UNK         0.1400 
      6 C6          1.3508  -14.4357  -48.4673 C.3       23 UNK        -0.0398 
      7 S7          0.5268  -15.0048  -46.9442 S.3       23 UNK        -0.2404 
      8 C8         -1.1716  -14.3829  -47.1394 C.3       23 UNK        -0.0205 
      9 C9         -1.9320  -15.1315  -48.2230 C.ar      23 UNK        -0.0193 
     10 C10        -2.1334  -14.5429  -49.4754 C.ar      23 UNK        -0.1150 
     11 C11        -2.8409  -15.2196  -50.4725 C.ar      23 UNK        -0.0193 
     12 C12        -3.3538  -16.4898  -50.2012 C.ar      23 UNK        -0.1150 
     13 C13        -3.1405  -17.1014  -48.9647 C.ar      23 UNK        -0.0193 
     14 C14        -2.4408  -16.4106  -47.9723 C.ar      23 UNK        -0.1150 
     15 C15        -3.6629  -18.5097  -48.7223 C.3       23 UNK        -0.0205 
     16 S16        -2.5215  -19.7573  -49.4008 S.3       23 UNK        -0.2404 
     17 C17        -1.3271  -19.9641  -48.0313 C.3       23 UNK        -0.0398 
     18 CA         -1.0776  -21.4426  -47.6359 C.3       11 UNK         0.1400 
     19 N          -0.0002  -21.5647  -46.6468 N.am      11 UNK        -0.5000 
     20 C           0.5161  -22.7230  -46.2077 C.2       10 UNK         0.5000 
     21 O           0.1722  -23.8264  -46.6267 O.2       10 UNK        -0.5000 
     22 CA          1.5535  -22.6463  -45.0732 C.3       10 UNK         0.1400 
     23 CB          2.9343  -22.2488  -45.6150 C.3       10 UNK        -0.1800 
     24 N           1.1540  -21.7287  -44.0066 N.am      10 UNK        -0.5000 
     25 C           0.0669  -21.8815  -43.2361 C.2       9 UNK         0.5000 
     26 O          -0.6926  -22.8464  -43.3063 O.2       9 UNK        -0.5000 
     27 CA         -0.2654  -20.7316  -42.2690 C.3       9 UNK         0.1400 
     28 CB          0.5900  -20.8090  -40.9957 C.3       9 UNK        -0.1800 
     29 N          -0.0994  -19.4234  -42.9003 N.am      9 UNK        -0.5000 
     30 C          -0.8197  -18.9910  -43.9453 C.2       8 UNK         0.5000 
     31 O          -1.7517  -19.6181  -44.4489 O.2       8 UNK        -0.5000 
     32 CA         -0.3794  -17.6612  -44.5694 C.3       8 UNK         0.1400 
     33 CB         -0.9737  -16.4700  -43.8037 C.3       8 UNK        -0.1800 
     34 N           1.0776  -17.5545  -44.6201 N.am      8 UNK        -0.5000 
     35 C           1.8435  -18.2311  -45.4890 C.2       7 UNK         0.5000 
     36 O           1.3916  -19.0101  -46.3282 O.2       7 UNK        -0.5000 
     37 CA          3.3693  -18.0392  -45.3819 C.3       7 UNK         0.1400 
     38 CB          3.8166  -16.8308  -46.2195 C.3       7 UNK        -0.1800 
     39 N           3.8324  -17.8661  -44.0046 N.am      7 UNK        -0.5000 
     40 C           3.6964  -18.7727  -43.0259 C.2       6 UNK         0.5000 
     41 O           3.2435  -19.9026  -43.2040 O.2       6 UNK        -0.5000 
     42 CA          4.0687  -18.3210  -41.5978 C.3       6 UNK         0.1400 
     43 CB          5.5062  -18.7420  -41.2599 C.3       6 UNK        -0.1800 
     44 N           3.9224  -16.8770  -41.3723 N.am      6 UNK        -0.5000 
     45 C           2.7849  -16.1847  -41.5292 C.2       5 UNK         0.5000 
     46 O           1.7198  -16.7142  -41.8566 O.2       5 UNK        -0.5000 
     47 CA          2.8762  -14.6558  -41.3452 C.3       5 UNK         0.1400 
     48 CB          4.0339  -14.0532  -42.1636 C.3       5 UNK        -0.1800 
     49 N           1.6447  -13.9990  -41.7730 N.am      5 UNK        -0.5000 
     50 C           0.5410  -13.8218  -41.0420 C.2       4 UNK         0.5000 
     51 O           0.4555  -14.1322  -39.8520 O.2       4 UNK        -0.5000 
     52 CA         -0.6530  -13.1610  -41.7722 C.3       4 UNK         0.1400 
     53 CB         -1.8683  -12.9489  -40.8515 C.3       4 UNK        -0.1800 
     54 N          -0.3058  -11.8786  -42.3953 N.am      4 UNK        -0.5000 
     55 C           0.4298  -11.7119  -43.5021 C.2       3 UNK         0.5000 
     56 O           0.9086  -12.6470  -44.1520 O.2       3 UNK        -0.5000 
     57 CA          0.7044  -10.2624  -43.9303 C.3       3 UNK         0.1400 
     58 CB          1.5525   -9.5157  -42.8828 C.3       3 UNK        -0.1800 
     59 N           1.4116  -10.2815  -45.2047 N.am      3 UNK        -0.5000 
     60 C           1.4300   -9.3070  -46.1192 C.2       2 UNK         0.5000 
     61 O           0.8360   -8.2362  -45.9849 O.2       2 UNK        -0.5000 
     62 CA          2.2602   -9.5575  -47.3949 C.3       2 UNK         0.1400 
     63 CB          3.5530   -8.7271  -47.3660 C.3       2 UNK        -0.1800 
     64 N           2.6170  -10.9650  -47.5896 N.am      2 UNK        -0.5000 
     65 C           1.7962  -11.9119  -48.0598 C.2       1 UNK         0.5000 
     66 O           0.6404  -11.6839  -48.4195 O.2       1 UNK        -0.5000 
     67 C          -2.3650  -22.1574  -47.1684 C.2       11 UNK         0.5000 
     68 O          -2.9426  -22.9272  -47.9391 O.2       11 UNK        -0.5000 
     69 N          -2.7621  -21.9260  -45.9085 N.am      12 UNK        -0.5000 
     70 CA         -3.9103  -22.5656  -45.2669 C.3       12 UNK         0.1400 
     71 CB         -4.1701  -21.9123  -43.9014 C.3       12 UNK        -0.1800 
     72 C          -3.7451  -24.0900  -45.1294 C.2       12 UNK         0.5000 
     73 O          -4.6569  -24.8303  -45.4999 O.2       12 UNK        -0.5000 
     74 N          -2.5747  -24.5355  -44.6487 N.am      13 UNK        -0.5000 
     75 CA         -2.2093  -25.9490  -44.5048 C.3       13 UNK         0.1400 
     76 CB         -0.8618  -26.0595  -43.7762 C.3       13 UNK        -0.1800 
     77 C          -2.1601  -26.7044  -45.8463 C.2       13 UNK         0.5000 
     78 O          -2.5186  -27.8811  -45.8975 O.2       13 UNK        -0.5000 
     79 N          -1.7626  -26.0001  -46.9128 N.am      14 UNK        -0.5000 
     80 CA         -1.7638  -26.4738  -48.2954 C.3       14 UNK         0.1400 
     81 CB         -0.7390  -25.6550  -49.0983 C.3       14 UNK        -0.1800 
     82 C          -3.1529  -26.4300  -48.9670 C.2       14 UNK         0.5000 
     83 O          -3.2295  -26.6968  -50.1649 O.2       14 UNK        -0.5000 
     84 N          -4.2156  -26.0888  -48.2213 N.am      15 UNK        -0.5000 
     85 CA         -5.6091  -25.9792  -48.6654 C.3       15 UNK         0.1400 
     86 CB         -6.1604  -27.3484  -49.1170 C.3       15 UNK        -0.1800 
     87 C          -5.7825  -24.8750  -49.7246 C.2       15 UNK         0.5000 
     88 O          -6.2001  -25.1450  -50.8527 O.2       15 UNK        -0.5000 
     89 N          -5.4083  -23.6488  -49.3347 N.am      16 UNK        -0.5000 
     90 CA         -5.3935  -22.4289  -50.1470 C.3       16 UNK         0.1400 
     91 CB         -6.8232  -22.0197  -50.5574 C.3       16 UNK        -0.1800 
     92 C          -4.4255  -22.5597  -51.3379 C.2       16 UNK         0.5000 
     93 O          -4.7922  -22.2523  -52.4744 O.2       16 UNK        -0.5000 
     94 N          -3.2152  -23.0557  -51.0374 N.am      17 UNK        -0.5000 
     95 CA         -2.1192  -23.3365  -51.9702 C.3       17 UNK         0.1400 
     96 CB         -1.5340  -22.0176  -52.5168 C.3       17 UNK        -0.1800 
     97 C          -2.5365  -24.3209  -53.0836 C.2       17 UNK         0.5000 
     98 O          -2.4036  -24.0098  -54.2664 O.2       17 UNK        -0.5000 
     99 N          -3.0779  -25.4794  -52.6797 N.am      18 UNK        -0.5000 
    100 CA        -3.6428  -26.5353  -53.5279 C.3       18 UNK         0.1400 
    101 CB        -2.5364  -27.2320  -54.3469 C.3       18 UNK        -0.1800 
    102 C         -4.8165  -26.0279  -54.3917 C.2       18 UNK         0.5000 
    103 O         -4.9007  -26.3449  -55.5796 O.2       18 UNK        -0.5000 
    104 N         -5.6861  -25.2217  -53.7660 N.am      19 UNK        -0.5000 
    105 CA        -6.8526  -24.5416  -54.3344 C.3       19 UNK         0.1400 
    106 CB        -7.9150  -25.5636  -54.7896 C.3       19 UNK        -0.1800 
    107 C         -6.5250  -23.4964  -55.4255 C.2       19 UNK         0.5000 
    108 O         -7.4258  -23.0996  -56.1672 O.2       19 UNK        -0.5000 
    109 N         -5.2675  -23.0330  -55.4965 N.am      20 UNK        -0.5000 
    110 CA        -4.8420  -21.9411  -56.3786 C.3       20 UNK         0.1400 
    111 CB        -3.3163  -21.9758  -56.5424 C.3       20 UNK        -0.1800 
    112 C         -5.2926  -20.5576  -55.8700 C.2       20 UNK         0.5000 
    113 O         -5.3459  -19.6147  -56.6597 O.2       20 UNK        -0.5000 
    114 N         -5.6002  -20.4669  -54.5674 N.am      21 UNK        -0.5000 
    115 CA        -6.0932  -19.3051  -53.8214 C.3       21 UNK         0.1400 
    116 CB        -7.3745  -18.7200  -54.4507 C.3       21 UNK        -0.1800 
    117 C         -5.0291  -18.2285  -53.5337 C.2       21 UNK         0.5000 
    118 O         -5.3697  -17.2082  -52.9362 O.2       21 UNK        -0.5000 
    119 N         -3.7719  -18.4814  -53.9147 N.am      22 UNK        -0.5000 
    120 CA        -2.5660  -17.7025  -53.6079 C.3       22 UNK         0.1400 
    121 C         -1.3004  -18.4526  -54.1049 C.2       22 UNK         0.5000 
    122 N         -0.1185  -18.0488  -53.6619 N.am      22 UNK        -0.7600 
    123 O         -1.3753  -19.3899  -54.8968 O.2       22 UNK        -0.5000 
    124 C124       -2.6203  -16.2301  -54.1157 C.3       23 UNK        -0.0398 
    125 S125       -1.7454  -15.0623  -53.0141 S.3       23 UNK        -0.2404 
    126 C126       -3.0510  -14.5768  -51.8360 C.3       23 UNK        -0.0205 
    127 H127        5.2123  -13.4424  -51.0423 H         1 UNK         0.0600 
    128 H128        6.5413  -13.6510  -49.8983 H         1 UNK         0.0600 
    129 H129        6.0662  -12.0295  -50.4149 H         1 UNK         0.0600 
    130 H130        3.2087  -13.6785  -50.0990 H         1 UNK         0.3000 
    131 H131        2.8573  -13.5600  -47.2158 H         1 UNK         0.0600 
    132 H132        0.6280  -14.1310  -49.2241 H         1 UNK         0.0800 
    133 H133        1.8449  -15.3163  -48.8802 H         1 UNK         0.0800 
    134 H134       -1.6971  -14.4952  -46.1904 H         1 UNK         0.0800 
    135 H135       -1.1506  -13.3123  -47.3454 H         1 UNK         0.0800 
    136 H136       -1.7371  -13.5568  -49.6750 H         1 UNK         0.1150 
    137 H137       -3.9109  -17.0175  -50.9573 H         1 UNK         0.1150 
    138 H138       -2.2877  -16.8693  -47.0079 H         1 UNK         0.1150 
    139 H139       -3.8373  -18.6872  -47.6600 H         1 UNK         0.0800 
    140 H140       -4.6322  -18.6240  -49.2099 H         1 UNK         0.0800 
    141 H141       -1.6526  -19.3911  -47.1631 H         1 UNK         0.0800 
    142 H142       -0.3899  -19.5072  -48.3517 H         1 UNK         0.0800 
    143 H143       -0.7349  -21.9655  -48.5314 H         1 UNK         0.0600 
    144 H144        0.3827  -20.6947  -46.2892 H         1 UNK         0.3000 
    145 H145        1.6387  -23.6427  -44.6349 H         1 UNK         0.0600 
    146 H146        3.2655  -22.9455  -46.3860 H         1 UNK         0.0600 
    147 H147        2.9246  -21.2524  -46.0557 H         1 UNK         0.0600 
    148 H148        3.6849  -22.2571  -44.8244 H         1 UNK         0.0600 
    149 H149        1.7637  -20.9332  -43.8389 H         1 UNK         0.3000 
    150 H150       -1.3137  -20.8314  -41.9799 H         1 UNK         0.0600 
    151 H151        0.3296  -20.0142  -40.2964 H         1 UNK         0.0600 
    152 H152        1.6544  -20.7276  -41.2145 H         1 UNK         0.0600 
    153 H153        0.4344  -21.7584  -40.4820 H         1 UNK         0.0600 
    154 H154        0.6504  -18.8371  -42.5594 H         1 UNK         0.3000 
    155 H155       -0.7532  -17.6280  -45.5927 H         1 UNK         0.0600 
    156 H156       -0.7324  -16.5051  -42.7413 H         1 UNK         0.0600 
    157 H157       -2.0606  -16.4583  -43.8908 H         1 UNK         0.0600 
    158 H158       -0.6037  -15.5248  -44.1990 H         1 UNK         0.0600 
    159 H159        1.5136  -16.9927  -43.8991 H         1 UNK         0.3000 
    160 H160        3.8461  -18.9341  -45.7866 H         1 UNK         0.0600 
    161 H161        3.4868  -16.9288  -47.2548 H         1 UNK         0.0600 
    162 H162        4.9027  -16.7383  -46.2325 H         1 UNK         0.0600 
    163 H163        3.4043  -15.8978  -45.8329 H         1 UNK         0.0600 
    164 H164        4.2216  -16.9662  -43.7676 H         1 UNK         0.3000 
    165 H165        3.3917  -18.8314  -40.9099 H         1 UNK         0.0600 
    166 H166        5.7514  -18.5135  -40.2225 H         1 UNK         0.0600 
    167 H167        5.6403  -19.8164  -41.3944 H         1 UNK         0.0600 
    168 H168        6.2338  -18.2380  -41.8972 H         1 UNK         0.0600 
    169 H169        4.7598  -16.3815  -41.1023 H         1 UNK         0.3000 
    170 H170        3.0479  -14.4519  -40.2865 H         1 UNK         0.0600 
    171 H171        4.0520  -12.9666  -42.0737 H         1 UNK         0.0600 
    172 H172        5.0034  -14.4138  -41.8190 H         1 UNK         0.0600 
    173 H173        3.9462  -14.2951  -43.2238 H         1 UNK         0.0600 
    174 H174        1.5985  -13.7106  -42.7463 H         1 UNK         0.3000 
    175 H175       -0.9611  -13.8474  -42.5616 H         1 UNK         0.0600 
    176 H176       -1.6401  -12.2629  -40.0348 H         1 UNK         0.0600 
    177 H177       -2.7158  -12.5432  -41.4043 H         1 UNK         0.0600 
    178 H178       -2.1943  -13.8914  -40.4096 H         1 UNK         0.0600 
    179 H179       -0.6288  -11.0561  -41.9067 H         1 UNK         0.3000 
    180 H180       -0.2571   -9.7603  -44.0556 H         1 UNK         0.0600 
    181 H181        1.7592   -8.4925  -43.1970 H         1 UNK         0.0600 
    182 H182        2.5091  -10.0125  -42.7155 H         1 UNK         0.0600 
    183 H183        1.0395   -9.4571  -41.9225 H         1 UNK         0.0600 
    184 H184        1.8620  -11.1635  -45.4131 H         1 UNK         0.3000 
    185 H185        1.6613   -9.2265  -48.2459 H         1 UNK         0.0600 
    186 H186        4.1978   -9.0165  -46.5353 H         1 UNK         0.0600 
    187 H187        4.1201   -8.8480  -48.2893 H         1 UNK         0.0600 
    188 H188        3.3340   -7.6640  -47.2574 H         1 UNK         0.0600 
    189 H189        3.5732  -11.2318  -47.3786 H         1 UNK         0.3000 
    190 H190       -2.2492  -21.2516  -45.3469 H         1 UNK         0.3000 
    191 H191       -4.7831  -22.3838  -45.8974 H         1 UNK         0.0600 
    192 H192       -3.3178  -22.0239  -43.2309 H         1 UNK         0.0600 
    193 H193       -5.0354  -22.3605  -43.4116 H         1 UNK         0.0600 
    194 H194       -4.3717  -20.8463  -44.0080 H         1 UNK         0.0600 
    195 H195       -1.8831  -23.8585  -44.3336 H         1 UNK         0.3000 
    196 H196       -2.9717  -26.4265  -43.8861 H         1 UNK         0.0600 
    197 H197       -0.5721  -27.1026  -43.6432 H         1 UNK         0.0600 
    198 H198       -0.9111  -25.6071  -42.7857 H         1 UNK         0.0600 
    199 H199       -0.0645  -25.5641  -44.3313 H         1 UNK         0.0600 
    200 H200       -1.4197  -25.0555  -46.7668 H         1 UNK         0.3000 
    201 H201       -1.4409  -27.5166  -48.3064 H         1 UNK         0.0600 
    202 H202        0.2585  -25.7470  -48.6686 H         1 UNK         0.0600 
    203 H203       -0.9981  -24.5963  -49.1127 H         1 UNK         0.0600 
    204 H204       -0.6749  -25.9973  -50.1319 H         1 UNK         0.0600 
    205 H205       -4.0558  -25.8392  -47.2522 H         1 UNK         0.3000 
    206 H206       -6.1868  -25.6675  -47.7940 H         1 UNK         0.0600 
    207 H207       -7.2251  -27.2808  -49.3431 H         1 UNK         0.0600 
    208 H208       -5.6624  -27.7178  -50.0139 H         1 UNK         0.0600 
    209 H209       -6.0409  -28.0978  -48.3347 H         1 UNK         0.0600 
    210 H210       -4.9608  -23.5596  -48.4303 H         1 UNK         0.3000 
    211 H211       -4.9957  -21.6385  -49.5092 H         1 UNK         0.0600 
    212 H212       -7.2578  -22.7137  -51.2770 H         1 UNK         0.0600 
    213 H213       -6.8270  -21.0304  -51.0127 H         1 UNK         0.0600 
    214 H214       -7.4841  -21.9774  -49.6918 H         1 UNK         0.0600 
    215 H215       -3.0360  -23.2641  -50.0617 H         1 UNK         0.3000 
    216 H216       -1.3339  -23.8315  -51.3992 H         1 UNK         0.0600 
    217 H217       -0.6787  -22.2063  -53.1663 H         1 UNK         0.0600 
    218 H218       -1.1899  -21.3735  -51.7081 H         1 UNK         0.0600 
    219 H219       -2.2669  -21.4583  -53.0988 H         1 UNK         0.0600 
    220 H220       -3.1486  -25.6720  -51.6825 H         1 UNK         0.3000 
    221 H221       -4.0653  -27.2770  -52.8485 H         1 UNK         0.0600 
    222 H222       -2.0967  -26.5639  -55.0879 H         1 UNK         0.0600 
    223 H223       -1.7354  -27.5901  -53.7002 H         1 UNK         0.0600 
    224 H224       -2.9325  -28.0964  -54.8810 H         1 UNK         0.0600 
    225 H225       -5.5468  -25.0545  -52.7737 H         1 UNK         0.3000 
    226 H226       -7.2832  -23.9733  -53.5090 H         1 UNK         0.0600 
    227 H227       -8.1424  -26.2749  -53.9955 H         1 UNK         0.0600 
    228 H228       -8.8494  -25.0673  -55.0540 H         1 UNK         0.0600 
    229 H229       -7.5874  -26.1275  -55.6632 H         1 UNK         0.0600 
    230 H230       -4.5735  -23.3965  -54.8543 H         1 UNK         0.3000 
    231 H231       -5.2901  -22.0955  -57.3624 H         1 UNK         0.0600 
    232 H232       -2.8072  -21.7626  -55.6021 H         1 UNK         0.0600 
    233 H233       -2.9768  -22.9493  -56.8966 H         1 UNK         0.0600 
    234 H234       -2.9843  -21.2306  -57.2662 H         1 UNK         0.0600 
    235 H235       -5.4317  -21.2890  -53.9910 H         1 UNK         0.3000 
    236 H236       -6.3721  -19.6966  -52.8439 H         1 UNK         0.0600 
    237 H237       -7.1713  -18.2127  -55.3939 H         1 UNK         0.0600 
    238 H238       -8.1139  -19.4988  -54.6382 H         1 UNK         0.0600 
    239 H239       -7.8361  -17.9894  -53.7855 H         1 UNK         0.0600 
    240 H240       -3.5812  -19.3405  -54.4138 H         1 UNK         0.3000 
    241 H241       -2.4930  -17.7094  -52.5217 H         1 UNK         0.0600 
    242 H242        0.7123  -18.5226  -53.9794 H         1 UNK         0.3800 
    243 H243       -0.0368  -17.2651  -53.0323 H         1 UNK         0.3800 
    244 H244       -2.1909  -16.1493  -55.1159 H         1 UNK         0.0800 
    245 H245       -3.6429  -15.8753  -54.2339 H         1 UNK         0.0800 
    246 H246       -4.0389  -14.8338  -52.2205 H         1 UNK         0.0800 
    247 H247       -3.0430  -13.4903  -51.7368 H         1 UNK         0.0800 
@<TRIPOS>BOND
     1    1    2 1    
     2    1  127 1    
     3    1  128 1    
     4    1  129 1    
     5    2    3 2    
     6    2    4 am   BACKBONE|DICT|INTERRES
     7    4    5 1    
     8    4  130 1    
     9    5    6 1    
    10    5   65 1    
    11    5  131 1    
    12    6    7 1    
    13    6  132 1    
    14    6  133 1    
    15    7    8 1    
    16    8    9 1    
    17    8  134 1    
    18    8  135 1    
    19    9   10 ar   
    20    9   14 ar   
    21   10   11 ar   
    22   10  136 1    
    23   11   12 ar   
    24   11  126 1    
    25   12   13 ar   
    26   12  137 1    
    27   13   14 ar   
    28   13   15 1    
    29   14  138 1    
    30   15   16 1    
    31   15  139 1    
    32   15  140 1    
    33   16   17 1    
    34   17   18 1    
    35   17  141 1    
    36   17  142 1    
    37   18   19 1    
    38   18   67 1    
    39   18  143 1    
    40   19   20 am   BACKBONE|DICT|INTERRES
    41   19  144 1    
    42   20   21 2    
    43   20   22 1    
    44   22   23 1    
    45   22   24 1    
    46   22  145 1    
    47   23  146 1    
    48   23  147 1    
    49   23  148 1    
    50   24   25 am   BACKBONE|DICT|INTERRES
    51   24  149 1    
    52   25   26 2    
    53   25   27 1    
    54   27   28 1    
    55   27   29 1    
    56   27  150 1    
    57   28  151 1    
    58   28  152 1    
    59   28  153 1    
    60   29   30 am   BACKBONE|DICT|INTERRES
    61   29  154 1    
    62   30   31 2    
    63   30   32 1    
    64   32   33 1    
    65   32   34 1    
    66   32  155 1    
    67   33  156 1    
    68   33  157 1    
    69   33  158 1    
    70   34   35 am   BACKBONE|DICT|INTERRES
    71   34  159 1    
    72   35   36 2    
    73   35   37 1    
    74   37   38 1    
    75   37   39 1    
    76   37  160 1    
    77   38  161 1    
    78   38  162 1    
    79   38  163 1    
    80   39   40 am   BACKBONE|DICT|INTERRES
    81   39  164 1    
    82   40   41 2    
    83   40   42 1    
    84   42   43 1    
    85   42   44 1    
    86   42  165 1    
    87   43  166 1    
    88   43  167 1    
    89   43  168 1    
    90   44   45 am   BACKBONE|DICT|INTERRES
    91   44  169 1    
    92   45   46 2    
    93   45   47 1    
    94   47   48 1    
    95   47   49 1    
    96   47  170 1    
    97   48  171 1    
    98   48  172 1    
    99   48  173 1    
   100   49   50 am   BACKBONE|DICT|INTERRES
   101   49  174 1    
   102   50   51 2    
   103   50   52 1    
   104   52   53 1    
   105   52   54 1    
   106   52  175 1    
   107   53  176 1    
   108   53  177 1    
   109   53  178 1    
   110   54   55 am   BACKBONE|DICT|INTERRES
   111   54  179 1    
   112   55   56 2    
   113   55   57 1    
   114   57   58 1    
   115   57   59 1    
   116   57  180 1    
   117   58  181 1    
   118   58  182 1    
   119   58  183 1    
   120   59   60 am   BACKBONE|DICT|INTERRES
   121   59  184 1    
   122   60   61 2    
   123   60   62 1    
   124   62   63 1    
   125   62   64 1    
   126   62  185 1    
   127   63  186 1    
   128   63  187 1    
   129   63  188 1    
   130   64   65 am   BACKBONE|DICT|INTERRES
   131   64  189 1    
   132   65   66 2    
   133   67   68 2    
   134   67   69 am   BACKBONE|DICT|INTERRES
   135   69   70 1    
   136   69  190 1    
   137   70   71 1    
   138   70   72 1    
   139   70  191 1    
   140   71  192 1    
   141   71  193 1    
   142   71  194 1    
   143   72   73 2    
   144   72   74 am   BACKBONE|DICT|INTERRES
   145   74   75 1    
   146   74  195 1    
   147   75   76 1    
   148   75   77 1    
   149   75  196 1    
   150   76  197 1    
   151   76  198 1    
   152   76  199 1    
   153   77   78 2    
   154   77   79 am   BACKBONE|DICT|INTERRES
   155   79   80 1    
   156   79  200 1    
   157   80   81 1    
   158   80   82 1    
   159   80  201 1    
   160   81  202 1    
   161   81  203 1    
   162   81  204 1    
   163   82   83 2    
   164   82   84 am   BACKBONE|DICT|INTERRES
   165   84   85 1    
   166   84  205 1    
   167   85   86 1    
   168   85   87 1    
   169   85  206 1    
   170   86  207 1    
   171   86  208 1    
   172   86  209 1    
   173   87   88 2    
   174   87   89 am   BACKBONE|DICT|INTERRES
   175   89   90 1    
   176   89  210 1    
   177   90   91 1    
   178   90   92 1    
   179   90  211 1    
   180   91  212 1    
   181   91  213 1    
   182   91  214 1    
   183   92   93 2    
   184   92   94 am   BACKBONE|DICT|INTERRES
   185   94   95 1    
   186   94  215 1    
   187   95   96 1    
   188   95   97 1    
   189   95  216 1    
   190   96  217 1    
   191   96  218 1    
   192   96  219 1    
   193   97   98 2    
   194   97   99 am   BACKBONE|DICT|INTERRES
   195   99  100 1    
   196   99  220 1    
   197  100  101 1    
   198  100  102 1    
   199  100  221 1    
   200  101  222 1    
   201  101  223 1    
   202  101  224 1    
   203  102  103 2    
   204  102  104 am   BACKBONE|DICT|INTERRES
   205  104  105 1    
   206  104  225 1    
   207  105  106 1    
   208  105  107 1    
   209  105  226 1    
   210  106  227 1    
   211  106  228 1    
   212  106  229 1    
   213  107  108 2    
   214  107  109 am   BACKBONE|DICT|INTERRES
   215  109  110 1    
   216  109  230 1    
   217  110  111 1    
   218  110  112 1    
   219  110  231 1    
   220  111  232 1    
   221  111  233 1    
   222  111  234 1    
   223  112  113 2    
   224  112  114 am   BACKBONE|DICT|INTERRES
   225  114  115 1    
   226  114  235 1    
   227  115  116 1    
   228  115  117 1    
   229  115  236 1    
   230  116  237 1    
   231  116  238 1    
   232  116  239 1    
   233  117  118 2    
   234  117  119 am   BACKBONE|DICT|INTERRES
   235  119  120 1    
   236  119  240 1    
   237  120  121 1    
   238  120  124 1    
   239  120  241 1    
   240  121  122 am   BACKBONE|DICT|INTERRES
   241  121  123 2    
   242  122  242 1    
   243  122  243 1    
   244  124  125 1    
   245  124  244 1    
   246  124  245 1    
   247  125  126 1    
   248  126  246 1    
   249  126  247 1    
@<TRIPOS>SUBSTRUCTURE
     1 UNK         1 GROUP             0       ****    0 ROOT    
