@<TRIPOS>MOLECULE
3R540
247   249    1
SMALL
USER_CHARGES


@<TRIPOS>ATOM
      1 CA          0.1320  -10.3194  -41.1224 C.3       0 UNK        -0.1800 
      2 C           0.2182  -10.9601  -42.4995 C.2       0 UNK         0.5000 
      3 O           0.3056  -10.2520  -43.5030 O.2       0 UNK        -0.5000 
      4 N           0.2193  -12.2996  -42.5555 N.am      1 UNK        -0.5000 
      5 CA          0.2147  -13.1037  -43.7894 C.3       1 UNK         0.1400 
      6 C6         -0.1201  -14.5984  -43.5419 C.3       23 UNK        -0.0398 
      7 S7         -1.4834  -14.8825  -42.3614 S.3       23 UNK        -0.2404 
      8 C8         -2.9485  -14.3286  -43.2939 C.3       23 UNK        -0.0205 
      9 C9         -3.5791  -15.4078  -44.1671 C.ar      23 UNK        -0.0193 
     10 C10        -3.9603  -15.1085  -45.4783 C.ar      23 UNK        -0.1150 
     11 C11        -4.6683  -16.0389  -46.2451 C.ar      23 UNK        -0.0193 
     12 C12        -4.9750  -17.2888  -45.6978 C.ar      23 UNK        -0.1150 
     13 C13        -4.5946  -17.6090  -44.3884 C.ar      23 UNK        -0.0193 
     14 C14        -3.8947  -16.6622  -43.6339 C.ar      23 UNK        -0.1150 
     15 C15        -5.0214  -18.9201  -43.7291 C.3       23 UNK        -0.0205 
     16 S16        -4.9553  -20.3806  -44.8185 S.3       23 UNK        -0.2404 
     17 C17        -3.1574  -20.6170  -44.9658 C.3       23 UNK        -0.0398 
     18 CA         -2.7984  -21.9370  -45.6891 C.3       11 UNK         0.1400 
     19 N          -1.5100  -21.8470  -46.3848 N.am      11 UNK        -0.5000 
     20 C          -0.9602  -22.7936  -47.1587 C.2       10 UNK         0.5000 
     21 O          -1.4786  -23.8899  -47.3645 O.2       10 UNK        -0.5000 
     22 CA          0.3976  -22.4706  -47.7970 C.3       10 UNK         0.1400 
     23 CB          0.2171  -21.5832  -49.0375 C.3       10 UNK        -0.1800 
     24 N           1.2835  -21.8178  -46.8364 N.am      10 UNK        -0.5000 
     25 C           1.9584  -22.4695  -45.8791 C.2       9 UNK         0.5000 
     26 O           1.9856  -23.6958  -45.7739 O.2       9 UNK        -0.5000 
     27 CA          2.7028  -21.6043  -44.8451 C.3       9 UNK         0.1400 
     28 CB          4.1128  -21.2551  -45.3440 C.3       9 UNK        -0.1800 
     29 N           1.9873  -20.3705  -44.5168 N.am      9 UNK        -0.5000 
     30 C           0.8108  -20.3230  -43.8734 C.2       8 UNK         0.5000 
     31 O           0.2044  -21.3188  -43.4773 O.2       8 UNK        -0.5000 
     32 CA          0.1789  -18.9300  -43.6847 C.3       8 UNK         0.1400 
     33 CB          0.6783  -18.2936  -42.3799 C.3       8 UNK        -0.1800 
     34 N           0.4286  -18.0132  -44.8001 N.am      8 UNK        -0.5000 
     35 C           0.1079  -18.2477  -46.0809 C.2       7 UNK         0.5000 
     36 O          -0.4517  -19.2730  -46.4633 O.2       7 UNK        -0.5000 
     37 CA          0.5123  -17.1936  -47.1244 C.3       7 UNK         0.1400 
     38 CB         -0.6995  -16.3286  -47.4858 C.3       7 UNK        -0.1800 
     39 N           1.6353  -16.3355  -46.7367 N.am      7 UNK        -0.5000 
     40 C           2.8728  -16.7645  -46.4484 C.2       6 UNK         0.5000 
     41 O           3.1859  -17.9543  -46.3663 O.2       6 UNK        -0.5000 
     42 CA          3.9162  -15.6592  -46.2067 C.3       6 UNK         0.1400 
     43 CB          5.3494  -16.1956  -46.0103 C.3       6 UNK        -0.1800 
     44 N           3.8664  -14.6252  -47.2474 N.am      6 UNK        -0.5000 
     45 C           4.1561  -14.7606  -48.5503 C.2       5 UNK         0.5000 
     46 O           4.5316  -15.8125  -49.0703 O.2       5 UNK        -0.5000 
     47 CA          4.0123  -13.4815  -49.4003 C.3       5 UNK         0.1400 
     48 CB          4.1231  -13.7352  -50.9190 C.3       5 UNK        -0.1800 
     49 N           2.8064  -12.7123  -49.0737 N.am      5 UNK        -0.5000 
     50 C           1.5262  -13.0696  -49.2681 C.2       4 UNK         0.5000 
     51 O           1.1882  -14.1406  -49.7713 O.2       4 UNK        -0.5000 
     52 CA          0.4439  -12.0584  -48.8272 C.3       4 UNK         0.1400 
     53 CB         -0.8245  -12.7485  -48.2930 C.3       4 UNK        -0.1800 
     54 N           0.9504  -11.1541  -47.7956 N.am      4 UNK        -0.5000 
     55 C           1.3825   -9.9009  -47.9891 C.2       3 UNK         0.5000 
     56 O           1.3361   -9.3217  -49.0742 O.2       3 UNK        -0.5000 
     57 CA          2.0042   -9.1827  -46.7729 C.3       3 UNK         0.1400 
     58 CB          0.9962   -8.2016  -46.1561 C.3       3 UNK        -0.1800 
     59 N           2.4757  -10.1031  -45.7330 N.am      3 UNK        -0.5000 
     60 C           3.5209  -10.9356  -45.8657 C.2       2 UNK         0.5000 
     61 O           4.2219  -10.9932  -46.8758 O.2       2 UNK        -0.5000 
     62 CA          3.7817  -11.9242  -44.7115 C.3       2 UNK         0.1400 
     63 CB          4.7272  -11.3019  -43.6744 C.3       2 UNK        -0.1800 
     64 N           2.5544  -12.3585  -44.0417 N.am      2 UNK        -0.5000 
     65 C           1.5099  -12.9686  -44.6215 C.2       1 UNK         0.5000 
     66 O           1.5298  -13.3835  -45.7814 O.2       1 UNK        -0.5000 
     67 C          -2.8850  -23.1572  -44.7462 C.2       11 UNK         0.5000 
     68 O          -3.9125  -23.8357  -44.7240 O.2       11 UNK        -0.5000 
     69 N          -1.7736  -23.4704  -44.0640 N.am      12 UNK        -0.5000 
     70 CA         -1.5888  -24.6681  -43.2384 C.3       12 UNK         0.1400 
     71 CB         -0.2226  -24.5770  -42.5417 C.3       12 UNK        -0.1800 
     72 C          -1.7087  -26.0031  -44.0085 C.2       12 UNK         0.5000 
     73 O          -1.9891  -27.0299  -43.3896 O.2       12 UNK        -0.5000 
     74 N          -1.5180  -25.9659  -45.3334 N.am      13 UNK        -0.5000 
     75 CA         -1.6648  -27.0863  -46.2613 C.3       13 UNK         0.1400 
     76 CB         -0.3840  -27.1878  -47.1100 C.3       13 UNK        -0.1800 
     77 C          -2.9274  -26.9209  -47.1343 C.2       13 UNK         0.5000 
     78 O          -2.9470  -27.3903  -48.2733 O.2       13 UNK        -0.5000 
     79 N          -3.9527  -26.2355  -46.6026 N.am      14 UNK        -0.5000 
     80 CA         -5.2406  -25.9307  -47.2385 C.3       14 UNK         0.1400 
     81 CB         -6.0550  -27.2196  -47.4782 C.3       14 UNK        -0.1800 
     82 C          -5.0717  -25.0779  -48.5112 C.2       14 UNK         0.5000 
     83 O          -5.6073  -25.4168  -49.5679 O.2       14 UNK        -0.5000 
     84 N          -4.2756  -24.0065  -48.3862 N.am      15 UNK        -0.5000 
     85 CA         -3.8429  -23.0981  -49.4556 C.3       15 UNK         0.1400 
     86 CB         -5.0382  -22.3049  -50.0212 C.3       15 UNK        -0.1800 
     87 C          -3.0159  -23.8314  -50.5318 C.2       15 UNK         0.5000 
     88 O          -3.1923  -23.5830  -51.7235 O.2       15 UNK        -0.5000 
     89 N          -2.1587  -24.7583  -50.0764 N.am      16 UNK        -0.5000 
     90 CA         -1.3888  -25.7298  -50.8613 C.3       16 UNK         0.1400 
     91 CB         -0.2671  -25.0221  -51.6468 C.3       16 UNK        -0.1800 
     92 C          -2.3031  -26.5882  -51.7606 C.2       16 UNK         0.5000 
     93 O          -2.0790  -26.6759  -52.9674 O.2       16 UNK        -0.5000 
     94 N          -3.3623  -27.1488  -51.1584 N.am      17 UNK        -0.5000 
     95 CA         -4.4833  -27.8368  -51.8126 C.3       17 UNK         0.1400 
     96 CB         -4.0299  -29.1986  -52.3777 C.3       17 UNK        -0.1800 
     97 C          -5.1849  -26.9436  -52.8628 C.2       17 UNK         0.5000 
     98 O          -5.4441  -27.3800  -53.9855 O.2       17 UNK        -0.5000 
     99 N          -5.4389  -25.6884  -52.4678 N.am      18 UNK        -0.5000 
    100 CA        -6.0192  -24.5820  -53.2377 C.3       18 UNK         0.1400 
    101 CB        -7.4635  -24.9125  -53.6664 C.3       18 UNK        -0.1800 
    102 C         -5.1628  -24.0663  -54.4180 C.2       18 UNK         0.5000 
    103 O         -5.6520  -23.2372  -55.1875 O.2       18 UNK        -0.5000 
    104 N         -3.9089  -24.5225  -54.5495 N.am      19 UNK        -0.5000 
    105 CA        -2.9926  -24.1047  -55.6136 C.3       19 UNK         0.1400 
    106 CB        -1.9365  -25.1977  -55.8353 C.3       19 UNK        -0.1800 
    107 C         -2.3047  -22.7530  -55.3389 C.2       19 UNK         0.5000 
    108 O         -1.8276  -22.1273  -56.2869 O.2       19 UNK        -0.5000 
    109 N         -2.2459  -22.3287  -54.0704 N.am      20 UNK        -0.5000 
    110 CA        -1.5613  -21.1191  -53.6170 C.3       20 UNK         0.1400 
    111 CB        -0.1939  -21.4958  -53.0182 C.3       20 UNK        -0.1800 
    112 C         -2.4535  -20.3373  -52.6393 C.2       20 UNK         0.5000 
    113 O         -2.0123  -19.9639  -51.5509 O.2       20 UNK        -0.5000 
    114 N         -3.7061  -20.1035  -53.0485 N.am      21 UNK        -0.5000 
    115 CA        -4.6442  -19.2159  -52.3616 C.3       21 UNK         0.1400 
    116 CB        -6.0625  -19.5015  -52.8788 C.3       21 UNK        -0.1800 
    117 C         -4.2686  -17.7358  -52.5680 C.2       21 UNK         0.5000 
    118 O         -3.6658  -17.3907  -53.5885 O.2       21 UNK        -0.5000 
    119 N         -4.6409  -16.8923  -51.5987 N.am      22 UNK        -0.5000 
    120 CA        -4.4147  -15.4381  -51.6139 C.3       22 UNK         0.1400 
    121 C         -5.1647  -14.7197  -52.7719 C.2       22 UNK         0.5000 
    122 N         -4.5529  -13.7190  -53.3907 N.am      22 UNK        -0.7600 
    123 O         -6.3126  -15.0316  -53.0818 O.2       22 UNK        -0.5000 
    124 C124       -4.7884  -14.7842  -50.2597 C.3       23 UNK        -0.0398 
    125 S125       -3.8545  -15.4661  -48.8468 S.3       23 UNK        -0.2404 
    126 C126       -5.1870  -15.6528  -47.6239 C.3       23 UNK        -0.0205 
    127 H127       -0.7515   -9.6842  -41.0603 H         1 UNK         0.0600 
    128 H128        1.0113   -9.7015  -40.9406 H         1 UNK         0.0600 
    129 H129        0.0704  -11.0667  -40.3310 H         1 UNK         0.0600 
    130 H130        0.1394  -12.8292  -41.6983 H         1 UNK         0.3000 
    131 H131       -0.5754  -12.6942  -44.4213 H         1 UNK         0.0600 
    132 H132        0.7535  -15.1186  -43.1452 H         1 UNK         0.0800 
    133 H133       -0.3704  -15.0929  -44.4808 H         1 UNK         0.0800 
    134 H134       -3.7010  -14.0055  -42.5735 H         1 UNK         0.0800 
    135 H135       -2.7020  -13.4438  -43.8809 H         1 UNK         0.0800 
    136 H136       -3.7506  -14.1319  -45.8920 H         1 UNK         0.1150 
    137 H137       -5.5497  -17.9972  -46.2773 H         1 UNK         0.1150 
    138 H138       -3.6340  -16.8828  -42.6082 H         1 UNK         0.1150 
    139 H139       -4.4181  -19.1185  -42.8417 H         1 UNK         0.0800 
    140 H140       -6.0475  -18.8017  -43.3790 H         1 UNK         0.0800 
    141 H141       -2.6913  -20.5625  -43.9808 H         1 UNK         0.0800 
    142 H142       -2.7860  -19.7609  -45.5287 H         1 UNK         0.0800 
    143 H143       -3.5377  -22.0917  -46.4761 H         1 UNK         0.0600 
    144 H144       -1.0340  -20.9485  -46.3216 H         1 UNK         0.3000 
    145 H145        0.8484  -23.4116  -48.1202 H         1 UNK         0.0600 
    146 H146       -0.2108  -20.6115  -48.7896 H         1 UNK         0.0600 
    147 H147        1.1680  -21.4115  -49.5417 H         1 UNK         0.0600 
    148 H148       -0.4513  -22.0564  -49.7572 H         1 UNK         0.0600 
    149 H149        1.2736  -20.8074  -46.8210 H         1 UNK         0.3000 
    150 H150        2.7995  -22.1918  -43.9295 H         1 UNK         0.0600 
    151 H151        4.6823  -22.1577  -45.5691 H         1 UNK         0.0600 
    152 H152        4.6708  -20.6976  -44.5915 H         1 UNK         0.0600 
    153 H153        4.0806  -20.6514  -46.2520 H         1 UNK         0.0600 
    154 H154        2.3950  -19.5073  -44.8544 H         1 UNK         0.3000 
    155 H155       -0.9009  -19.0627  -43.6053 H         1 UNK         0.0600 
    156 H156        0.5254  -18.9652  -41.5339 H         1 UNK         0.0600 
    157 H157        0.1395  -17.3741  -42.1573 H         1 UNK         0.0600 
    158 H158        1.7426  -18.0598  -42.4256 H         1 UNK         0.0600 
    159 H159        0.9177  -17.1594  -44.5847 H         1 UNK         0.3000 
    160 H160        0.8161  -17.7379  -48.0209 H         1 UNK         0.0600 
    161 H161       -1.0108  -15.6894  -46.6601 H         1 UNK         0.0600 
    162 H162       -1.5527  -16.9539  -47.7514 H         1 UNK         0.0600 
    163 H163       -0.4887  -15.6965  -48.3469 H         1 UNK         0.0600 
    164 H164        1.4757  -15.3357  -46.7692 H         1 UNK         0.3000 
    165 H165        3.6271  -15.1749  -45.2737 H         1 UNK         0.0600 
    166 H166        5.6990  -16.7573  -46.8768 H         1 UNK         0.0600 
    167 H167        6.0530  -15.3829  -45.8301 H         1 UNK         0.0600 
    168 H168        5.3990  -16.8643  -45.1501 H         1 UNK         0.0600 
    169 H169        3.4779  -13.7393  -46.9548 H         1 UNK         0.3000 
    170 H170        4.8536  -12.8457  -49.1203 H         1 UNK         0.0600 
    171 H171        3.3568  -14.4241  -51.2752 H         1 UNK         0.0600 
    172 H172        4.0284  -12.8067  -51.4820 H         1 UNK         0.0600 
    173 H173        5.0914  -14.1688  -51.1712 H         1 UNK         0.0600 
    174 H174        2.9798  -11.8226  -48.6241 H         1 UNK         0.3000 
    175 H175        0.1633  -11.4922  -49.7173 H         1 UNK         0.0600 
    176 H176       -0.6138  -13.3517  -47.4105 H         1 UNK         0.0600 
    177 H177       -1.5841  -12.0162  -48.0199 H         1 UNK         0.0600 
    178 H178       -1.2671  -13.4033  -49.0446 H         1 UNK         0.0600 
    179 H179        1.0710  -11.5695  -46.8811 H         1 UNK         0.3000 
    180 H180        2.8619   -8.6104  -47.1324 H         1 UNK         0.0600 
    181 H181        0.6714   -7.4623  -46.8893 H         1 UNK         0.0600 
    182 H182        1.4346   -7.6582  -45.3188 H         1 UNK         0.0600 
    183 H183        0.1058   -8.7162  -45.7928 H         1 UNK         0.0600 
    184 H184        1.9203  -10.1402  -44.8847 H         1 UNK         0.3000 
    185 H185        4.2717  -12.8046  -45.1281 H         1 UNK         0.0600 
    186 H186        4.9811  -12.0178  -42.8924 H         1 UNK         0.0600 
    187 H187        5.6620  -10.9848  -44.1387 H         1 UNK         0.0600 
    188 H188        4.2832  -10.4267  -43.1981 H         1 UNK         0.0600 
    189 H189        2.4400  -12.0594  -43.0841 H         1 UNK         0.3000 
    190 H190       -0.9845  -22.8325  -44.1068 H         1 UNK         0.3000 
    191 H191       -2.3666  -24.6648  -42.4724 H         1 UNK         0.0600 
    192 H192        0.5928  -24.5310  -43.2650 H         1 UNK         0.0600 
    193 H193       -0.1601  -23.6900  -41.9110 H         1 UNK         0.0600 
    194 H194       -0.0481  -25.4428  -41.9016 H         1 UNK         0.0600 
    195 H195       -1.3335  -25.0712  -45.7745 H         1 UNK         0.3000 
    196 H196       -1.7817  -28.0231  -45.7136 H         1 UNK         0.0600 
    197 H197        0.4949  -27.3166  -46.4782 H         1 UNK         0.0600 
    198 H198       -0.2293  -26.2941  -47.7151 H         1 UNK         0.0600 
    199 H199       -0.4230  -28.0429  -47.7859 H         1 UNK         0.0600 
    200 H200       -3.8220  -25.8296  -45.6839 H         1 UNK         0.3000 
    201 H201       -5.7975  -25.3162  -46.5295 H         1 UNK         0.0600 
    202 H202       -7.0550  -26.9850  -47.8449 H         1 UNK         0.0600 
    203 H203       -6.1731  -27.7879  -46.5558 H         1 UNK         0.0600 
    204 H204       -5.5835  -27.8705  -48.2151 H         1 UNK         0.0600 
    205 H205       -3.8121  -23.8818  -47.4973 H         1 UNK         0.3000 
    206 H206       -3.1657  -22.3704  -49.0093 H         1 UNK         0.0600 
    207 H207       -5.4757  -21.6623  -49.2574 H         1 UNK         0.0600 
    208 H208       -5.8266  -22.9537  -50.3981 H         1 UNK         0.0600 
    209 H209       -4.7270  -21.6653  -50.8440 H         1 UNK         0.0600 
    210 H210       -2.0752  -24.8475  -49.0699 H         1 UNK         0.3000 
    211 H211       -0.9213  -26.4101  -50.1486 H         1 UNK         0.0600 
    212 H212        0.3374  -24.3918  -50.9948 H         1 UNK         0.0600 
    213 H213        0.4007  -25.7497  -52.1090 H         1 UNK         0.0600 
    214 H214       -0.6680  -24.3987  -52.4458 H         1 UNK         0.0600 
    215 H215       -3.4341  -27.0521  -50.1490 H         1 UNK         0.3000 
    216 H216       -5.2210  -28.0304  -51.0324 H         1 UNK         0.0600 
    217 H217       -4.8795  -29.7626  -52.7643 H         1 UNK         0.0600 
    218 H218       -3.3159  -29.0826  -53.1936 H         1 UNK         0.0600 
    219 H219       -3.5606  -29.8079  -51.6054 H         1 UNK         0.0600 
    220 H220       -5.2179  -25.4619  -51.5020 H         1 UNK         0.3000 
    221 H221       -6.0756  -23.7445  -52.5434 H         1 UNK         0.0600 
    222 H222       -7.4927  -25.6984  -54.4214 H         1 UNK         0.0600 
    223 H223       -8.0615  -25.2400  -52.8160 H         1 UNK         0.0600 
    224 H224       -7.9579  -24.0372  -54.0891 H         1 UNK         0.0600 
    225 H225       -3.5483  -25.1777  -53.8665 H         1 UNK         0.3000 
    226 H226       -3.5611  -24.0028  -56.5404 H         1 UNK         0.0600 
    227 H227       -2.3978  -26.1753  -55.9772 H         1 UNK         0.0600 
    228 H228       -1.3399  -24.9860  -56.7234 H         1 UNK         0.0600 
    229 H229       -1.2479  -25.2677  -54.9930 H         1 UNK         0.0600 
    230 H230       -2.6828  -22.8851  -53.3359 H         1 UNK         0.3000 
    231 H231       -1.3835  -20.4485  -54.4599 H         1 UNK         0.0600 
    232 H232        0.3693  -20.6051  -52.7378 H         1 UNK         0.0600 
    233 H233        0.4120  -22.0531  -53.7327 H         1 UNK         0.0600 
    234 H234       -0.3062  -22.1065  -52.1237 H         1 UNK         0.0600 
    235 H235       -3.9825  -20.4344  -53.9613 H         1 UNK         0.3000 
    236 H236       -4.6127  -19.4275  -51.2912 H         1 UNK         0.0600 
    237 H237       -6.3426  -20.5416  -52.7087 H         1 UNK         0.0600 
    238 H238       -6.7984  -18.8789  -52.3686 H         1 UNK         0.0600 
    239 H239       -6.1483  -19.3015  -53.9477 H         1 UNK         0.0600 
    240 H240       -5.1391  -17.2493  -50.7975 H         1 UNK         0.3000 
    241 H241       -3.3441  -15.2898  -51.7699 H         1 UNK         0.0600 
    242 H242       -5.0348  -13.2351  -54.1328 H         1 UNK         0.3800 
    243 H243       -3.6139  -13.4409  -53.1499 H         1 UNK         0.3800 
    244 H244       -4.5915  -13.7109  -50.2893 H         1 UNK         0.0800 
    245 H245       -5.8595  -14.8895  -50.0772 H         1 UNK         0.0800 
    246 H246       -5.9026  -16.3921  -47.9870 H         1 UNK         0.0800 
    247 H247       -5.7322  -14.7113  -47.5409 H         1 UNK         0.0800 
@<TRIPOS>BOND
     1    1    2 1    
     2    1  127 1    
     3    1  128 1    
     4    1  129 1    
     5    2    3 2    
     6    2    4 am   BACKBONE|DICT|INTERRES
     7    4    5 1    
     8    4  130 1    
     9    5    6 1    
    10    5   65 1    
    11    5  131 1    
    12    6    7 1    
    13    6  132 1    
    14    6  133 1    
    15    7    8 1    
    16    8    9 1    
    17    8  134 1    
    18    8  135 1    
    19    9   10 ar   
    20    9   14 ar   
    21   10   11 ar   
    22   10  136 1    
    23   11   12 ar   
    24   11  126 1    
    25   12   13 ar   
    26   12  137 1    
    27   13   14 ar   
    28   13   15 1    
    29   14  138 1    
    30   15   16 1    
    31   15  139 1    
    32   15  140 1    
    33   16   17 1    
    34   17   18 1    
    35   17  141 1    
    36   17  142 1    
    37   18   19 1    
    38   18   67 1    
    39   18  143 1    
    40   19   20 am   BACKBONE|DICT|INTERRES
    41   19  144 1    
    42   20   21 2    
    43   20   22 1    
    44   22   23 1    
    45   22   24 1    
    46   22  145 1    
    47   23  146 1    
    48   23  147 1    
    49   23  148 1    
    50   24   25 am   BACKBONE|DICT|INTERRES
    51   24  149 1    
    52   25   26 2    
    53   25   27 1    
    54   27   28 1    
    55   27   29 1    
    56   27  150 1    
    57   28  151 1    
    58   28  152 1    
    59   28  153 1    
    60   29   30 am   BACKBONE|DICT|INTERRES
    61   29  154 1    
    62   30   31 2    
    63   30   32 1    
    64   32   33 1    
    65   32   34 1    
    66   32  155 1    
    67   33  156 1    
    68   33  157 1    
    69   33  158 1    
    70   34   35 am   BACKBONE|DICT|INTERRES
    71   34  159 1    
    72   35   36 2    
    73   35   37 1    
    74   37   38 1    
    75   37   39 1    
    76   37  160 1    
    77   38  161 1    
    78   38  162 1    
    79   38  163 1    
    80   39   40 am   BACKBONE|DICT|INTERRES
    81   39  164 1    
    82   40   41 2    
    83   40   42 1    
    84   42   43 1    
    85   42   44 1    
    86   42  165 1    
    87   43  166 1    
    88   43  167 1    
    89   43  168 1    
    90   44   45 am   BACKBONE|DICT|INTERRES
    91   44  169 1    
    92   45   46 2    
    93   45   47 1    
    94   47   48 1    
    95   47   49 1    
    96   47  170 1    
    97   48  171 1    
    98   48  172 1    
    99   48  173 1    
   100   49   50 am   BACKBONE|DICT|INTERRES
   101   49  174 1    
   102   50   51 2    
   103   50   52 1    
   104   52   53 1    
   105   52   54 1    
   106   52  175 1    
   107   53  176 1    
   108   53  177 1    
   109   53  178 1    
   110   54   55 am   BACKBONE|DICT|INTERRES
   111   54  179 1    
   112   55   56 2    
   113   55   57 1    
   114   57   58 1    
   115   57   59 1    
   116   57  180 1    
   117   58  181 1    
   118   58  182 1    
   119   58  183 1    
   120   59   60 am   BACKBONE|DICT|INTERRES
   121   59  184 1    
   122   60   61 2    
   123   60   62 1    
   124   62   63 1    
   125   62   64 1    
   126   62  185 1    
   127   63  186 1    
   128   63  187 1    
   129   63  188 1    
   130   64   65 am   BACKBONE|DICT|INTERRES
   131   64  189 1    
   132   65   66 2    
   133   67   68 2    
   134   67   69 am   BACKBONE|DICT|INTERRES
   135   69   70 1    
   136   69  190 1    
   137   70   71 1    
   138   70   72 1    
   139   70  191 1    
   140   71  192 1    
   141   71  193 1    
   142   71  194 1    
   143   72   73 2    
   144   72   74 am   BACKBONE|DICT|INTERRES
   145   74   75 1    
   146   74  195 1    
   147   75   76 1    
   148   75   77 1    
   149   75  196 1    
   150   76  197 1    
   151   76  198 1    
   152   76  199 1    
   153   77   78 2    
   154   77   79 am   BACKBONE|DICT|INTERRES
   155   79   80 1    
   156   79  200 1    
   157   80   81 1    
   158   80   82 1    
   159   80  201 1    
   160   81  202 1    
   161   81  203 1    
   162   81  204 1    
   163   82   83 2    
   164   82   84 am   BACKBONE|DICT|INTERRES
   165   84   85 1    
   166   84  205 1    
   167   85   86 1    
   168   85   87 1    
   169   85  206 1    
   170   86  207 1    
   171   86  208 1    
   172   86  209 1    
   173   87   88 2    
   174   87   89 am   BACKBONE|DICT|INTERRES
   175   89   90 1    
   176   89  210 1    
   177   90   91 1    
   178   90   92 1    
   179   90  211 1    
   180   91  212 1    
   181   91  213 1    
   182   91  214 1    
   183   92   93 2    
   184   92   94 am   BACKBONE|DICT|INTERRES
   185   94   95 1    
   186   94  215 1    
   187   95   96 1    
   188   95   97 1    
   189   95  216 1    
   190   96  217 1    
   191   96  218 1    
   192   96  219 1    
   193   97   98 2    
   194   97   99 am   BACKBONE|DICT|INTERRES
   195   99  100 1    
   196   99  220 1    
   197  100  101 1    
   198  100  102 1    
   199  100  221 1    
   200  101  222 1    
   201  101  223 1    
   202  101  224 1    
   203  102  103 2    
   204  102  104 am   BACKBONE|DICT|INTERRES
   205  104  105 1    
   206  104  225 1    
   207  105  106 1    
   208  105  107 1    
   209  105  226 1    
   210  106  227 1    
   211  106  228 1    
   212  106  229 1    
   213  107  108 2    
   214  107  109 am   BACKBONE|DICT|INTERRES
   215  109  110 1    
   216  109  230 1    
   217  110  111 1    
   218  110  112 1    
   219  110  231 1    
   220  111  232 1    
   221  111  233 1    
   222  111  234 1    
   223  112  113 2    
   224  112  114 am   BACKBONE|DICT|INTERRES
   225  114  115 1    
   226  114  235 1    
   227  115  116 1    
   228  115  117 1    
   229  115  236 1    
   230  116  237 1    
   231  116  238 1    
   232  116  239 1    
   233  117  118 2    
   234  117  119 am   BACKBONE|DICT|INTERRES
   235  119  120 1    
   236  119  240 1    
   237  120  121 1    
   238  120  124 1    
   239  120  241 1    
   240  121  122 am   BACKBONE|DICT|INTERRES
   241  121  123 2    
   242  122  242 1    
   243  122  243 1    
   244  124  125 1    
   245  124  244 1    
   246  124  245 1    
   247  125  126 1    
   248  126  246 1    
   249  126  247 1    
@<TRIPOS>SUBSTRUCTURE
     1 UNK         1 GROUP             0       ****    0 ROOT    
