@<TRIPOS>MOLECULE
3R540
247   249    1
SMALL
USER_CHARGES


@<TRIPOS>ATOM
      1 CA         -2.5742  -13.2562  -47.8051 C.3       0 UNK        -0.1800 
      2 C          -1.2482  -12.6533  -48.2454 C.2       0 UNK         0.5000 
      3 O          -0.7023  -11.7972  -47.5504 O.2       0 UNK        -0.5000 
      4 N          -0.7228  -13.1028  -49.3924 N.am      1 UNK        -0.5000 
      5 CA          0.5737  -12.6904  -49.9518 C.3       1 UNK         0.1400 
      6 C6          0.7398  -13.1128  -51.4346 C.3       23 UNK        -0.0398 
      7 S7          0.3200  -14.8595  -51.7524 S.3       23 UNK        -0.2404 
      8 C8          1.9505  -15.6620  -51.8204 C.3       23 UNK        -0.0205 
      9 C9          1.7940  -17.1747  -51.8264 C.ar      23 UNK        -0.0193 
     10 C10         1.1762  -17.8044  -52.9091 C.ar      23 UNK        -0.1150 
     11 C11         0.9725  -19.1861  -52.9088 C.ar      23 UNK        -0.0193 
     12 C12         1.4202  -19.9462  -51.8242 C.ar      23 UNK        -0.1150 
     13 C13         2.0689  -19.3343  -50.7469 C.ar      23 UNK        -0.0193 
     14 C14         2.2493  -17.9467  -50.7531 C.ar      23 UNK        -0.1150 
     15 C15         2.6199  -20.1754  -49.6021 C.3       23 UNK        -0.0205 
     16 S16         1.7549  -19.8849  -48.0269 S.3       23 UNK        -0.2404 
     17 C17         0.2208  -20.8447  -48.2392 C.3       23 UNK        -0.0398 
     18 CA          0.2349  -22.1937  -47.4783 C.3       11 UNK         0.1400 
     19 N           0.4484  -22.0381  -46.0331 N.am      11 UNK        -0.5000 
     20 C           0.6886  -23.0552  -45.1917 C.2       10 UNK         0.5000 
     21 O           0.8385  -24.2196  -45.5608 O.2       10 UNK        -0.5000 
     22 CA          0.6943  -22.7364  -43.6838 C.3       10 UNK         0.1400 
     23 CB          2.0698  -22.2320  -43.2237 C.3       10 UNK        -0.1800 
     24 N          -0.3447  -21.7726  -43.3154 N.am      10 UNK        -0.5000 
     25 C          -1.6606  -22.0154  -43.3996 C.2       9 UNK         0.5000 
     26 O          -2.1263  -23.1077  -43.7164 O.2       9 UNK        -0.5000 
     27 CA         -2.6189  -20.8363  -43.1499 C.3       9 UNK         0.1400 
     28 CB         -2.9885  -20.7253  -41.6634 C.3       9 UNK        -0.1800 
     29 N          -2.0731  -19.5669  -43.6310 N.am      9 UNK        -0.5000 
     30 C          -1.8888  -19.2666  -44.9250 C.2       8 UNK         0.5000 
     31 O          -2.2204  -20.0060  -45.8530 O.2       8 UNK        -0.5000 
     32 CA         -1.1651  -17.9431  -45.2305 C.3       8 UNK         0.1400 
     33 CB         -2.1655  -16.7863  -45.3572 C.3       8 UNK        -0.1800 
     34 N          -0.1539  -17.6163  -44.2225 N.am      8 UNK        -0.5000 
     35 C           0.9983  -18.2912  -44.0863 C.2       7 UNK         0.5000 
     36 O           1.3229  -19.2266  -44.8143 O.2       7 UNK        -0.5000 
     37 CA          1.9090  -17.9033  -42.9047 C.3       7 UNK         0.1400 
     38 CB          2.7927  -16.7035  -43.2732 C.3       7 UNK        -0.1800 
     39 N           1.1508  -17.6005  -41.6894 N.am      7 UNK        -0.5000 
     40 C           0.3672  -18.4818  -41.0526 C.2       6 UNK         0.5000 
     41 O           0.2867  -19.6646  -41.3811 O.2       6 UNK        -0.5000 
     42 CA         -0.5026  -17.9719  -39.8845 C.3       6 UNK         0.1400 
     43 CB          0.0587  -18.4726  -38.5451 C.3       6 UNK        -0.1800 
     44 N          -0.6800  -16.5175  -39.8078 N.am      6 UNK        -0.5000 
     45 C          -1.2022  -15.7239  -40.7530 C.2       5 UNK         0.5000 
     46 O          -1.5404  -16.1249  -41.8707 O.2       5 UNK        -0.5000 
     47 CA         -1.3383  -14.2342  -40.3891 C.3       5 UNK         0.1400 
     48 CB         -0.0559  -13.6780  -39.7300 C.3       5 UNK        -0.1800 
     49 N          -1.6387  -13.4751  -41.5965 N.am      5 UNK        -0.5000 
     50 C          -2.1111  -12.2265  -41.6602 C.2       4 UNK         0.5000 
     51 O          -2.4598  -11.5783  -40.6715 O.2       4 UNK        -0.5000 
     52 CA         -2.1270  -11.5843  -43.0651 C.3       4 UNK         0.1400 
     53 CB         -2.6640  -10.1417  -43.0599 C.3       4 UNK        -0.1800 
     54 N          -0.7758  -11.5849  -43.6340 N.am      4 UNK        -0.5000 
     55 C          -0.2102  -12.6376  -44.2338 C.2       3 UNK         0.5000 
     56 O          -0.8128  -13.6897  -44.4672 O.2       3 UNK        -0.5000 
     57 CA          1.2878  -12.5374  -44.5497 C.3       3 UNK         0.1400 
     58 CB          2.1034  -12.8057  -43.2671 C.3       3 UNK        -0.1800 
     59 N           1.5553  -13.5230  -45.5902 N.am      3 UNK        -0.5000 
     60 C           2.7090  -13.8258  -46.1930 C.2       2 UNK         0.5000 
     61 O           3.8060  -13.3579  -45.8885 O.2       2 UNK        -0.5000 
     62 CA          2.5828  -14.7757  -47.3990 C.3       2 UNK         0.1400 
     63 CB          2.1587  -16.1874  -46.9634 C.3       2 UNK        -0.1800 
     64 N           1.6093  -14.2625  -48.3625 N.am      2 UNK        -0.5000 
     65 C           1.7758  -13.1551  -49.1013 C.2       1 UNK         0.5000 
     66 O           2.8201  -12.5027  -49.1303 O.2       1 UNK        -0.5000 
     67 C          -1.0494  -23.0026  -47.7710 C.2       11 UNK         0.5000 
     68 O          -1.0398  -23.8737  -48.6414 O.2       11 UNK        -0.5000 
     69 N          -2.1251  -22.7370  -47.0138 N.am      12 UNK        -0.5000 
     70 CA         -3.3903  -23.4713  -47.0956 C.3       12 UNK         0.1400 
     71 CB         -4.4756  -22.7404  -46.2929 C.3       12 UNK        -0.1800 
     72 C          -3.2591  -24.9407  -46.6557 C.2       12 UNK         0.5000 
     73 O          -3.8154  -25.8170  -47.3162 O.2       12 UNK        -0.5000 
     74 N          -2.4791  -25.1972  -45.5966 N.am      13 UNK        -0.5000 
     75 CA         -2.1229  -26.5380  -45.1212 C.3       13 UNK         0.1400 
     76 CB         -1.3964  -26.4284  -43.7726 C.3       13 UNK        -0.1800 
     77 C          -1.2764  -27.3332  -46.1361 C.2       13 UNK         0.5000 
     78 O          -1.4037  -28.5556  -46.2074 O.2       13 UNK        -0.5000 
     79 N          -0.4715  -26.6221  -46.9376 N.am      14 UNK        -0.5000 
     80 CA          0.2732  -27.1509  -48.0832 C.3       14 UNK         0.1400 
     81 CB          1.4835  -26.2410  -48.3543 C.3       14 UNK        -0.1800 
     82 C          -0.5942  -27.3279  -49.3521 C.2       14 UNK         0.5000 
     83 O          -0.0620  -27.7344  -50.3857 O.2       14 UNK        -0.5000 
     84 N          -1.9011  -27.0358  -49.2560 N.am      15 UNK        -0.5000 
     85 CA         -2.9355  -27.1637  -50.2864 C.3       15 UNK         0.1400 
     86 CB         -3.0926  -28.6304  -50.7419 C.3       15 UNK        -0.1800 
     87 C          -2.7713  -26.1744  -51.4577 C.2       15 UNK         0.5000 
     88 O          -3.1592  -26.4912  -52.5837 O.2       15 UNK        -0.5000 
     89 N          -2.2279  -24.9846  -51.1750 N.am      16 UNK        -0.5000 
     90 CA         -2.0483  -23.9043  -52.1392 C.3       16 UNK         0.1400 
     91 CB         -0.7020  -24.0745  -52.8702 C.3       16 UNK        -0.1800 
     92 C          -2.1714  -22.5670  -51.3987 C.2       16 UNK         0.5000 
     93 O          -1.1842  -21.8437  -51.2868 O.2       16 UNK        -0.5000 
     94 N          -3.3644  -22.3025  -50.8410 N.am      17 UNK        -0.5000 
     95 CA         -3.6785  -21.1393  -50.0023 C.3       17 UNK         0.1400 
     96 CB         -5.1671  -21.1627  -49.6236 C.3       17 UNK        -0.1800 
     97 C          -3.3065  -19.8006  -50.6623 C.2       17 UNK         0.5000 
     98 O          -3.7186  -19.5604  -51.7997 O.2       17 UNK        -0.5000 
     99 N          -2.5360  -18.9879  -49.9257 N.am      18 UNK        -0.5000 
    100 CA        -1.8523  -17.7662  -50.3547 C.3       18 UNK         0.1400 
    101 CB        -1.1805  -17.1294  -49.1246 C.3       18 UNK        -0.1800 
    102 C         -2.7646  -16.7627  -51.0846 C.2       18 UNK         0.5000 
    103 O         -3.5038  -16.0219  -50.4346 O.2       18 UNK        -0.5000 
    104 N         -2.7018  -16.7921  -52.4235 N.am      19 UNK        -0.5000 
    105 CA        -3.4928  -16.0109  -53.3812 C.3       19 UNK         0.1400 
    106 CB        -3.1761  -14.5049  -53.2633 C.3       19 UNK        -0.1800 
    107 C         -5.0088  -16.3073  -53.3334 C.2       19 UNK         0.5000 
    108 O         -5.8034  -15.4831  -53.7899 O.2       19 UNK        -0.5000 
    109 N         -5.3846  -17.4752  -52.7973 N.am      20 UNK        -0.5000 
    110 CA        -6.7674  -17.9124  -52.6149 C.3       20 UNK         0.1400 
    111 CB        -7.0720  -17.9895  -51.1107 C.3       20 UNK        -0.1800 
    112 C         -7.0434  -19.2618  -53.2972 C.2       20 UNK         0.5000 
    113 O         -8.1627  -19.4681  -53.7685 O.2       20 UNK        -0.5000 
    114 N         -6.0430  -20.1525  -53.3541 N.am      21 UNK        -0.5000 
    115 CA        -6.1660  -21.4881  -53.9435 C.3       21 UNK         0.1400 
    116 CB        -6.7137  -22.4838  -52.9014 C.3       21 UNK        -0.1800 
    117 C         -4.8451  -21.9579  -54.5769 C.2       21 UNK         0.5000 
    118 O         -4.5812  -23.1597  -54.6123 O.2       21 UNK        -0.5000 
    119 N         -4.0367  -21.0136  -55.0752 N.am      22 UNK        -0.5000 
    120 CA        -2.7583  -21.2877  -55.7584 C.3       22 UNK         0.1400 
    121 C         -2.8919  -21.9696  -57.1538 C.2       22 UNK         0.5000 
    122 N         -4.0626  -21.9914  -57.7796 N.am      22 UNK        -0.7600 
    123 O         -1.9115  -22.4915  -57.6773 O.2       22 UNK        -0.5000 
    124 C124       -1.8809  -20.0167  -55.8720 C.3       23 UNK        -0.0398 
    125 S125       -1.4436  -19.3086  -54.2510 S.3       23 UNK        -0.2404 
    126 C126        0.2876  -19.8469  -54.0938 C.3       23 UNK        -0.0205 
    127 H127       -2.8962  -14.0578  -48.4705 H         1 UNK         0.0600 
    128 H128       -3.3491  -12.4900  -47.7928 H         1 UNK         0.0600 
    129 H129       -2.4839  -13.6666  -46.7993 H         1 UNK         0.0600 
    130 H130       -1.2235  -13.7930  -49.9350 H         1 UNK         0.3000 
    131 H131        0.5953  -11.5986  -49.9279 H         1 UNK         0.0600 
    132 H132        0.0708  -12.5089  -52.0490 H         1 UNK         0.0800 
    133 H133        1.7440  -12.8954  -51.8037 H         1 UNK         0.0800 
    134 H134        2.4775  -15.3438  -52.7208 H         1 UNK         0.0800 
    135 H135        2.5561  -15.3439  -50.9712 H         1 UNK         0.0800 
    136 H136        0.8280  -17.2124  -53.7441 H         1 UNK         0.1150 
    137 H137        1.2746  -21.0173  -51.8251 H         1 UNK         0.1150 
    138 H138        2.7487  -17.4713  -49.9218 H         1 UNK         0.1150 
    139 H139        2.5851  -21.2389  -49.8436 H         1 UNK         0.0800 
    140 H140        3.6742  -19.9304  -49.4670 H         1 UNK         0.0800 
    141 H141        0.0638  -21.0059  -49.3041 H         1 UNK         0.0800 
    142 H142       -0.6080  -20.2235  -47.9025 H         1 UNK         0.0800 
    143 H143        1.0714  -22.7787  -47.8665 H         1 UNK         0.0600 
    144 H144        0.4055  -21.0961  -45.6629 H         1 UNK         0.3000 
    145 H145        0.4859  -23.6651  -43.1488 H         1 UNK         0.0600 
    146 H146        2.0736  -22.0152  -42.1552 H         1 UNK         0.0600 
    147 H147        2.8381  -22.9839  -43.4070 H         1 UNK         0.0600 
    148 H148        2.3700  -21.3269  -43.7497 H         1 UNK         0.0600 
    149 H149       -0.0362  -20.8703  -42.9697 H         1 UNK         0.3000 
    150 H150       -3.5379  -21.0317  -43.7058 H         1 UNK         0.0600 
    151 H151       -3.5061  -21.6251  -41.3285 H         1 UNK         0.0600 
    152 H152       -3.6542  -19.8814  -41.4816 H         1 UNK         0.0600 
    153 H153       -2.1103  -20.6058  -41.0305 H         1 UNK         0.0600 
    154 H154       -1.7510  -18.9113  -42.9347 H         1 UNK         0.3000 
    155 H155       -0.6630  -18.0618  -46.1929 H         1 UNK         0.0600 
    156 H156       -2.6372  -16.5525  -44.4021 H         1 UNK         0.0600 
    157 H157       -1.6733  -15.8841  -45.7186 H         1 UNK         0.0600 
    158 H158       -2.9589  -17.0274  -46.0657 H         1 UNK         0.0600 
    159 H159       -0.3947  -16.8966  -43.5506 H         1 UNK         0.3000 
    160 H160        2.5590  -18.7532  -42.6861 H         1 UNK         0.0600 
    161 H161        3.3716  -16.3531  -42.4186 H         1 UNK         0.0600 
    162 H162        2.2000  -15.8697  -43.6483 H         1 UNK         0.0600 
    163 H163        3.5039  -16.9755  -44.0531 H         1 UNK         0.0600 
    164 H164        1.1649  -16.6466  -41.3623 H         1 UNK         0.3000 
    165 H165       -1.4945  -18.4069  -40.0193 H         1 UNK         0.0600 
    166 H166       -0.6054  -18.2198  -37.7183 H         1 UNK         0.0600 
    167 H167        0.1707  -19.5578  -38.5471 H         1 UNK         0.0600 
    168 H168        1.0385  -18.0420  -38.3346 H         1 UNK         0.0600 
    169 H169       -0.4135  -16.0942  -38.9307 H         1 UNK         0.3000 
    170 H170       -2.1760  -14.1397  -39.6956 H         1 UNK         0.0600 
    171 H171       -0.1466  -12.6137  -39.5132 H         1 UNK         0.0600 
    172 H172        0.8143  -13.8098  -40.3742 H         1 UNK         0.0600 
    173 H173        0.1562  -14.1696  -38.7804 H         1 UNK         0.0600 
    174 H174       -1.4309  -13.9613  -42.4644 H         1 UNK         0.3000 
    175 H175       -2.7898  -12.1832  -43.6936 H         1 UNK         0.0600 
    176 H176       -2.6936   -9.7303  -44.0690 H         1 UNK         0.0600 
    177 H177       -2.0478   -9.4827  -42.4471 H         1 UNK         0.0600 
    178 H178       -3.6802  -10.1045  -42.6654 H         1 UNK         0.0600 
    179 H179       -0.2118  -10.7700  -43.4402 H         1 UNK         0.3000 
    180 H180        1.5117  -11.5443  -44.9429 H         1 UNK         0.0600 
    181 H181        1.8598  -13.7726  -42.8282 H         1 UNK         0.0600 
    182 H182        1.8923  -12.0499  -42.5098 H         1 UNK         0.0600 
    183 H183        3.1772  -12.7773  -43.4467 H         1 UNK         0.0600 
    184 H184        0.7070  -13.9743  -45.9086 H         1 UNK         0.3000 
    185 H185        3.5552  -14.8434  -47.8914 H         1 UNK         0.0600 
    186 H186        2.9109  -16.6378  -46.3168 H         1 UNK         0.0600 
    187 H187        1.2131  -16.1832  -46.4209 H         1 UNK         0.0600 
    188 H188        2.0392  -16.8466  -47.8215 H         1 UNK         0.0600 
    189 H189        0.7186  -14.7322  -48.4091 H         1 UNK         0.3000 
    190 H190       -2.0779  -21.9769  -46.3435 H         1 UNK         0.3000 
    191 H191       -3.6974  -23.4798  -48.1424 H         1 UNK         0.0600 
    192 H192       -4.5597  -21.6968  -46.5968 H         1 UNK         0.0600 
    193 H193       -5.4499  -23.2050  -46.4484 H         1 UNK         0.0600 
    194 H194       -4.2734  -22.7626  -45.2231 H         1 UNK         0.0600 
    195 H195       -2.1249  -24.4133  -45.0538 H         1 UNK         0.3000 
    196 H196       -3.0512  -27.0906  -44.9624 H         1 UNK         0.0600 
    197 H197       -1.1673  -27.4165  -43.3716 H         1 UNK         0.0600 
    198 H198       -2.0098  -25.9116  -43.0343 H         1 UNK         0.0600 
    199 H199       -0.4555  -25.8864  -43.8648 H         1 UNK         0.0600 
    200 H200       -0.3892  -25.6260  -46.7727 H         1 UNK         0.3000 
    201 H201        0.6544  -28.1394  -47.8197 H         1 UNK         0.0600 
    202 H202        2.0985  -26.1259  -47.4615 H         1 UNK         0.0600 
    203 H203        1.1795  -25.2471  -48.6803 H         1 UNK         0.0600 
    204 H204        2.1208  -26.6586  -49.1345 H         1 UNK         0.0600 
    205 H205       -2.2392  -26.6805  -48.3696 H         1 UNK         0.3000 
    206 H206       -3.8704  -26.8823  -49.8008 H         1 UNK         0.0600 
    207 H207       -3.2133  -29.2975  -49.8883 H         1 UNK         0.0600 
    208 H208       -3.9740  -28.7513  -51.3726 H         1 UNK         0.0600 
    209 H209       -2.2323  -28.9725  -51.3176 H         1 UNK         0.0600 
    210 H210       -1.9105  -24.7845  -50.2297 H         1 UNK         0.3000 
    211 H211       -2.8476  -23.9329  -52.8797 H         1 UNK         0.0600 
    212 H212        0.1357  -24.0761  -52.1715 H         1 UNK         0.0600 
    213 H213       -0.5392  -23.2645  -53.5817 H         1 UNK         0.0600 
    214 H214       -0.6723  -25.0092  -53.4300 H         1 UNK         0.0600 
    215 H215       -4.1105  -22.9657  -50.9834 H         1 UNK         0.3000 
    216 H216       -3.0967  -21.2409  -49.0868 H         1 UNK         0.0600 
    217 H217       -5.3956  -20.3738  -48.9058 H         1 UNK         0.0600 
    218 H218       -5.4516  -22.1089  -49.1644 H         1 UNK         0.0600 
    219 H219       -5.8081  -21.0072  -50.4906 H         1 UNK         0.0600 
    220 H220       -2.3266  -19.2759  -48.9829 H         1 UNK         0.3000 
    221 H221       -1.0607  -18.0681  -51.0423 H         1 UNK         0.0600 
    222 H222       -1.9065  -16.8966  -48.3455 H         1 UNK         0.0600 
    223 H223       -0.4260  -17.7908  -48.7003 H         1 UNK         0.0600 
    224 H224       -0.6764  -16.2010  -49.3867 H         1 UNK         0.0600 
    225 H225       -2.1002  -17.4897  -52.8447 H         1 UNK         0.3000 
    226 H226       -3.1632  -16.3350  -54.3692 H         1 UNK         0.0600 
    227 H227       -2.1084  -14.3182  -53.3703 H         1 UNK         0.0600 
    228 H228       -3.6771  -13.9340  -54.0457 H         1 UNK         0.0600 
    229 H229       -3.4959  -14.0949  -52.3052 H         1 UNK         0.0600 
    230 H230       -4.6623  -18.1007  -52.4489 H         1 UNK         0.3000 
    231 H231       -7.4577  -17.1922  -53.0585 H         1 UNK         0.0600 
    232 H232       -6.3815  -18.6545  -50.5935 H         1 UNK         0.0600 
    233 H233       -8.0837  -18.3556  -50.9309 H         1 UNK         0.0600 
    234 H234       -6.9935  -17.0063  -50.6464 H         1 UNK         0.0600 
    235 H235       -5.1504  -19.9388  -52.9137 H         1 UNK         0.3000 
    236 H236       -6.8787  -21.4447  -54.7696 H         1 UNK         0.0600 
    237 H237       -7.6312  -22.1178  -52.4406 H         1 UNK         0.0600 
    238 H238       -6.9478  -23.4429  -53.3646 H         1 UNK         0.0600 
    239 H239       -5.9908  -22.6746  -52.1099 H         1 UNK         0.0600 
    240 H240       -4.3148  -20.0460  -55.0115 H         1 UNK         0.3000 
    241 H241       -2.2130  -22.0007  -55.1368 H         1 UNK         0.0600 
    242 H242       -4.8763  -21.5660  -57.3661 H         1 UNK         0.3800 
    243 H243       -4.1350  -22.4393  -58.6799 H         1 UNK         0.3800 
    244 H244       -0.9622  -20.2276  -56.4224 H         1 UNK         0.0800 
    245 H245       -2.4020  -19.2499  -56.4474 H         1 UNK         0.0800 
    246 H246        0.8378  -19.5925  -55.0007 H         1 UNK         0.0800 
    247 H247        0.3152  -20.9336  -54.0017 H         1 UNK         0.0800 
@<TRIPOS>BOND
     1    1    2 1    
     2    1  127 1    
     3    1  128 1    
     4    1  129 1    
     5    2    3 2    
     6    2    4 am   BACKBONE|DICT|INTERRES
     7    4    5 1    
     8    4  130 1    
     9    5    6 1    
    10    5   65 1    
    11    5  131 1    
    12    6    7 1    
    13    6  132 1    
    14    6  133 1    
    15    7    8 1    
    16    8    9 1    
    17    8  134 1    
    18    8  135 1    
    19    9   10 ar   
    20    9   14 ar   
    21   10   11 ar   
    22   10  136 1    
    23   11   12 ar   
    24   11  126 1    
    25   12   13 ar   
    26   12  137 1    
    27   13   14 ar   
    28   13   15 1    
    29   14  138 1    
    30   15   16 1    
    31   15  139 1    
    32   15  140 1    
    33   16   17 1    
    34   17   18 1    
    35   17  141 1    
    36   17  142 1    
    37   18   19 1    
    38   18   67 1    
    39   18  143 1    
    40   19   20 am   BACKBONE|DICT|INTERRES
    41   19  144 1    
    42   20   21 2    
    43   20   22 1    
    44   22   23 1    
    45   22   24 1    
    46   22  145 1    
    47   23  146 1    
    48   23  147 1    
    49   23  148 1    
    50   24   25 am   BACKBONE|DICT|INTERRES
    51   24  149 1    
    52   25   26 2    
    53   25   27 1    
    54   27   28 1    
    55   27   29 1    
    56   27  150 1    
    57   28  151 1    
    58   28  152 1    
    59   28  153 1    
    60   29   30 am   BACKBONE|DICT|INTERRES
    61   29  154 1    
    62   30   31 2    
    63   30   32 1    
    64   32   33 1    
    65   32   34 1    
    66   32  155 1    
    67   33  156 1    
    68   33  157 1    
    69   33  158 1    
    70   34   35 am   BACKBONE|DICT|INTERRES
    71   34  159 1    
    72   35   36 2    
    73   35   37 1    
    74   37   38 1    
    75   37   39 1    
    76   37  160 1    
    77   38  161 1    
    78   38  162 1    
    79   38  163 1    
    80   39   40 am   BACKBONE|DICT|INTERRES
    81   39  164 1    
    82   40   41 2    
    83   40   42 1    
    84   42   43 1    
    85   42   44 1    
    86   42  165 1    
    87   43  166 1    
    88   43  167 1    
    89   43  168 1    
    90   44   45 am   BACKBONE|DICT|INTERRES
    91   44  169 1    
    92   45   46 2    
    93   45   47 1    
    94   47   48 1    
    95   47   49 1    
    96   47  170 1    
    97   48  171 1    
    98   48  172 1    
    99   48  173 1    
   100   49   50 am   BACKBONE|DICT|INTERRES
   101   49  174 1    
   102   50   51 2    
   103   50   52 1    
   104   52   53 1    
   105   52   54 1    
   106   52  175 1    
   107   53  176 1    
   108   53  177 1    
   109   53  178 1    
   110   54   55 am   BACKBONE|DICT|INTERRES
   111   54  179 1    
   112   55   56 2    
   113   55   57 1    
   114   57   58 1    
   115   57   59 1    
   116   57  180 1    
   117   58  181 1    
   118   58  182 1    
   119   58  183 1    
   120   59   60 am   BACKBONE|DICT|INTERRES
   121   59  184 1    
   122   60   61 2    
   123   60   62 1    
   124   62   63 1    
   125   62   64 1    
   126   62  185 1    
   127   63  186 1    
   128   63  187 1    
   129   63  188 1    
   130   64   65 am   BACKBONE|DICT|INTERRES
   131   64  189 1    
   132   65   66 2    
   133   67   68 2    
   134   67   69 am   BACKBONE|DICT|INTERRES
   135   69   70 1    
   136   69  190 1    
   137   70   71 1    
   138   70   72 1    
   139   70  191 1    
   140   71  192 1    
   141   71  193 1    
   142   71  194 1    
   143   72   73 2    
   144   72   74 am   BACKBONE|DICT|INTERRES
   145   74   75 1    
   146   74  195 1    
   147   75   76 1    
   148   75   77 1    
   149   75  196 1    
   150   76  197 1    
   151   76  198 1    
   152   76  199 1    
   153   77   78 2    
   154   77   79 am   BACKBONE|DICT|INTERRES
   155   79   80 1    
   156   79  200 1    
   157   80   81 1    
   158   80   82 1    
   159   80  201 1    
   160   81  202 1    
   161   81  203 1    
   162   81  204 1    
   163   82   83 2    
   164   82   84 am   BACKBONE|DICT|INTERRES
   165   84   85 1    
   166   84  205 1    
   167   85   86 1    
   168   85   87 1    
   169   85  206 1    
   170   86  207 1    
   171   86  208 1    
   172   86  209 1    
   173   87   88 2    
   174   87   89 am   BACKBONE|DICT|INTERRES
   175   89   90 1    
   176   89  210 1    
   177   90   91 1    
   178   90   92 1    
   179   90  211 1    
   180   91  212 1    
   181   91  213 1    
   182   91  214 1    
   183   92   93 2    
   184   92   94 am   BACKBONE|DICT|INTERRES
   185   94   95 1    
   186   94  215 1    
   187   95   96 1    
   188   95   97 1    
   189   95  216 1    
   190   96  217 1    
   191   96  218 1    
   192   96  219 1    
   193   97   98 2    
   194   97   99 am   BACKBONE|DICT|INTERRES
   195   99  100 1    
   196   99  220 1    
   197  100  101 1    
   198  100  102 1    
   199  100  221 1    
   200  101  222 1    
   201  101  223 1    
   202  101  224 1    
   203  102  103 2    
   204  102  104 am   BACKBONE|DICT|INTERRES
   205  104  105 1    
   206  104  225 1    
   207  105  106 1    
   208  105  107 1    
   209  105  226 1    
   210  106  227 1    
   211  106  228 1    
   212  106  229 1    
   213  107  108 2    
   214  107  109 am   BACKBONE|DICT|INTERRES
   215  109  110 1    
   216  109  230 1    
   217  110  111 1    
   218  110  112 1    
   219  110  231 1    
   220  111  232 1    
   221  111  233 1    
   222  111  234 1    
   223  112  113 2    
   224  112  114 am   BACKBONE|DICT|INTERRES
   225  114  115 1    
   226  114  235 1    
   227  115  116 1    
   228  115  117 1    
   229  115  236 1    
   230  116  237 1    
   231  116  238 1    
   232  116  239 1    
   233  117  118 2    
   234  117  119 am   BACKBONE|DICT|INTERRES
   235  119  120 1    
   236  119  240 1    
   237  120  121 1    
   238  120  124 1    
   239  120  241 1    
   240  121  122 am   BACKBONE|DICT|INTERRES
   241  121  123 2    
   242  122  242 1    
   243  122  243 1    
   244  124  125 1    
   245  124  244 1    
   246  124  245 1    
   247  125  126 1    
   248  126  246 1    
   249  126  247 1    
@<TRIPOS>SUBSTRUCTURE
     1 UNK         1 GROUP             0       ****    0 ROOT    
