@<TRIPOS>MOLECULE
3R540
247   249    1
SMALL
USER_CHARGES


@<TRIPOS>ATOM
      1 CA          0.4896  -10.3797  -51.3474 C.3       0 UNK        -0.1800 
      2 C           0.9542  -11.5907  -50.5508 C.2       0 UNK         0.5000 
      3 O           1.6253  -12.4647  -51.1004 O.2       0 UNK        -0.5000 
      4 N           0.5963  -11.6473  -49.2625 N.am      1 UNK        -0.5000 
      5 CA          0.9671  -12.7131  -48.3281 C.3       1 UNK         0.1400 
      6 C6          0.0373  -12.7568  -47.0868 C.3       23 UNK        -0.0398 
      7 S7         -1.7326  -12.8949  -47.5181 S.3       23 UNK        -0.2404 
      8 C8         -2.0903  -14.6486  -47.1915 C.3       23 UNK        -0.0205 
      9 C9         -1.4917  -15.5607  -48.2508 C.ar      23 UNK        -0.0193 
     10 C10        -2.1673  -15.7693  -49.4573 C.ar      23 UNK        -0.1150 
     11 C11        -1.6270  -16.6061  -50.4376 C.ar      23 UNK        -0.0193 
     12 C12        -0.3981  -17.2298  -50.2056 C.ar      23 UNK        -0.1150 
     13 C13         0.2874  -17.0295  -49.0046 C.ar      23 UNK        -0.0193 
     14 C14        -0.2678  -16.1984  -48.0267 C.ar      23 UNK        -0.1150 
     15 C15         1.6386  -17.6935  -48.7815 C.3       23 UNK        -0.0205 
     16 S16         1.5007  -19.4950  -48.5519 S.3       23 UNK        -0.2404 
     17 C17         0.6587  -19.5898  -46.9385 C.3       23 UNK        -0.0398 
     18 CA         -0.5286  -20.5810  -46.9118 C.3       11 UNK         0.1400 
     19 N          -0.8518  -20.9538  -45.5323 N.am      11 UNK        -0.5000 
     20 C          -1.7170  -21.9047  -45.1581 C.2       10 UNK         0.5000 
     21 O          -2.3396  -22.6170  -45.9435 O.2       10 UNK        -0.5000 
     22 CA         -1.9587  -22.0489  -43.6457 C.3       10 UNK         0.1400 
     23 CB         -0.8569  -22.8947  -42.9897 C.3       10 UNK        -0.1800 
     24 N          -2.0415  -20.7484  -42.9797 N.am      10 UNK        -0.5000 
     25 C          -3.0655  -19.8946  -43.1173 C.2       9 UNK         0.5000 
     26 O          -4.0628  -20.1294  -43.8000 O.2       9 UNK        -0.5000 
     27 CA         -2.9258  -18.5326  -42.4094 C.3       9 UNK         0.1400 
     28 CB         -3.1921  -18.6676  -40.9026 C.3       9 UNK        -0.1800 
     29 N          -1.6101  -17.9255  -42.6134 N.am      9 UNK        -0.5000 
     30 C          -1.1247  -17.5544  -43.8058 C.2       8 UNK         0.5000 
     31 O          -1.7562  -17.6313  -44.8562 O.2       8 UNK        -0.5000 
     32 CA          0.3287  -17.0602  -43.8488 C.3       8 UNK         0.1400 
     33 CB          0.3859  -15.5428  -43.6285 C.3       8 UNK        -0.1800 
     34 N           1.2079  -17.7313  -42.8921 N.am      8 UNK        -0.5000 
     35 C           1.4427  -19.0491  -42.8241 C.2       7 UNK         0.5000 
     36 O           0.9140  -19.8746  -43.5674 O.2       7 UNK        -0.5000 
     37 CA          2.4055  -19.5280  -41.7260 C.3       7 UNK         0.1400 
     38 CB          3.8566  -19.5121  -42.2287 C.3       7 UNK        -0.1800 
     39 N           2.3051  -18.7017  -40.5241 N.am      7 UNK        -0.5000 
     40 C           1.4291  -18.9030  -39.5320 C.2       6 UNK         0.5000 
     41 O           0.6302  -19.8397  -39.5044 O.2       6 UNK        -0.5000 
     42 CA          1.4417  -17.8803  -38.3785 C.3       6 UNK         0.1400 
     43 CB          2.4572  -18.2955  -37.3032 C.3       6 UNK        -0.1800 
     44 N           1.7390  -16.5142  -38.8165 N.am      6 UNK        -0.5000 
     45 C           0.9122  -15.7623  -39.5553 C.2       5 UNK         0.5000 
     46 O          -0.1937  -16.1424  -39.9432 O.2       5 UNK        -0.5000 
     47 CA          1.4131  -14.3572  -39.9520 C.3       5 UNK         0.1400 
     48 CB          1.1207  -13.3531  -38.8265 C.3       5 UNK        -0.1800 
     49 N           2.8294  -14.2482  -40.3356 N.am      5 UNK        -0.5000 
     50 C           3.4834  -15.0419  -41.1945 C.2       4 UNK         0.5000 
     51 O           3.0394  -16.1098  -41.6152 O.2       4 UNK        -0.5000 
     52 CA          4.8793  -14.5847  -41.6566 C.3       4 UNK         0.1400 
     53 CB          5.9551  -15.0976  -40.6877 C.3       4 UNK        -0.1800 
     54 N           5.1712  -15.0905  -43.0015 N.am      4 UNK        -0.5000 
     55 C           4.5384  -14.6969  -44.1154 C.2       3 UNK         0.5000 
     56 O           3.7459  -13.7525  -44.1556 O.2       3 UNK        -0.5000 
     57 CA          4.7987  -15.5436  -45.3771 C.3       3 UNK         0.1400 
     58 CB          3.9150  -16.8014  -45.3707 C.3       3 UNK        -0.1800 
     59 N           4.5278  -14.8060  -46.6096 N.am      3 UNK        -0.5000 
     60 C           5.2947  -13.8301  -47.1100 C.2       2 UNK         0.5000 
     61 O           6.3607  -13.4712  -46.6072 O.2       2 UNK        -0.5000 
     62 CA          4.7993  -13.1541  -48.4043 C.3       2 UNK         0.1400 
     63 CB          5.5035  -13.7613  -49.6277 C.3       2 UNK        -0.1800 
     64 N           3.3491  -13.2473  -48.6018 N.am      2 UNK        -0.5000 
     65 C           2.4439  -12.5351  -47.9183 C.2       1 UNK         0.5000 
     66 O           2.7386  -11.7286  -47.0344 O.2       1 UNK        -0.5000 
     67 C          -1.7596  -20.0464  -47.6798 C.2       11 UNK         0.5000 
     68 O          -1.9160  -20.3473  -48.8613 O.2       11 UNK        -0.5000 
     69 N          -2.6345  -19.3015  -46.9903 N.am      12 UNK        -0.5000 
     70 CA         -3.9103  -18.8411  -47.5276 C.3       12 UNK         0.1400 
     71 CB         -4.4766  -17.7253  -46.6389 C.3       12 UNK        -0.1800 
     72 C          -4.9337  -19.9802  -47.6647 C.2       12 UNK         0.5000 
     73 O          -5.6541  -20.0208  -48.6604 O.2       12 UNK        -0.5000 
     74 N          -4.9972  -20.8689  -46.6629 N.am      13 UNK        -0.5000 
     75 CA         -5.9349  -21.9927  -46.6115 C.3       13 UNK         0.1400 
     76 CB         -5.9530  -22.5762  -45.1906 C.3       13 UNK        -0.1800 
     77 C          -5.6323  -23.0939  -47.6446 C.2       13 UNK         0.5000 
     78 O          -6.5660  -23.6714  -48.2007 O.2       13 UNK        -0.5000 
     79 N          -4.3446  -23.3630  -47.8774 N.am      14 UNK        -0.5000 
     80 CA         -3.8409  -24.3098  -48.8631 C.3       14 UNK         0.1400 
     81 CB         -3.2000  -25.5038  -48.1341 C.3       14 UNK        -0.1800 
     82 C          -2.8394  -23.5552  -49.7444 C.2       14 UNK         0.5000 
     83 O          -1.6690  -23.4324  -49.3768 O.2       14 UNK        -0.5000 
     84 N          -3.3397  -23.0255  -50.8666 N.am      15 UNK        -0.5000 
     85 CA         -2.5936  -22.2098  -51.8238 C.3       15 UNK         0.1400 
     86 CB         -3.5821  -21.6432  -52.8534 C.3       15 UNK        -0.1800 
     87 C          -1.4689  -22.9858  -52.5351 C.2       15 UNK         0.5000 
     88 O          -1.4807  -24.2204  -52.5664 O.2       15 UNK        -0.5000 
     89 N          -0.5314  -22.2328  -53.1273 N.am      16 UNK        -0.5000 
     90 CA          0.5984  -22.7365  -53.9114 C.3       16 UNK         0.1400 
     91 CB          1.4115  -21.5459  -54.4409 C.3       16 UNK        -0.1800 
     92 C           0.1523  -23.6464  -55.0719 C.2       16 UNK         0.5000 
     93 O          -0.8466  -23.3508  -55.7314 O.2       16 UNK        -0.5000 
     94 N           0.8815  -24.7547  -55.2639 N.am      17 UNK        -0.5000 
     95 CA          0.6039  -25.8396  -56.2173 C.3       17 UNK         0.1400 
     96 CB          0.7356  -25.3382  -57.6711 C.3       17 UNK        -0.1800 
     97 C          -0.7367  -26.5696  -55.9617 C.2       17 UNK         0.5000 
     98 O          -1.2637  -27.2107  -56.8722 O.2       17 UNK        -0.5000 
     99 N          -1.2603  -26.4580  -54.7295 N.am      18 UNK        -0.5000 
    100 CA        -2.5456  -26.9760  -54.2493 C.3       18 UNK         0.1400 
    101 CB        -2.5534  -28.5191  -54.2446 C.3       18 UNK        -0.1800 
    102 C         -3.7607  -26.3683  -54.9832 C.2       18 UNK         0.5000 
    103 O         -4.7969  -27.0256  -55.1043 O.2       18 UNK        -0.5000 
    104 N         -3.6290  -25.1188  -55.4521 N.am      19 UNK        -0.5000 
    105 CA        -4.6409  -24.3723  -56.2051 C.3       19 UNK         0.1400 
    106 CB        -3.9335  -23.2625  -57.0031 C.3       19 UNK        -0.1800 
    107 C         -5.7771  -23.8276  -55.3095 C.2       19 UNK         0.5000 
    108 O         -6.0479  -22.6256  -55.3182 O.2       19 UNK        -0.5000 
    109 N         -6.4136  -24.7269  -54.5474 N.am      20 UNK        -0.5000 
    110 CA        -7.4646  -24.4789  -53.5579 C.3       20 UNK         0.1400 
    111 CB        -8.7650  -24.0055  -54.2480 C.3       20 UNK        -0.1800 
    112 C         -6.9691  -23.5625  -52.4174 C.2       20 UNK         0.5000 
    113 O         -5.9236  -23.8508  -51.8305 O.2       20 UNK        -0.5000 
    114 N         -7.7204  -22.4993  -52.1162 N.am      21 UNK        -0.5000 
    115 CA        -7.4032  -21.4900  -51.1119 C.3       21 UNK         0.1400 
    116 CB        -8.5114  -21.4935  -50.0458 C.3       21 UNK        -0.1800 
    117 C         -7.3176  -20.1122  -51.7858 C.2       21 UNK         0.5000 
    118 O         -7.9343  -19.8941  -52.8323 O.2       21 UNK        -0.5000 
    119 N         -6.5800  -19.2001  -51.1491 N.am      22 UNK        -0.5000 
    120 CA        -6.3949  -17.8039  -51.5775 C.3       22 UNK         0.1400 
    121 C         -7.5919  -16.8674  -51.2361 C.2       22 UNK         0.5000 
    122 N         -8.5741  -17.2936  -50.4508 N.am      22 UNK        -0.7600 
    123 O         -7.6344  -15.7317  -51.7009 O.2       22 UNK        -0.5000 
    124 C124       -5.0666  -17.2145  -51.0367 C.3       23 UNK        -0.0398 
    125 S125       -3.6059  -18.1392  -51.6273 S.3       23 UNK        -0.2404 
    126 C126       -2.3527  -16.8254  -51.7565 C.3       23 UNK        -0.0205 
    127 H127        1.3494   -9.8343  -51.7364 H         1 UNK         0.0600 
    128 H128       -0.1004   -9.6950  -50.7375 H         1 UNK         0.0600 
    129 H129       -0.1236  -10.6983  -52.1903 H         1 UNK         0.0600 
    130 H130        0.0485  -10.8969  -48.8669 H         1 UNK         0.3000 
    131 H131        0.8669  -13.6696  -48.8456 H         1 UNK         0.0600 
    132 H132        0.3170  -13.5817  -46.4301 H         1 UNK         0.0800 
    133 H133        0.1510  -11.8497  -46.4905 H         1 UNK         0.0800 
    134 H134       -3.1736  -14.7715  -47.1798 H         1 UNK         0.0800 
    135 H135       -1.7450  -14.9283  -46.1958 H         1 UNK         0.0800 
    136 H136       -3.1128  -15.2764  -49.6336 H         1 UNK         0.1150 
    137 H137        0.0275  -17.8766  -50.9599 H         1 UNK         0.1150 
    138 H138        0.2543  -16.0401  -47.0942 H         1 UNK         0.1150 
    139 H139        2.2764  -17.4987  -49.6448 H         1 UNK         0.0800 
    140 H140        2.1503  -17.2588  -47.9220 H         1 UNK         0.0800 
    141 H141        0.3292  -18.6014  -46.6235 H         1 UNK         0.0800 
    142 H142        1.4171  -19.8961  -46.2169 H         1 UNK         0.0800 
    143 H143       -0.2149  -21.5004  -47.4115 H         1 UNK         0.0600 
    144 H144       -0.3482  -20.4560  -44.8021 H         1 UNK         0.3000 
    145 H145       -2.9099  -22.5667  -43.5060 H         1 UNK         0.0600 
    146 H146       -1.0555  -23.0456  -41.9286 H         1 UNK         0.0600 
    147 H147       -0.7967  -23.8805  -43.4527 H         1 UNK         0.0600 
    148 H148        0.1242  -22.4284  -43.0838 H         1 UNK         0.0600 
    149 H149       -1.2324  -20.4567  -42.4504 H         1 UNK         0.3000 
    150 H150       -3.6756  -17.8601  -42.8315 H         1 UNK         0.0600 
    151 H151       -4.1720  -19.1093  -40.7168 H         1 UNK         0.0600 
    152 H152       -3.1755  -17.6941  -40.4119 H         1 UNK         0.0600 
    153 H153       -2.4476  -19.2990  -40.4155 H         1 UNK         0.0600 
    154 H154       -1.0262  -17.8029  -41.7972 H         1 UNK         0.3000 
    155 H155        0.7166  -17.2696  -44.8445 H         1 UNK         0.0600 
    156 H156       -0.0000  -15.2695  -42.6472 H         1 UNK         0.0600 
    157 H157       -0.2116  -15.0152  -44.3714 H         1 UNK         0.0600 
    158 H158        1.4054  -15.1672  -43.7074 H         1 UNK         0.0600 
    159 H159        1.7502  -17.1233  -42.2811 H         1 UNK         0.3000 
    160 H160        2.1442  -20.5606  -41.4846 H         1 UNK         0.0600 
    161 H161        4.5256  -19.9752  -41.5034 H         1 UNK         0.0600 
    162 H162        4.2122  -18.4969  -42.4050 H         1 UNK         0.0600 
    163 H163        3.9560  -20.0660  -43.1632 H         1 UNK         0.0600 
    164 H164        2.8597  -17.8540  -40.5168 H         1 UNK         0.3000 
    165 H165        0.4478  -17.8827  -37.9256 H         1 UNK         0.0600 
    166 H166        2.4179  -17.6259  -36.4438 H         1 UNK         0.0600 
    167 H167        2.2502  -19.3026  -36.9388 H         1 UNK         0.0600 
    168 H168        3.4776  -18.2890  -37.6885 H         1 UNK         0.0600 
    169 H169        2.6349  -16.1306  -38.5533 H         1 UNK         0.3000 
    170 H170        0.8335  -14.0498  -40.8236 H         1 UNK         0.0600 
    171 H171        0.0714  -13.3904  -38.5298 H         1 UNK         0.0600 
    172 H172        1.7204  -13.5587  -37.9390 H         1 UNK         0.0600 
    173 H173        1.3291  -12.3311  -39.1437 H         1 UNK         0.0600 
    174 H174        3.2983  -13.4127  -40.0167 H         1 UNK         0.3000 
    175 H175        4.9076  -13.4934  -41.6792 H         1 UNK         0.0600 
    176 H176        5.9603  -16.1872  -40.6317 H         1 UNK         0.0600 
    177 H177        6.9494  -14.7724  -40.9943 H         1 UNK         0.0600 
    178 H178        5.7874  -14.7181  -39.6790 H         1 UNK         0.0600 
    179 H179        5.7772  -15.8960  -43.0472 H         1 UNK         0.3000 
    180 H180        5.8468  -15.8506  -45.3782 H         1 UNK         0.0600 
    181 H181        2.8582  -16.5438  -45.4282 H         1 UNK         0.0600 
    182 H182        4.0604  -17.3834  -44.4613 H         1 UNK         0.0600 
    183 H183        4.1480  -17.4538  -46.2124 H         1 UNK         0.0600 
    184 H184        3.6557  -15.0036  -47.0739 H         1 UNK         0.3000 
    185 H185        5.0715  -12.0980  -48.3465 H         1 UNK         0.0600 
    186 H186        6.5875  -13.6819  -49.5348 H         1 UNK         0.0600 
    187 H187        5.2607  -14.8178  -49.7488 H         1 UNK         0.0600 
    188 H188        5.2186  -13.2435  -50.5439 H         1 UNK         0.0600 
    189 H189        3.0334  -13.8258  -49.3682 H         1 UNK         0.3000 
    190 H190       -2.4019  -19.0009  -46.0487 H         1 UNK         0.3000 
    191 H191       -3.7236  -18.4269  -48.5193 H         1 UNK         0.0600 
    192 H192       -4.6955  -18.0825  -45.6320 H         1 UNK         0.0600 
    193 H193       -5.4002  -17.3229  -47.0566 H         1 UNK         0.0600 
    194 H194       -3.7718  -16.9018  -46.5490 H         1 UNK         0.0600 
    195 H195       -4.3976  -20.7398  -45.8566 H         1 UNK         0.3000 
    196 H196       -6.9326  -21.6052  -46.8287 H         1 UNK         0.0600 
    197 H197       -6.6633  -23.4004  -45.1154 H         1 UNK         0.0600 
    198 H198       -6.2488  -21.8241  -44.4590 H         1 UNK         0.0600 
    199 H199       -4.9739  -22.9586  -44.9009 H         1 UNK         0.0600 
    200 H200       -3.6326  -22.8653  -47.3476 H         1 UNK         0.3000 
    201 H201       -4.6459  -24.6874  -49.4973 H         1 UNK         0.0600 
    202 H202       -3.9413  -26.0490  -47.5499 H         1 UNK         0.0600 
    203 H203       -2.4085  -25.1859  -47.4540 H         1 UNK         0.0600 
    204 H204       -2.7632  -26.2050  -48.8460 H         1 UNK         0.0600 
    205 H205       -4.3016  -23.2390  -51.1196 H         1 UNK         0.3000 
    206 H206       -2.1446  -21.3787  -51.2777 H         1 UNK         0.0600 
    207 H207       -4.3886  -21.0934  -52.3688 H         1 UNK         0.0600 
    208 H208       -3.0897  -20.9551  -53.5413 H         1 UNK         0.0600 
    209 H209       -4.0288  -22.4381  -53.4489 H         1 UNK         0.0600 
    210 H210       -0.6197  -21.2288  -53.0778 H         1 UNK         0.3000 
    211 H211        1.2303  -23.3142  -53.2339 H         1 UNK         0.0600 
    212 H212        0.8143  -20.9133  -55.0992 H         1 UNK         0.0600 
    213 H213        2.2774  -21.8862  -55.0103 H         1 UNK         0.0600 
    214 H214        1.7838  -20.9261  -53.6249 H         1 UNK         0.0600 
    215 H215        1.6801  -24.9093  -54.6635 H         1 UNK         0.3000 
    216 H216        1.3826  -26.5867  -56.0580 H         1 UNK         0.0600 
    217 H217        0.6983  -26.1688  -58.3769 H         1 UNK         0.0600 
    218 H218        1.6846  -24.8254  -57.8274 H         1 UNK         0.0600 
    219 H219       -0.0665  -24.6494  -57.9375 H         1 UNK         0.0600 
    220 H220       -0.7718  -25.8716  -54.0646 H         1 UNK         0.3000 
    221 H221       -2.6332  -26.6484  -53.2126 H         1 UNK         0.0600 
    222 H222       -2.5479  -28.9290  -55.2548 H         1 UNK         0.0600 
    223 H223       -1.6870  -28.9162  -53.7159 H         1 UNK         0.0600 
    224 H224       -3.4417  -28.9039  -53.7423 H         1 UNK         0.0600 
    225 H225       -2.7472  -24.6432  -55.3049 H         1 UNK         0.3000 
    226 H226       -5.1023  -25.0504  -56.9259 H         1 UNK         0.0600 
    227 H227       -4.6380  -22.7245  -57.6385 H         1 UNK         0.0600 
    228 H228       -3.4609  -22.5338  -56.3430 H         1 UNK         0.0600 
    229 H229       -3.1605  -23.6744  -57.6524 H         1 UNK         0.0600 
    230 H230       -6.0754  -25.6836  -54.6014 H         1 UNK         0.3000 
    231 H231       -7.6750  -25.4433  -53.0937 H         1 UNK         0.0600 
    232 H232       -9.0680  -24.7059  -55.0264 H         1 UNK         0.0600 
    233 H233       -8.6527  -23.0257  -54.7136 H         1 UNK         0.0600 
    234 H234       -9.5901  -23.9457  -53.5373 H         1 UNK         0.0600 
    235 H235       -8.5103  -22.2816  -52.7076 H         1 UNK         0.3000 
    236 H236       -6.4456  -21.7070  -50.6335 H         1 UNK         0.0600 
    237 H237       -8.6142  -22.4779  -49.5894 H         1 UNK         0.0600 
    238 H238       -8.2864  -20.7887  -49.2447 H         1 UNK         0.0600 
    239 H239       -9.4792  -21.2187  -50.4671 H         1 UNK         0.0600 
    240 H240       -6.1404  -19.4611  -50.2667 H         1 UNK         0.3000 
    241 H241       -6.3276  -17.8021  -52.6672 H         1 UNK         0.0600 
    242 H242       -9.3457  -16.6793  -50.2426 H         1 UNK         0.3800 
    243 H243       -8.5520  -18.2224  -50.0628 H         1 UNK         0.3800 
    244 H244       -5.0678  -17.2059  -49.9467 H         1 UNK         0.0800 
    245 H245       -4.9665  -16.1734  -51.3474 H         1 UNK         0.0800 
    246 H246       -1.6356  -17.1116  -52.5273 H         1 UNK         0.0800 
    247 H247       -2.8030  -15.8942  -52.1025 H         1 UNK         0.0800 
@<TRIPOS>BOND
     1    1    2 1    
     2    1  127 1    
     3    1  128 1    
     4    1  129 1    
     5    2    3 2    
     6    2    4 am   BACKBONE|DICT|INTERRES
     7    4    5 1    
     8    4  130 1    
     9    5    6 1    
    10    5   65 1    
    11    5  131 1    
    12    6    7 1    
    13    6  132 1    
    14    6  133 1    
    15    7    8 1    
    16    8    9 1    
    17    8  134 1    
    18    8  135 1    
    19    9   10 ar   
    20    9   14 ar   
    21   10   11 ar   
    22   10  136 1    
    23   11   12 ar   
    24   11  126 1    
    25   12   13 ar   
    26   12  137 1    
    27   13   14 ar   
    28   13   15 1    
    29   14  138 1    
    30   15   16 1    
    31   15  139 1    
    32   15  140 1    
    33   16   17 1    
    34   17   18 1    
    35   17  141 1    
    36   17  142 1    
    37   18   19 1    
    38   18   67 1    
    39   18  143 1    
    40   19   20 am   BACKBONE|DICT|INTERRES
    41   19  144 1    
    42   20   21 2    
    43   20   22 1    
    44   22   23 1    
    45   22   24 1    
    46   22  145 1    
    47   23  146 1    
    48   23  147 1    
    49   23  148 1    
    50   24   25 am   BACKBONE|DICT|INTERRES
    51   24  149 1    
    52   25   26 2    
    53   25   27 1    
    54   27   28 1    
    55   27   29 1    
    56   27  150 1    
    57   28  151 1    
    58   28  152 1    
    59   28  153 1    
    60   29   30 am   BACKBONE|DICT|INTERRES
    61   29  154 1    
    62   30   31 2    
    63   30   32 1    
    64   32   33 1    
    65   32   34 1    
    66   32  155 1    
    67   33  156 1    
    68   33  157 1    
    69   33  158 1    
    70   34   35 am   BACKBONE|DICT|INTERRES
    71   34  159 1    
    72   35   36 2    
    73   35   37 1    
    74   37   38 1    
    75   37   39 1    
    76   37  160 1    
    77   38  161 1    
    78   38  162 1    
    79   38  163 1    
    80   39   40 am   BACKBONE|DICT|INTERRES
    81   39  164 1    
    82   40   41 2    
    83   40   42 1    
    84   42   43 1    
    85   42   44 1    
    86   42  165 1    
    87   43  166 1    
    88   43  167 1    
    89   43  168 1    
    90   44   45 am   BACKBONE|DICT|INTERRES
    91   44  169 1    
    92   45   46 2    
    93   45   47 1    
    94   47   48 1    
    95   47   49 1    
    96   47  170 1    
    97   48  171 1    
    98   48  172 1    
    99   48  173 1    
   100   49   50 am   BACKBONE|DICT|INTERRES
   101   49  174 1    
   102   50   51 2    
   103   50   52 1    
   104   52   53 1    
   105   52   54 1    
   106   52  175 1    
   107   53  176 1    
   108   53  177 1    
   109   53  178 1    
   110   54   55 am   BACKBONE|DICT|INTERRES
   111   54  179 1    
   112   55   56 2    
   113   55   57 1    
   114   57   58 1    
   115   57   59 1    
   116   57  180 1    
   117   58  181 1    
   118   58  182 1    
   119   58  183 1    
   120   59   60 am   BACKBONE|DICT|INTERRES
   121   59  184 1    
   122   60   61 2    
   123   60   62 1    
   124   62   63 1    
   125   62   64 1    
   126   62  185 1    
   127   63  186 1    
   128   63  187 1    
   129   63  188 1    
   130   64   65 am   BACKBONE|DICT|INTERRES
   131   64  189 1    
   132   65   66 2    
   133   67   68 2    
   134   67   69 am   BACKBONE|DICT|INTERRES
   135   69   70 1    
   136   69  190 1    
   137   70   71 1    
   138   70   72 1    
   139   70  191 1    
   140   71  192 1    
   141   71  193 1    
   142   71  194 1    
   143   72   73 2    
   144   72   74 am   BACKBONE|DICT|INTERRES
   145   74   75 1    
   146   74  195 1    
   147   75   76 1    
   148   75   77 1    
   149   75  196 1    
   150   76  197 1    
   151   76  198 1    
   152   76  199 1    
   153   77   78 2    
   154   77   79 am   BACKBONE|DICT|INTERRES
   155   79   80 1    
   156   79  200 1    
   157   80   81 1    
   158   80   82 1    
   159   80  201 1    
   160   81  202 1    
   161   81  203 1    
   162   81  204 1    
   163   82   83 2    
   164   82   84 am   BACKBONE|DICT|INTERRES
   165   84   85 1    
   166   84  205 1    
   167   85   86 1    
   168   85   87 1    
   169   85  206 1    
   170   86  207 1    
   171   86  208 1    
   172   86  209 1    
   173   87   88 2    
   174   87   89 am   BACKBONE|DICT|INTERRES
   175   89   90 1    
   176   89  210 1    
   177   90   91 1    
   178   90   92 1    
   179   90  211 1    
   180   91  212 1    
   181   91  213 1    
   182   91  214 1    
   183   92   93 2    
   184   92   94 am   BACKBONE|DICT|INTERRES
   185   94   95 1    
   186   94  215 1    
   187   95   96 1    
   188   95   97 1    
   189   95  216 1    
   190   96  217 1    
   191   96  218 1    
   192   96  219 1    
   193   97   98 2    
   194   97   99 am   BACKBONE|DICT|INTERRES
   195   99  100 1    
   196   99  220 1    
   197  100  101 1    
   198  100  102 1    
   199  100  221 1    
   200  101  222 1    
   201  101  223 1    
   202  101  224 1    
   203  102  103 2    
   204  102  104 am   BACKBONE|DICT|INTERRES
   205  104  105 1    
   206  104  225 1    
   207  105  106 1    
   208  105  107 1    
   209  105  226 1    
   210  106  227 1    
   211  106  228 1    
   212  106  229 1    
   213  107  108 2    
   214  107  109 am   BACKBONE|DICT|INTERRES
   215  109  110 1    
   216  109  230 1    
   217  110  111 1    
   218  110  112 1    
   219  110  231 1    
   220  111  232 1    
   221  111  233 1    
   222  111  234 1    
   223  112  113 2    
   224  112  114 am   BACKBONE|DICT|INTERRES
   225  114  115 1    
   226  114  235 1    
   227  115  116 1    
   228  115  117 1    
   229  115  236 1    
   230  116  237 1    
   231  116  238 1    
   232  116  239 1    
   233  117  118 2    
   234  117  119 am   BACKBONE|DICT|INTERRES
   235  119  120 1    
   236  119  240 1    
   237  120  121 1    
   238  120  124 1    
   239  120  241 1    
   240  121  122 am   BACKBONE|DICT|INTERRES
   241  121  123 2    
   242  122  242 1    
   243  122  243 1    
   244  124  125 1    
   245  124  244 1    
   246  124  245 1    
   247  125  126 1    
   248  126  246 1    
   249  126  247 1    
@<TRIPOS>SUBSTRUCTURE
     1 UNK         1 GROUP             0       ****    0 ROOT    
