@<TRIPOS>MOLECULE
3R540
247   249    1
SMALL
USER_CHARGES


@<TRIPOS>ATOM
      1 CA         -4.8761  -14.0879  -44.4394 C.3       0 UNK        -0.1800 
      2 C          -4.4180  -13.8652  -45.8739 C.2       0 UNK         0.5000 
      3 O          -4.8004  -12.8730  -46.4939 O.2       0 UNK        -0.5000 
      4 N          -3.5995  -14.7855  -46.3993 N.am      1 UNK        -0.5000 
      5 CA         -3.0339  -14.7529  -47.7559 C.3       1 UNK         0.1400 
      6 C6         -2.3245  -16.0796  -48.1250 C.3       23 UNK        -0.0398 
      7 S7         -3.3676  -17.5635  -47.9113 S.3       23 UNK        -0.2404 
      8 C8         -3.7039  -18.0481  -49.6342 C.3       23 UNK        -0.0205 
      9 C9         -2.4506  -18.5272  -50.3527 C.ar      23 UNK        -0.0193 
     10 C10        -1.7869  -17.6877  -51.2517 C.ar      23 UNK        -0.1150 
     11 C11        -0.6381  -18.1208  -51.9175 C.ar      23 UNK        -0.0193 
     12 C12        -0.1492  -19.4070  -51.6731 C.ar      23 UNK        -0.1150 
     13 C13        -0.8087  -20.2601  -50.7838 C.ar      23 UNK        -0.0193 
     14 C14        -1.9589  -19.8152  -50.1262 C.ar      23 UNK        -0.1150 
     15 C15        -0.2944  -21.6724  -50.5605 C.3       23 UNK        -0.0205 
     16 S16         1.2791  -21.7065  -49.6462 S.3       23 UNK        -0.2404 
     17 C17         0.7737  -21.2154  -47.9629 C.3       23 UNK        -0.0398 
     18 CA          0.5653  -22.4408  -47.0375 C.3       11 UNK         0.1400 
     19 N           0.9888  -22.1828  -45.6570 N.am      11 UNK        -0.5000 
     20 C           1.1233  -23.1351  -44.7224 C.2       10 UNK         0.5000 
     21 O           0.9141  -24.3286  -44.9326 O.2       10 UNK        -0.5000 
     22 CA          1.4992  -22.6819  -43.3017 C.3       10 UNK         0.1400 
     23 CB          2.9989  -22.3676  -43.2011 C.3       10 UNK        -0.1800 
     24 N           0.7103  -21.5343  -42.8554 N.am      10 UNK        -0.5000 
     25 C          -0.6210  -21.5548  -42.6942 C.2       9 UNK         0.5000 
     26 O          -1.3129  -22.5597  -42.8543 O.2       9 UNK        -0.5000 
     27 CA         -1.3032  -20.2238  -42.3354 C.3       9 UNK         0.1400 
     28 CB         -1.2080  -19.9570  -40.8261 C.3       9 UNK        -0.1800 
     29 N          -0.7592  -19.0847  -43.0754 N.am      9 UNK        -0.5000 
     30 C          -0.7908  -18.9527  -44.4099 C.2       8 UNK         0.5000 
     31 O          -1.3002  -19.7748  -45.1707 O.2       8 UNK        -0.5000 
     32 CA         -0.0774  -17.7223  -44.9967 C.3       8 UNK         0.1400 
     33 CB         -0.8867  -16.4430  -44.7400 C.3       8 UNK        -0.1800 
     34 N           1.2751  -17.5619  -44.4660 N.am      8 UNK        -0.5000 
     35 C           2.2569  -18.4664  -44.5896 C.2       7 UNK         0.5000 
     36 O           2.1516  -19.5138  -45.2282 O.2       7 UNK        -0.5000 
     37 CA          3.5562  -18.1737  -43.8223 C.3       7 UNK         0.1400 
     38 CB          4.4562  -17.2109  -44.6112 C.3       7 UNK        -0.1800 
     39 N           3.2864  -17.6257  -42.4923 N.am      7 UNK        -0.5000 
     40 C           2.7647  -18.3309  -41.4783 C.2       6 UNK         0.5000 
     41 O           2.4838  -19.5268  -41.5510 O.2       6 UNK        -0.5000 
     42 CA          2.4731  -17.5611  -40.1772 C.3       6 UNK         0.1400 
     43 CB          3.7501  -17.4097  -39.3374 C.3       6 UNK        -0.1800 
     44 N           1.8924  -16.2404  -40.4225 N.am      6 UNK        -0.5000 
     45 C           0.6788  -16.0368  -40.9534 C.2       5 UNK         0.5000 
     46 O          -0.0926  -16.9442  -41.2602 O.2       5 UNK        -0.5000 
     47 CA          0.2737  -14.5775  -41.2297 C.3       5 UNK         0.1400 
     48 CB         -0.3961  -13.9597  -39.9939 C.3       5 UNK        -0.1800 
     49 N           1.3801  -13.7191  -41.6588 N.am      5 UNK        -0.5000 
     50 C           2.1548  -13.9251  -42.7314 C.2       4 UNK         0.5000 
     51 O           2.0717  -14.9200  -43.4542 O.2       4 UNK        -0.5000 
     52 CA          3.1538  -12.8010  -43.0666 C.3       4 UNK         0.1400 
     53 CB          4.2731  -13.2744  -44.0105 C.3       4 UNK        -0.1800 
     54 N           2.4462  -11.6888  -43.6945 N.am      4 UNK        -0.5000 
     55 C           1.6717  -10.7983  -43.0586 C.2       3 UNK         0.5000 
     56 O           1.5968  -10.7131  -41.8317 O.2       3 UNK        -0.5000 
     57 CA          0.8051   -9.8785  -43.9435 C.3       3 UNK         0.1400 
     58 CB          1.5045   -8.5291  -44.1663 C.3       3 UNK        -0.1800 
     59 N           0.4786  -10.4730  -45.2452 N.am      3 UNK        -0.5000 
     60 C          -0.2840  -11.5617  -45.4168 C.2       2 UNK         0.5000 
     61 O          -0.8599  -12.1515  -44.4974 O.2       2 UNK        -0.5000 
     62 CA         -0.3786  -12.1025  -46.8504 C.3       2 UNK         0.1400 
     63 CB          0.9724  -12.6882  -47.3074 C.3       2 UNK        -0.1800 
     64 N          -1.3960  -13.1439  -46.8851 N.am      2 UNK        -0.5000 
     65 C          -2.0452  -13.5846  -47.9677 C.2       1 UNK         0.5000 
     66 O          -1.8755  -13.1297  -49.0995 O.2       1 UNK        -0.5000 
     67 C          -0.8836  -22.9663  -47.1085 C.2       11 UNK         0.5000 
     68 O          -1.1515  -23.9233  -47.8381 O.2       11 UNK        -0.5000 
     69 N          -1.7829  -22.3658  -46.3167 N.am      12 UNK        -0.5000 
     70 CA         -3.1808  -22.7767  -46.1831 C.3       12 UNK         0.1400 
     71 CB         -3.9408  -21.7417  -45.3415 C.3       12 UNK        -0.1800 
     72 C          -3.3512  -24.1915  -45.5940 C.2       12 UNK         0.5000 
     73 O          -4.3077  -24.8788  -45.9490 O.2       12 UNK        -0.5000 
     74 N          -2.4244  -24.6092  -44.7233 N.am      13 UNK        -0.5000 
     75 CA         -2.3717  -25.9583  -44.1683 C.3       13 UNK         0.1400 
     76 CB         -1.5976  -25.9357  -42.8405 C.3       13 UNK        -0.1800 
     77 C          -1.7462  -26.9643  -45.1514 C.2       13 UNK         0.5000 
     78 O          -2.3142  -28.0364  -45.3627 O.2       13 UNK        -0.5000 
     79 N          -0.5759  -26.6191  -45.7058 N.am      14 UNK        -0.5000 
     80 CA          0.2475  -27.5158  -46.5160 C.3       14 UNK         0.1400 
     81 CB          1.6920  -26.9912  -46.5545 C.3       14 UNK        -0.1800 
     82 C          -0.2874  -27.7243  -47.9415 C.2       14 UNK         0.5000 
     83 O          -0.4084  -28.8699  -48.3785 O.2       14 UNK        -0.5000 
     84 N          -0.5651  -26.6223  -48.6481 N.am      15 UNK        -0.5000 
     85 CA         -0.9830  -26.6294  -50.0505 C.3       15 UNK         0.1400 
     86 CB         -0.2203  -25.5328  -50.8104 C.3       15 UNK        -0.1800 
     87 C          -2.4980  -26.4281  -50.1923 C.2       15 UNK         0.5000 
     88 O          -3.1043  -27.0405  -51.0717 O.2       15 UNK        -0.5000 
     89 N          -3.0752  -25.5766  -49.3302 N.am      16 UNK        -0.5000 
     90 CA         -4.4987  -25.2160  -49.2699 C.3       16 UNK         0.1400 
     91 CB         -5.3569  -26.4315  -48.8605 C.3       16 UNK        -0.1800 
     92 C          -5.0189  -24.5086  -50.5400 C.2       16 UNK         0.5000 
     93 O          -6.2057  -24.6026  -50.8600 O.2       16 UNK        -0.5000 
     94 N          -4.1204  -23.8034  -51.2379 N.am      17 UNK        -0.5000 
     95 CA         -4.4261  -22.9982  -52.4167 C.3       17 UNK         0.1400 
     96 CB         -3.1208  -22.7282  -53.1790 C.3       17 UNK        -0.1800 
     97 C          -5.0998  -21.6675  -52.0395 C.2       17 UNK         0.5000 
     98 O          -4.9288  -21.1799  -50.9200 O.2       17 UNK        -0.5000 
     99 N          -5.8150  -21.0858  -53.0069 N.am      18 UNK        -0.5000 
    100 CA        -6.3093  -19.7126  -52.9530 C.3       18 UNK         0.1400 
    101 CB        -7.6035  -19.6212  -53.7765 C.3       18 UNK        -0.1800 
    102 C         -5.2481  -18.7644  -53.5336 C.2       18 UNK         0.5000 
    103 O         -4.4582  -19.1819  -54.3850 O.2       18 UNK        -0.5000 
    104 N         -5.2913  -17.4891  -53.1263 N.am      19 UNK        -0.5000 
    105 CA        -4.3741  -16.4306  -53.5724 C.3       19 UNK         0.1400 
    106 CB        -4.6036  -15.1745  -52.7169 C.3       19 UNK        -0.1800 
    107 C         -4.4591  -16.0888  -55.0749 C.2       19 UNK         0.5000 
    108 O         -3.5469  -15.4563  -55.6069 O.2       19 UNK        -0.5000 
    109 N         -5.5388  -16.5223  -55.7372 N.am      20 UNK        -0.5000 
    110 CA        -5.7180  -16.4407  -57.1854 C.3       20 UNK         0.1400 
    111 CB        -7.2078  -16.6428  -57.5047 C.3       20 UNK        -0.1800 
    112 C         -4.8593  -17.4590  -57.9661 C.2       20 UNK         0.5000 
    113 O         -4.6699  -17.2720  -59.1690 O.2       20 UNK        -0.5000 
    114 N         -4.3796  -18.5157  -57.2937 N.am      21 UNK        -0.5000 
    115 CA        -3.6224  -19.6131  -57.8954 C.3       21 UNK         0.1400 
    116 CB        -4.4388  -20.9108  -57.7714 C.3       21 UNK        -0.1800 
    117 C         -2.2415  -19.7810  -57.2436 C.2       21 UNK         0.5000 
    118 O         -1.2483  -19.8982  -57.9617 O.2       21 UNK        -0.5000 
    119 N         -2.2060  -19.8133  -55.9046 N.am      22 UNK        -0.5000 
    120 CA        -1.0218  -20.0489  -55.0566 C.3       22 UNK         0.1400 
    121 C         -0.3674  -21.4609  -55.1885 C.2       22 UNK         0.5000 
    122 N         -0.9806  -22.4245  -55.8649 N.am      22 UNK        -0.7600 
    123 O          0.7009  -21.7048  -54.6347 O.2       22 UNK        -0.5000 
    124 C124        0.0305  -18.9071  -55.1408 C.3       23 UNK        -0.0398 
    125 S125       -0.6234  -17.3015  -54.5721 S.3       23 UNK        -0.2404 
    126 C126        0.0732  -17.1929  -52.8915 C.3       23 UNK        -0.0205 
    127 H127       -4.4663  -15.0073  -44.0205 H         1 UNK         0.0600 
    128 H128       -5.9635  -14.1498  -44.3976 H         1 UNK         0.0600 
    129 H129       -4.5558  -13.2567  -43.8110 H         1 UNK         0.0600 
    130 H130       -3.3644  -15.6013  -45.8541 H         1 UNK         0.3000 
    131 H131       -3.8620  -14.6064  -48.4528 H         1 UNK         0.0600 
    132 H132       -1.9687  -16.0286  -49.1528 H         1 UNK         0.0800 
    133 H133       -1.4285  -16.2199  -47.5199 H         1 UNK         0.0800 
    134 H134       -4.1601  -17.2120  -50.1640 H         1 UNK         0.0800 
    135 H135       -4.4461  -18.8473  -49.6341 H         1 UNK         0.0800 
    136 H136       -2.1610  -16.6904  -51.4316 H         1 UNK         0.1150 
    137 H137        0.7395  -19.7532  -52.1819 H         1 UNK         0.1150 
    138 H138       -2.4788  -20.4695  -49.4401 H         1 UNK         0.1150 
    139 H139       -1.0382  -22.2749  -50.0391 H         1 UNK         0.0800 
    140 H140       -0.1408  -22.1487  -51.5301 H         1 UNK         0.0800 
    141 H141       -0.0981  -20.5589  -47.9878 H         1 UNK         0.0800 
    142 H142        1.5866  -20.5965  -47.5825 H         1 UNK         0.0800 
    143 H143        1.2086  -23.2492  -47.3929 H         1 UNK         0.0600 
    144 H144        1.2014  -21.2193  -45.4131 H         1 UNK         0.3000 
    145 H145        1.2856  -23.5118  -42.6247 H         1 UNK         0.0600 
    146 H146        3.2836  -22.1321  -42.1756 H         1 UNK         0.0600 
    147 H147        3.5982  -23.2228  -43.5159 H         1 UNK         0.0600 
    148 H148        3.2794  -21.5221  -43.8285 H         1 UNK         0.0600 
    149 H149        1.2198  -20.6807  -42.6519 H         1 UNK         0.3000 
    150 H150       -2.3592  -20.3124  -42.5973 H         1 UNK         0.0600 
    151 H151       -1.6107  -20.7939  -40.2541 H         1 UNK         0.0600 
    152 H152       -1.7762  -19.0697  -40.5469 H         1 UNK         0.0600 
    153 H153       -0.1756  -19.8068  -40.5084 H         1 UNK         0.0600 
    154 H154       -0.3474  -18.3420  -42.5159 H         1 UNK         0.3000 
    155 H155        0.0019  -17.8677  -46.0761 H         1 UNK         0.0600 
    156 H156       -0.9544  -16.2130  -43.6784 H         1 UNK         0.0600 
    157 H157       -1.9052  -16.5549  -45.1085 H         1 UNK         0.0600 
    158 H158       -0.4398  -15.5833  -45.2398 H         1 UNK         0.0600 
    159 H159        1.4717  -16.7039  -43.9582 H         1 UNK         0.3000 
    160 H160        4.0945  -19.1160  -43.7003 H         1 UNK         0.0600 
    161 H161        3.9651  -16.2558  -44.7971 H         1 UNK         0.0600 
    162 H162        4.7202  -17.6349  -45.5807 H         1 UNK         0.0600 
    163 H163        5.3865  -17.0128  -44.0787 H         1 UNK         0.0600 
    164 H164        3.4190  -16.6317  -42.3767 H         1 UNK         0.3000 
    165 H165        1.7534  -18.1457  -39.6000 H         1 UNK         0.0600 
    166 H166        3.5373  -16.9371  -38.3783 H         1 UNK         0.0600 
    167 H167        4.1957  -18.3829  -39.1270 H         1 UNK         0.0600 
    168 H168        4.5022  -16.8079  -39.8491 H         1 UNK         0.0600 
    169 H169        2.4625  -15.4373  -40.2015 H         1 UNK         0.3000 
    170 H170       -0.4581  -14.5866  -42.0392 H         1 UNK         0.0600 
    171 H171       -1.2423  -14.5643  -39.6645 H         1 UNK         0.0600 
    172 H172        0.2983  -13.8812  -39.1564 H         1 UNK         0.0600 
    173 H173       -0.7764  -12.9610  -40.2100 H         1 UNK         0.0600 
    174 H174        1.4790  -12.8361  -41.1731 H         1 UNK         0.3000 
    175 H175        3.6151  -12.4613  -42.1369 H         1 UNK         0.0600 
    176 H176        3.8806  -13.6045  -44.9733 H         1 UNK         0.0600 
    177 H177        4.9918  -12.4768  -44.1988 H         1 UNK         0.0600 
    178 H178        4.8228  -14.1098  -43.5750 H         1 UNK         0.0600 
    179 H179        2.4253  -11.6907  -44.7029 H         1 UNK         0.3000 
    180 H180       -0.1305   -9.6967  -43.4103 H         1 UNK         0.0600 
    181 H181        2.4408   -8.6458  -44.7135 H         1 UNK         0.0600 
    182 H182        1.7380   -8.0488  -43.2151 H         1 UNK         0.0600 
    183 H183        0.8696   -7.8431  -44.7274 H         1 UNK         0.0600 
    184 H184        0.9062  -10.0424  -46.0527 H         1 UNK         0.3000 
    185 H185       -0.6743  -11.2834  -47.5090 H         1 UNK         0.0600 
    186 H186        0.9104  -13.0873  -48.3199 H         1 UNK         0.0600 
    187 H187        1.7546  -11.9286  -47.3124 H         1 UNK         0.0600 
    188 H188        1.3008  -13.4958  -46.6511 H         1 UNK         0.0600 
    189 H189       -1.6417  -13.5063  -45.9721 H         1 UNK         0.3000 
    190 H190       -1.4991  -21.5521  -45.7754 H         1 UNK         0.3000 
    191 H191       -3.6162  -22.7781  -47.1836 H         1 UNK         0.0600 
    192 H192       -3.5351  -21.6703  -44.3324 H         1 UNK         0.0600 
    193 H193       -4.9953  -22.0062  -45.2547 H         1 UNK         0.0600 
    194 H194       -3.8898  -20.7512  -45.7946 H         1 UNK         0.0600 
    195 H195       -1.7085  -23.9591  -44.4208 H         1 UNK         0.3000 
    196 H196       -3.3892  -26.2907  -43.9512 H         1 UNK         0.0600 
    197 H197       -1.5457  -26.9326  -42.4011 H         1 UNK         0.0600 
    198 H198       -2.0845  -25.2846  -42.1143 H         1 UNK         0.0600 
    199 H199       -0.5753  -25.5798  -42.9716 H         1 UNK         0.0600 
    200 H200       -0.1573  -25.7244  -45.4597 H         1 UNK         0.3000 
    201 H201        0.2668  -28.4916  -46.0257 H         1 UNK         0.0600 
    202 H202        2.1124  -26.9231  -45.5510 H         1 UNK         0.0600 
    203 H203        1.7508  -26.0010  -47.0081 H         1 UNK         0.0600 
    204 H204        2.3350  -27.6563  -47.1322 H         1 UNK         0.0600 
    205 H205       -0.5060  -25.7140  -48.1984 H         1 UNK         0.3000 
    206 H206       -0.7332  -27.5850  -50.5164 H         1 UNK         0.0600 
    207 H207        0.8539  -25.7165  -50.7905 H         1 UNK         0.0600 
    208 H208       -0.5252  -25.4939  -51.8570 H         1 UNK         0.0600 
    209 H209       -0.3956  -24.5486  -50.3795 H         1 UNK         0.0600 
    210 H210       -2.4708  -25.0954  -48.6707 H         1 UNK         0.3000 
    211 H211       -4.5907  -24.4728  -48.4807 H         1 UNK         0.0600 
    212 H212       -5.3864  -27.1910  -49.6419 H         1 UNK         0.0600 
    213 H213       -6.3854  -26.1329  -48.6553 H         1 UNK         0.0600 
    214 H214       -4.9701  -26.8964  -47.9533 H         1 UNK         0.0600 
    215 H215       -3.1769  -23.7536  -50.8869 H         1 UNK         0.3000 
    216 H216       -5.0994  -23.5648  -53.0637 H         1 UNK         0.0600 
    217 H217       -3.3175  -22.1831  -54.1028 H         1 UNK         0.0600 
    218 H218       -2.6177  -23.6565  -53.4506 H         1 UNK         0.0600 
    219 H219       -2.4272  -22.1282  -52.5899 H         1 UNK         0.0600 
    220 H220       -5.8619  -21.5318  -53.9112 H         1 UNK         0.3000 
    221 H221       -6.5226  -19.4266  -51.9207 H         1 UNK         0.0600 
    222 H222       -7.4344  -19.8671  -54.8260 H         1 UNK         0.0600 
    223 H223       -8.3624  -20.3029  -53.3919 H         1 UNK         0.0600 
    224 H224       -8.0241  -18.6156  -53.7382 H         1 UNK         0.0600 
    225 H225       -5.9939  -17.2143  -52.4550 H         1 UNK         0.3000 
    226 H226       -3.3580  -16.7844  -53.3997 H         1 UNK         0.0600 
    227 H227       -4.4418  -15.3763  -51.6586 H         1 UNK         0.0600 
    228 H228       -3.9143  -14.3776  -52.9993 H         1 UNK         0.0600 
    229 H229       -5.6169  -14.7889  -52.8351 H         1 UNK         0.0600 
    230 H230       -6.2499  -17.0151  -55.2186 H         1 UNK         0.3000 
    231 H231       -5.4291  -15.4413  -57.5174 H         1 UNK         0.0600 
    232 H232       -7.8233  -15.8916  -57.0095 H         1 UNK         0.0600 
    233 H233       -7.5573  -17.6266  -57.1885 H         1 UNK         0.0600 
    234 H234       -7.3935  -16.5575  -58.5762 H         1 UNK         0.0600 
    235 H235       -4.5386  -18.5747  -56.2940 H         1 UNK         0.3000 
    236 H236       -3.4525  -19.4273  -58.9579 H         1 UNK         0.0600 
    237 H237       -3.8981  -21.7568  -58.1976 H         1 UNK         0.0600 
    238 H238       -4.6636  -21.1511  -56.7314 H         1 UNK         0.0600 
    239 H239       -5.3855  -20.8292  -58.3056 H         1 UNK         0.0600 
    240 H240       -3.0721  -19.6773  -55.3873 H         1 UNK         0.3000 
    241 H241       -1.4202  -20.0469  -54.0425 H         1 UNK         0.0600 
    242 H242       -0.5480  -23.3320  -55.9311 H         1 UNK         0.3800 
    243 H243       -1.8544  -22.2493  -56.3315 H         1 UNK         0.3800 
    244 H244        0.3869  -18.7912  -56.1646 H         1 UNK         0.0800 
    245 H245        0.9168  -19.1421  -54.5505 H         1 UNK         0.0800 
    246 H246       -0.0176  -16.1627  -52.5441 H         1 UNK         0.0800 
    247 H247        1.1426  -17.4075  -52.9154 H         1 UNK         0.0800 
@<TRIPOS>BOND
     1    1    2 1    
     2    1  127 1    
     3    1  128 1    
     4    1  129 1    
     5    2    3 2    
     6    2    4 am   BACKBONE|DICT|INTERRES
     7    4    5 1    
     8    4  130 1    
     9    5    6 1    
    10    5   65 1    
    11    5  131 1    
    12    6    7 1    
    13    6  132 1    
    14    6  133 1    
    15    7    8 1    
    16    8    9 1    
    17    8  134 1    
    18    8  135 1    
    19    9   10 ar   
    20    9   14 ar   
    21   10   11 ar   
    22   10  136 1    
    23   11   12 ar   
    24   11  126 1    
    25   12   13 ar   
    26   12  137 1    
    27   13   14 ar   
    28   13   15 1    
    29   14  138 1    
    30   15   16 1    
    31   15  139 1    
    32   15  140 1    
    33   16   17 1    
    34   17   18 1    
    35   17  141 1    
    36   17  142 1    
    37   18   19 1    
    38   18   67 1    
    39   18  143 1    
    40   19   20 am   BACKBONE|DICT|INTERRES
    41   19  144 1    
    42   20   21 2    
    43   20   22 1    
    44   22   23 1    
    45   22   24 1    
    46   22  145 1    
    47   23  146 1    
    48   23  147 1    
    49   23  148 1    
    50   24   25 am   BACKBONE|DICT|INTERRES
    51   24  149 1    
    52   25   26 2    
    53   25   27 1    
    54   27   28 1    
    55   27   29 1    
    56   27  150 1    
    57   28  151 1    
    58   28  152 1    
    59   28  153 1    
    60   29   30 am   BACKBONE|DICT|INTERRES
    61   29  154 1    
    62   30   31 2    
    63   30   32 1    
    64   32   33 1    
    65   32   34 1    
    66   32  155 1    
    67   33  156 1    
    68   33  157 1    
    69   33  158 1    
    70   34   35 am   BACKBONE|DICT|INTERRES
    71   34  159 1    
    72   35   36 2    
    73   35   37 1    
    74   37   38 1    
    75   37   39 1    
    76   37  160 1    
    77   38  161 1    
    78   38  162 1    
    79   38  163 1    
    80   39   40 am   BACKBONE|DICT|INTERRES
    81   39  164 1    
    82   40   41 2    
    83   40   42 1    
    84   42   43 1    
    85   42   44 1    
    86   42  165 1    
    87   43  166 1    
    88   43  167 1    
    89   43  168 1    
    90   44   45 am   BACKBONE|DICT|INTERRES
    91   44  169 1    
    92   45   46 2    
    93   45   47 1    
    94   47   48 1    
    95   47   49 1    
    96   47  170 1    
    97   48  171 1    
    98   48  172 1    
    99   48  173 1    
   100   49   50 am   BACKBONE|DICT|INTERRES
   101   49  174 1    
   102   50   51 2    
   103   50   52 1    
   104   52   53 1    
   105   52   54 1    
   106   52  175 1    
   107   53  176 1    
   108   53  177 1    
   109   53  178 1    
   110   54   55 am   BACKBONE|DICT|INTERRES
   111   54  179 1    
   112   55   56 2    
   113   55   57 1    
   114   57   58 1    
   115   57   59 1    
   116   57  180 1    
   117   58  181 1    
   118   58  182 1    
   119   58  183 1    
   120   59   60 am   BACKBONE|DICT|INTERRES
   121   59  184 1    
   122   60   61 2    
   123   60   62 1    
   124   62   63 1    
   125   62   64 1    
   126   62  185 1    
   127   63  186 1    
   128   63  187 1    
   129   63  188 1    
   130   64   65 am   BACKBONE|DICT|INTERRES
   131   64  189 1    
   132   65   66 2    
   133   67   68 2    
   134   67   69 am   BACKBONE|DICT|INTERRES
   135   69   70 1    
   136   69  190 1    
   137   70   71 1    
   138   70   72 1    
   139   70  191 1    
   140   71  192 1    
   141   71  193 1    
   142   71  194 1    
   143   72   73 2    
   144   72   74 am   BACKBONE|DICT|INTERRES
   145   74   75 1    
   146   74  195 1    
   147   75   76 1    
   148   75   77 1    
   149   75  196 1    
   150   76  197 1    
   151   76  198 1    
   152   76  199 1    
   153   77   78 2    
   154   77   79 am   BACKBONE|DICT|INTERRES
   155   79   80 1    
   156   79  200 1    
   157   80   81 1    
   158   80   82 1    
   159   80  201 1    
   160   81  202 1    
   161   81  203 1    
   162   81  204 1    
   163   82   83 2    
   164   82   84 am   BACKBONE|DICT|INTERRES
   165   84   85 1    
   166   84  205 1    
   167   85   86 1    
   168   85   87 1    
   169   85  206 1    
   170   86  207 1    
   171   86  208 1    
   172   86  209 1    
   173   87   88 2    
   174   87   89 am   BACKBONE|DICT|INTERRES
   175   89   90 1    
   176   89  210 1    
   177   90   91 1    
   178   90   92 1    
   179   90  211 1    
   180   91  212 1    
   181   91  213 1    
   182   91  214 1    
   183   92   93 2    
   184   92   94 am   BACKBONE|DICT|INTERRES
   185   94   95 1    
   186   94  215 1    
   187   95   96 1    
   188   95   97 1    
   189   95  216 1    
   190   96  217 1    
   191   96  218 1    
   192   96  219 1    
   193   97   98 2    
   194   97   99 am   BACKBONE|DICT|INTERRES
   195   99  100 1    
   196   99  220 1    
   197  100  101 1    
   198  100  102 1    
   199  100  221 1    
   200  101  222 1    
   201  101  223 1    
   202  101  224 1    
   203  102  103 2    
   204  102  104 am   BACKBONE|DICT|INTERRES
   205  104  105 1    
   206  104  225 1    
   207  105  106 1    
   208  105  107 1    
   209  105  226 1    
   210  106  227 1    
   211  106  228 1    
   212  106  229 1    
   213  107  108 2    
   214  107  109 am   BACKBONE|DICT|INTERRES
   215  109  110 1    
   216  109  230 1    
   217  110  111 1    
   218  110  112 1    
   219  110  231 1    
   220  111  232 1    
   221  111  233 1    
   222  111  234 1    
   223  112  113 2    
   224  112  114 am   BACKBONE|DICT|INTERRES
   225  114  115 1    
   226  114  235 1    
   227  115  116 1    
   228  115  117 1    
   229  115  236 1    
   230  116  237 1    
   231  116  238 1    
   232  116  239 1    
   233  117  118 2    
   234  117  119 am   BACKBONE|DICT|INTERRES
   235  119  120 1    
   236  119  240 1    
   237  120  121 1    
   238  120  124 1    
   239  120  241 1    
   240  121  122 am   BACKBONE|DICT|INTERRES
   241  121  123 2    
   242  122  242 1    
   243  122  243 1    
   244  124  125 1    
   245  124  244 1    
   246  124  245 1    
   247  125  126 1    
   248  126  246 1    
   249  126  247 1    
@<TRIPOS>SUBSTRUCTURE
     1 UNK         1 GROUP             0       ****    0 ROOT    
