@<TRIPOS>MOLECULE
3R540
247   249    1
SMALL
USER_CHARGES


@<TRIPOS>ATOM
      1 CA         -5.5551  -17.4673  -48.3868 C.3       0 UNK        -0.1800 
      2 C          -4.8079  -16.2411  -47.8851 C.2       0 UNK         0.5000 
      3 O          -5.4323  -15.2976  -47.3993 O.2       0 UNK        -0.5000 
      4 N          -3.4732  -16.2503  -47.9823 N.am      1 UNK        -0.5000 
      5 CA         -2.5559  -15.1816  -47.5618 C.3       1 UNK         0.1400 
      6 C6         -1.2143  -15.2418  -48.3413 C.3       23 UNK        -0.0398 
      7 S7         -0.4147  -16.8852  -48.3301 S.3       23 UNK        -0.2404 
      8 C8          0.7700  -16.6912  -49.6949 C.3       23 UNK        -0.0205 
      9 C9          1.3050  -18.0403  -50.1440 C.ar      23 UNK        -0.0193 
     10 C10         0.7837  -18.6602  -51.2834 C.ar      23 UNK        -0.1150 
     11 C11         1.2545  -19.9118  -51.6911 C.ar      23 UNK        -0.0193 
     12 C12         2.2621  -20.5378  -50.9518 C.ar      23 UNK        -0.1150 
     13 C13         2.7917  -19.9276  -49.8109 C.ar      23 UNK        -0.0193 
     14 C14         2.3136  -18.6754  -49.4152 C.ar      23 UNK        -0.1150 
     15 C15         3.8855  -20.6234  -49.0163 C.3       23 UNK        -0.0205 
     16 S16         3.2282  -21.9827  -47.9994 S.3       23 UNK        -0.2404 
     17 C17         2.4803  -21.0844  -46.5995 C.3       23 UNK        -0.0398 
     18 CA          1.1754  -21.7548  -46.0976 C.3       11 UNK         0.1400 
     19 N           1.1503  -21.8798  -44.6361 N.am      11 UNK        -0.5000 
     20 C           0.3244  -22.6933  -43.9614 C.2       10 UNK         0.5000 
     21 O          -0.5339  -23.3804  -44.5169 O.2       10 UNK        -0.5000 
     22 CA          0.4320  -22.7054  -42.4222 C.3       10 UNK         0.1400 
     23 CB          0.1423  -24.0950  -41.8186 C.3       10 UNK        -0.1800 
     24 N           1.6900  -22.1501  -41.9102 N.am      10 UNK        -0.5000 
     25 C           2.9326  -22.6420  -42.0490 C.2       9 UNK         0.5000 
     26 O           3.1869  -23.7026  -42.6201 O.2       9 UNK        -0.5000 
     27 CA          4.0947  -21.7978  -41.4807 C.3       9 UNK         0.1400 
     28 CB          5.1441  -21.5033  -42.5668 C.3       9 UNK        -0.1800 
     29 N           3.6342  -20.5246  -40.9243 N.am      9 UNK        -0.5000 
     30 C           3.2617  -20.3208  -39.6532 C.2       8 UNK         0.5000 
     31 O           3.3557  -21.1710  -38.7679 O.2       8 UNK        -0.5000 
     32 CA          2.6426  -18.9467  -39.3259 C.3       8 UNK         0.1400 
     33 CB          3.6963  -18.0114  -38.7147 C.3       8 UNK        -0.1800 
     34 N           2.0364  -18.3027  -40.4967 N.am      8 UNK        -0.5000 
     35 C           0.9124  -18.7294  -41.0950 C.2       7 UNK         0.5000 
     36 O           0.2579  -19.6920  -40.6964 O.2       7 UNK        -0.5000 
     37 CA          0.4768  -18.0168  -42.3897 C.3       7 UNK         0.1400 
     38 CB         -0.5226  -16.8964  -42.0791 C.3       7 UNK        -0.1800 
     39 N           1.6010  -17.4689  -43.1480 N.am      7 UNK        -0.5000 
     40 C           2.5675  -18.2085  -43.7131 C.2       6 UNK         0.5000 
     41 O           2.5466  -19.4405  -43.7256 O.2       6 UNK        -0.5000 
     42 CA          3.7783  -17.4686  -44.3215 C.3       6 UNK         0.1400 
     43 CB          3.6954  -17.4585  -45.8541 C.3       6 UNK        -0.1800 
     44 N           3.9296  -16.0897  -43.8547 N.am      6 UNK        -0.5000 
     45 C           4.1616  -15.7084  -42.5903 C.2       5 UNK         0.5000 
     46 O           4.3178  -16.4978  -41.6592 O.2       5 UNK        -0.5000 
     47 CA          4.1542  -14.1908  -42.3134 C.3       5 UNK         0.1400 
     48 CB          5.5879  -13.6406  -42.3002 C.3       5 UNK        -0.1800 
     49 N           3.3509  -13.4225  -43.2736 N.am      5 UNK        -0.5000 
     50 C           2.0310  -13.5696  -43.4539 C.2       4 UNK         0.5000 
     51 O           1.3452  -14.3741  -42.8202 O.2       4 UNK        -0.5000 
     52 CA          1.4014  -12.7354  -44.5807 C.3       4 UNK         0.1400 
     53 CB          1.6259  -13.4232  -45.9380 C.3       4 UNK        -0.1800 
     54 N          -0.0341  -12.5570  -44.3656 N.am      4 UNK        -0.5000 
     55 C          -0.5634  -11.6099  -43.5775 C.2       3 UNK         0.5000 
     56 O           0.1150  -10.7737  -42.9783 O.2       3 UNK        -0.5000 
     57 CA         -2.0997  -11.5495  -43.4472 C.3       3 UNK         0.1400 
     58 CB         -2.6587  -10.3718  -44.2617 C.3       3 UNK        -0.1800 
     59 N          -2.7703  -12.7736  -43.8825 N.am      3 UNK        -0.5000 
     60 C          -2.8943  -13.8835  -43.1435 C.2       2 UNK         0.5000 
     61 O          -2.5112  -13.9733  -41.9772 O.2       2 UNK        -0.5000 
     62 CA         -3.5591  -15.1008  -43.8205 C.3       2 UNK         0.1400 
     63 CB         -5.0302  -15.2183  -43.3955 C.3       2 UNK        -0.1800 
     64 N          -3.4921  -15.0976  -45.2858 N.am      2 UNK        -0.5000 
     65 C          -2.3751  -15.1183  -46.0248 C.2       1 UNK         0.5000 
     66 O          -1.2499  -15.0757  -45.5293 O.2       1 UNK        -0.5000 
     67 C          -0.0880  -21.0499  -46.6371 C.2       11 UNK         0.5000 
     68 O          -0.4931  -21.3083  -47.7679 O.2       11 UNK        -0.5000 
     69 N          -0.7312  -20.2278  -45.7944 N.am      12 UNK        -0.5000 
     70 CA         -2.0173  -19.5874  -46.0699 C.3       12 UNK         0.1400 
     71 CB         -2.3443  -18.5975  -44.9444 C.3       12 UNK        -0.1800 
     72 C          -3.1707  -20.5902  -46.2612 C.2       12 UNK         0.5000 
     73 O          -4.0629  -20.3300  -47.0670 O.2       12 UNK        -0.5000 
     74 N          -3.1210  -21.7298  -45.5546 N.am      13 UNK        -0.5000 
     75 CA         -4.0846  -22.8213  -45.7069 C.3       13 UNK         0.1400 
     76 CB         -3.9830  -23.7803  -44.5114 C.3       13 UNK        -0.1800 
     77 C          -3.8873  -23.5717  -47.0352 C.2       13 UNK         0.5000 
     78 O          -4.8710  -23.9145  -47.6911 O.2       13 UNK        -0.5000 
     79 N          -2.6216  -23.7662  -47.4343 N.am      14 UNK        -0.5000 
     80 CA         -2.2482  -24.3213  -48.7361 C.3       14 UNK         0.1400 
     81 CB         -0.7448  -24.6373  -48.7621 C.3       14 UNK        -0.1800 
     82 C          -2.6426  -23.3829  -49.8905 C.2       14 UNK         0.5000 
     83 O          -3.1771  -23.8506  -50.8946 O.2       14 UNK        -0.5000 
     84 N          -2.4287  -22.0734  -49.7013 N.am      15 UNK        -0.5000 
     85 CA         -2.8453  -21.0126  -50.6167 C.3       15 UNK         0.1400 
     86 CB         -2.3143  -19.6631  -50.1152 C.3       15 UNK        -0.1800 
     87 C          -4.3702  -20.9577  -50.8045 C.2       15 UNK         0.5000 
     88 O          -4.8308  -20.8453  -51.9391 O.2       15 UNK        -0.5000 
     89 N          -5.1237  -21.0780  -49.7018 N.am      16 UNK        -0.5000 
     90 CA         -6.5858  -21.1466  -49.7009 C.3       16 UNK         0.1400 
     91 CB         -7.1062  -21.0936  -48.2563 C.3       16 UNK        -0.1800 
     92 C          -7.1260  -22.3952  -50.4221 C.2       16 UNK         0.5000 
     93 O          -8.1098  -22.2906  -51.1552 O.2       16 UNK        -0.5000 
     94 N          -6.4671  -23.5440  -50.2138 N.am      17 UNK        -0.5000 
     95 CA         -6.7908  -24.8135  -50.8641 C.3       17 UNK         0.1400 
     96 CB         -6.0423  -25.9567  -50.1614 C.3       17 UNK        -0.1800 
     97 C          -6.4872  -24.8033  -52.3739 C.2       17 UNK         0.5000 
     98 O          -7.3030  -25.2908  -53.1576 O.2       17 UNK        -0.5000 
     99 N          -5.3281  -24.2479  -52.7539 N.am      18 UNK        -0.5000 
    100 CA        -4.8900  -24.1097  -54.1437 C.3       18 UNK         0.1400 
    101 CB        -3.3960  -23.7516  -54.1716 C.3       18 UNK        -0.1800 
    102 C         -5.7119  -23.0704  -54.9289 C.2       18 UNK         0.5000 
    103 O         -6.0491  -23.3216  -56.0868 O.2       18 UNK        -0.5000 
    104 N         -6.0211  -21.9455  -54.2665 N.am      19 UNK        -0.5000 
    105 CA        -6.7103  -20.7454  -54.7490 C.3       19 UNK         0.1400 
    106 CB        -8.1042  -21.0828  -55.3152 C.3       19 UNK        -0.1800 
    107 C         -5.8727  -19.9192  -55.7463 C.2       19 UNK         0.5000 
    108 O         -4.9285  -20.4264  -56.3572 O.2       19 UNK        -0.5000 
    109 N         -6.2435  -18.6383  -55.8892 N.am      20 UNK        -0.5000 
    110 CA        -5.6245  -17.6376  -56.7669 C.3       20 UNK         0.1400 
    111 CB        -5.9812  -17.9370  -58.2411 C.3       20 UNK        -0.1800 
    112 C         -4.1081  -17.4800  -56.5043 C.2       20 UNK         0.5000 
    113 O         -3.6919  -17.4612  -55.3434 O.2       20 UNK        -0.5000 
    114 N         -3.3042  -17.3861  -57.5700 N.am      21 UNK        -0.5000 
    115 CA        -1.8438  -17.3139  -57.5290 C.3       21 UNK         0.1400 
    116 CB        -1.3556  -16.5442  -58.7701 C.3       21 UNK        -0.1800 
    117 C         -1.2174  -18.7201  -57.4110 C.2       21 UNK         0.5000 
    118 O         -0.4418  -19.1252  -58.2793 O.2       21 UNK        -0.5000 
    119 N         -1.5771  -19.4381  -56.3394 N.am      22 UNK        -0.5000 
    120 CA        -1.1124  -20.7965  -56.0051 C.3       22 UNK         0.1400 
    121 C         -1.5665  -21.8792  -57.0325 C.2       22 UNK         0.5000 
    122 N         -2.8039  -21.8398  -57.5075 N.am      22 UNK        -0.7600 
    123 O         -0.8060  -22.7713  -57.4009 O.2       22 UNK        -0.5000 
    124 C124        0.4129  -20.8706  -55.6973 C.3       23 UNK        -0.0398 
    125 S125        0.9859  -19.6759  -54.4412 S.3       23 UNK        -0.2404 
    126 C126        0.6564  -20.6004  -52.9095 C.3       23 UNK        -0.0205 
    127 H127       -4.8821  -18.2082  -48.8164 H         1 UNK         0.0600 
    128 H128       -6.0914  -17.9339  -47.5612 H         1 UNK         0.0600 
    129 H129       -6.2794  -17.1833  -49.1500 H         1 UNK         0.0600 
    130 H130       -3.0126  -17.0618  -48.3681 H         1 UNK         0.3000 
    131 H131       -3.0208  -14.2307  -47.8308 H         1 UNK         0.0600 
    132 H132       -1.4090  -14.9708  -49.3797 H         1 UNK         0.0800 
    133 H133       -0.5068  -14.4962  -47.9752 H         1 UNK         0.0800 
    134 H134        1.5920  -16.0501  -49.3732 H         1 UNK         0.0800 
    135 H135        0.2902  -16.1845  -50.5336 H         1 UNK         0.0800 
    136 H136       -0.0015  -18.1771  -51.8478 H         1 UNK         0.1150 
    137 H137        2.6296  -21.5085  -51.2541 H         1 UNK         0.1150 
    138 H138        2.7160  -18.1958  -48.5350 H         1 UNK         0.1150 
    139 H139        4.6245  -21.0300  -49.7082 H         1 UNK         0.0800 
    140 H140        4.4216  -19.9147  -48.3831 H         1 UNK         0.0800 
    141 H141        2.3090  -20.0429  -46.8706 H         1 UNK         0.0800 
    142 H142        3.2349  -21.0628  -45.8119 H         1 UNK         0.0800 
    143 H143        1.1398  -22.7757  -46.4851 H         1 UNK         0.0600 
    144 H144        1.7921  -21.2860  -44.1210 H         1 UNK         0.3000 
    145 H145       -0.3514  -22.0332  -42.0703 H         1 UNK         0.0600 
    146 H146        0.2206  -24.0770  -40.7316 H         1 UNK         0.0600 
    147 H147       -0.8681  -24.4244  -42.0638 H         1 UNK         0.0600 
    148 H148        0.8297  -24.8534  -42.1935 H         1 UNK         0.0600 
    149 H149        1.5886  -21.2734  -41.4148 H         1 UNK         0.3000 
    150 H150        4.5741  -22.3889  -40.6979 H         1 UNK         0.0600 
    151 H151        5.5738  -22.4264  -42.9576 H         1 UNK         0.0600 
    152 H152        5.9665  -20.9084  -42.1693 H         1 UNK         0.0600 
    153 H153        4.7152  -20.9611  -43.4097 H         1 UNK         0.0600 
    154 H154        3.4980  -19.7763  -41.5900 H         1 UNK         0.3000 
    155 H155        1.8585  -19.1055  -38.5825 H         1 UNK         0.0600 
    156 H156        4.5404  -17.8596  -39.3879 H         1 UNK         0.0600 
    157 H157        4.0914  -18.4258  -37.7863 H         1 UNK         0.0600 
    158 H158        3.2722  -17.0348  -38.4804 H         1 UNK         0.0600 
    159 H159        2.5525  -17.5313  -40.9040 H         1 UNK         0.3000 
    160 H160       -0.0211  -18.7540  -43.0213 H         1 UNK         0.0600 
    161 H161       -0.7848  -16.3460  -42.9821 H         1 UNK         0.0600 
    162 H162       -0.1165  -16.1796  -41.3643 H         1 UNK         0.0600 
    163 H163       -1.4442  -17.2977  -41.6560 H         1 UNK         0.0600 
    164 H164        1.6737  -16.4576  -43.1691 H         1 UNK         0.3000 
    165 H165        4.6763  -18.0160  -44.0282 H         1 UNK         0.0600 
    166 H166        4.5049  -16.8751  -46.2933 H         1 UNK         0.0600 
    167 H167        3.7879  -18.4685  -46.2487 H         1 UNK         0.0600 
    168 H168        2.7503  -17.0426  -46.2073 H         1 UNK         0.0600 
    169 H169        3.8070  -15.3666  -44.5473 H         1 UNK         0.3000 
    170 H170        3.7205  -14.0436  -41.3221 H         1 UNK         0.0600 
    171 H171        6.2049  -14.1757  -41.5770 H         1 UNK         0.0600 
    172 H172        6.0660  -13.7384  -43.2757 H         1 UNK         0.0600 
    173 H173        5.6040  -12.5868  -42.0213 H         1 UNK         0.0600 
    174 H174        3.8507  -12.7502  -43.8379 H         1 UNK         0.3000 
    175 H175        1.8846  -11.7563  -44.6074 H         1 UNK         0.0600 
    176 H176        1.1272  -12.8828  -46.7426 H         1 UNK         0.0600 
    177 H177        2.6871  -13.4632  -46.1857 H         1 UNK         0.0600 
    178 H178        1.2544  -14.4486  -45.9410 H         1 UNK         0.0600 
    179 H179       -0.6323  -13.2834  -44.7432 H         1 UNK         0.3000 
    180 H180       -2.3323  -11.3738  -42.3947 H         1 UNK         0.0600 
    181 H181       -2.4581  -10.4881  -45.3275 H         1 UNK         0.0600 
    182 H182       -2.2112   -9.4288  -43.9446 H         1 UNK         0.0600 
    183 H183       -3.7368  -10.2774  -44.1303 H         1 UNK         0.0600 
    184 H184       -3.1261  -12.7870  -44.8267 H         1 UNK         0.3000 
    185 H185       -3.0376  -15.9923  -43.4705 H         1 UNK         0.0600 
    186 H186       -5.6180  -14.3693  -43.7465 H         1 UNK         0.0600 
    187 H187       -5.4834  -16.1274  -43.7916 H         1 UNK         0.0600 
    188 H188       -5.1229  -15.2569  -42.3093 H         1 UNK         0.0600 
    189 H189       -4.3764  -15.1186  -45.7858 H         1 UNK         0.3000 
    190 H190       -0.3259  -20.0708  -44.8849 H         1 UNK         0.3000 
    191 H191       -1.9167  -19.0259  -46.9990 H         1 UNK         0.0600 
    192 H192       -2.4288  -19.0945  -43.9775 H         1 UNK         0.0600 
    193 H193       -3.2901  -18.0892  -45.1365 H         1 UNK         0.0600 
    194 H194       -1.5741  -17.8305  -44.8652 H         1 UNK         0.0600 
    195 H195       -2.3331  -21.9014  -44.9460 H         1 UNK         0.3000 
    196 H196       -5.0898  -22.3939  -45.7099 H         1 UNK         0.0600 
    197 H197       -4.7450  -24.5581  -44.5742 H         1 UNK         0.0600 
    198 H198       -4.1325  -23.2542  -43.5685 H         1 UNK         0.0600 
    199 H199       -3.0141  -24.2778  -44.4690 H         1 UNK         0.0600 
    200 H200       -1.8709  -23.4439  -46.8404 H         1 UNK         0.3000 
    201 H201       -2.7917  -25.2591  -48.8689 H         1 UNK         0.0600 
    202 H202       -0.4715  -25.3223  -47.9595 H         1 UNK         0.0600 
    203 H203       -0.1348  -23.7402  -48.6589 H         1 UNK         0.0600 
    204 H204       -0.4663  -25.1119  -49.7038 H         1 UNK         0.0600 
    205 H205       -1.9038  -21.7832  -48.8796 H         1 UNK         0.3000 
    206 H206       -2.3945  -21.2235  -51.5876 H         1 UNK         0.0600 
    207 H207       -1.2517  -19.7208  -49.8864 H         1 UNK         0.0600 
    208 H208       -2.4516  -18.8840  -50.8656 H         1 UNK         0.0600 
    209 H209       -2.8211  -19.3394  -49.2084 H         1 UNK         0.0600 
    210 H210       -4.6675  -21.1032  -48.7953 H         1 UNK         0.3000 
    211 H211       -6.9597  -20.2673  -50.2296 H         1 UNK         0.0600 
    212 H212       -6.7565  -21.9433  -47.6699 H         1 UNK         0.0600 
    213 H213       -8.1965  -21.1058  -48.2337 H         1 UNK         0.0600 
    214 H214       -6.7816  -20.1859  -47.7501 H         1 UNK         0.0600 
    215 H215       -5.7005  -23.5540  -49.5495 H         1 UNK         0.3000 
    216 H216       -7.8617  -24.9892  -50.7422 H         1 UNK         0.0600 
    217 H217       -6.2869  -26.9190  -50.6126 H         1 UNK         0.0600 
    218 H218       -6.3118  -26.0136  -49.1066 H         1 UNK         0.0600 
    219 H219       -4.9613  -25.8302  -50.2228 H         1 UNK         0.0600 
    220 H220       -4.6793  -23.9284  -52.0386 H         1 UNK         0.3000 
    221 H221       -5.0145  -25.0768  -54.6353 H         1 UNK         0.0600 
    222 H222       -3.0311  -23.6988  -55.1970 H         1 UNK         0.0600 
    223 H223       -3.2029  -22.7876  -53.6991 H         1 UNK         0.0600 
    224 H224       -2.7998  -24.5034  -53.6543 H         1 UNK         0.0600 
    225 H225       -5.6290  -21.8343  -53.3351 H         1 UNK         0.3000 
    226 H226       -6.8527  -20.1253  -53.8625 H         1 UNK         0.0600 
    227 H227       -8.0420  -21.6253  -56.2588 H         1 UNK         0.0600 
    228 H228       -8.6797  -20.1760  -55.5033 H         1 UNK         0.0600 
    229 H229       -8.6772  -21.6902  -54.6142 H         1 UNK         0.0600 
    230 H230       -7.0054  -18.2968  -55.3207 H         1 UNK         0.3000 
    231 H231       -6.0754  -16.6794  -56.5057 H         1 UNK         0.0600 
    232 H232       -7.0587  -18.0457  -58.3655 H         1 UNK         0.0600 
    233 H233       -5.5158  -18.8580  -58.5948 H         1 UNK         0.0600 
    234 H234       -5.6685  -17.1265  -58.9003 H         1 UNK         0.0600 
    235 H235       -3.7192  -17.4533  -58.4879 H         1 UNK         0.3000 
    236 H236       -1.5339  -16.7475  -56.6481 H         1 UNK         0.0600 
    237 H237       -1.7783  -15.5398  -58.8018 H         1 UNK         0.0600 
    238 H238       -0.2701  -16.4372  -58.7622 H         1 UNK         0.0600 
    239 H239       -1.6303  -17.0529  -59.6950 H         1 UNK         0.0600 
    240 H240       -2.2530  -19.0283  -55.7059 H         1 UNK         0.3000 
    241 H241       -1.6302  -21.0612  -55.0828 H         1 UNK         0.0600 
    242 H242       -3.0978  -22.5376  -58.1709 H         1 UNK         0.3800 
    243 H243       -3.4913  -21.1791  -57.1458 H         1 UNK         0.3800 
    244 H244        0.6858  -21.8747  -55.3686 H         1 UNK         0.0800 
    245 H245        0.9881  -20.6943  -56.6073 H         1 UNK         0.0800 
    246 H246        1.0510  -21.6131  -53.0045 H         1 UNK         0.0800 
    247 H247       -0.4206  -20.6974  -52.7749 H         1 UNK         0.0800 
@<TRIPOS>BOND
     1    1    2 1    
     2    1  127 1    
     3    1  128 1    
     4    1  129 1    
     5    2    3 2    
     6    2    4 am   BACKBONE|DICT|INTERRES
     7    4    5 1    
     8    4  130 1    
     9    5    6 1    
    10    5   65 1    
    11    5  131 1    
    12    6    7 1    
    13    6  132 1    
    14    6  133 1    
    15    7    8 1    
    16    8    9 1    
    17    8  134 1    
    18    8  135 1    
    19    9   10 ar   
    20    9   14 ar   
    21   10   11 ar   
    22   10  136 1    
    23   11   12 ar   
    24   11  126 1    
    25   12   13 ar   
    26   12  137 1    
    27   13   14 ar   
    28   13   15 1    
    29   14  138 1    
    30   15   16 1    
    31   15  139 1    
    32   15  140 1    
    33   16   17 1    
    34   17   18 1    
    35   17  141 1    
    36   17  142 1    
    37   18   19 1    
    38   18   67 1    
    39   18  143 1    
    40   19   20 am   BACKBONE|DICT|INTERRES
    41   19  144 1    
    42   20   21 2    
    43   20   22 1    
    44   22   23 1    
    45   22   24 1    
    46   22  145 1    
    47   23  146 1    
    48   23  147 1    
    49   23  148 1    
    50   24   25 am   BACKBONE|DICT|INTERRES
    51   24  149 1    
    52   25   26 2    
    53   25   27 1    
    54   27   28 1    
    55   27   29 1    
    56   27  150 1    
    57   28  151 1    
    58   28  152 1    
    59   28  153 1    
    60   29   30 am   BACKBONE|DICT|INTERRES
    61   29  154 1    
    62   30   31 2    
    63   30   32 1    
    64   32   33 1    
    65   32   34 1    
    66   32  155 1    
    67   33  156 1    
    68   33  157 1    
    69   33  158 1    
    70   34   35 am   BACKBONE|DICT|INTERRES
    71   34  159 1    
    72   35   36 2    
    73   35   37 1    
    74   37   38 1    
    75   37   39 1    
    76   37  160 1    
    77   38  161 1    
    78   38  162 1    
    79   38  163 1    
    80   39   40 am   BACKBONE|DICT|INTERRES
    81   39  164 1    
    82   40   41 2    
    83   40   42 1    
    84   42   43 1    
    85   42   44 1    
    86   42  165 1    
    87   43  166 1    
    88   43  167 1    
    89   43  168 1    
    90   44   45 am   BACKBONE|DICT|INTERRES
    91   44  169 1    
    92   45   46 2    
    93   45   47 1    
    94   47   48 1    
    95   47   49 1    
    96   47  170 1    
    97   48  171 1    
    98   48  172 1    
    99   48  173 1    
   100   49   50 am   BACKBONE|DICT|INTERRES
   101   49  174 1    
   102   50   51 2    
   103   50   52 1    
   104   52   53 1    
   105   52   54 1    
   106   52  175 1    
   107   53  176 1    
   108   53  177 1    
   109   53  178 1    
   110   54   55 am   BACKBONE|DICT|INTERRES
   111   54  179 1    
   112   55   56 2    
   113   55   57 1    
   114   57   58 1    
   115   57   59 1    
   116   57  180 1    
   117   58  181 1    
   118   58  182 1    
   119   58  183 1    
   120   59   60 am   BACKBONE|DICT|INTERRES
   121   59  184 1    
   122   60   61 2    
   123   60   62 1    
   124   62   63 1    
   125   62   64 1    
   126   62  185 1    
   127   63  186 1    
   128   63  187 1    
   129   63  188 1    
   130   64   65 am   BACKBONE|DICT|INTERRES
   131   64  189 1    
   132   65   66 2    
   133   67   68 2    
   134   67   69 am   BACKBONE|DICT|INTERRES
   135   69   70 1    
   136   69  190 1    
   137   70   71 1    
   138   70   72 1    
   139   70  191 1    
   140   71  192 1    
   141   71  193 1    
   142   71  194 1    
   143   72   73 2    
   144   72   74 am   BACKBONE|DICT|INTERRES
   145   74   75 1    
   146   74  195 1    
   147   75   76 1    
   148   75   77 1    
   149   75  196 1    
   150   76  197 1    
   151   76  198 1    
   152   76  199 1    
   153   77   78 2    
   154   77   79 am   BACKBONE|DICT|INTERRES
   155   79   80 1    
   156   79  200 1    
   157   80   81 1    
   158   80   82 1    
   159   80  201 1    
   160   81  202 1    
   161   81  203 1    
   162   81  204 1    
   163   82   83 2    
   164   82   84 am   BACKBONE|DICT|INTERRES
   165   84   85 1    
   166   84  205 1    
   167   85   86 1    
   168   85   87 1    
   169   85  206 1    
   170   86  207 1    
   171   86  208 1    
   172   86  209 1    
   173   87   88 2    
   174   87   89 am   BACKBONE|DICT|INTERRES
   175   89   90 1    
   176   89  210 1    
   177   90   91 1    
   178   90   92 1    
   179   90  211 1    
   180   91  212 1    
   181   91  213 1    
   182   91  214 1    
   183   92   93 2    
   184   92   94 am   BACKBONE|DICT|INTERRES
   185   94   95 1    
   186   94  215 1    
   187   95   96 1    
   188   95   97 1    
   189   95  216 1    
   190   96  217 1    
   191   96  218 1    
   192   96  219 1    
   193   97   98 2    
   194   97   99 am   BACKBONE|DICT|INTERRES
   195   99  100 1    
   196   99  220 1    
   197  100  101 1    
   198  100  102 1    
   199  100  221 1    
   200  101  222 1    
   201  101  223 1    
   202  101  224 1    
   203  102  103 2    
   204  102  104 am   BACKBONE|DICT|INTERRES
   205  104  105 1    
   206  104  225 1    
   207  105  106 1    
   208  105  107 1    
   209  105  226 1    
   210  106  227 1    
   211  106  228 1    
   212  106  229 1    
   213  107  108 2    
   214  107  109 am   BACKBONE|DICT|INTERRES
   215  109  110 1    
   216  109  230 1    
   217  110  111 1    
   218  110  112 1    
   219  110  231 1    
   220  111  232 1    
   221  111  233 1    
   222  111  234 1    
   223  112  113 2    
   224  112  114 am   BACKBONE|DICT|INTERRES
   225  114  115 1    
   226  114  235 1    
   227  115  116 1    
   228  115  117 1    
   229  115  236 1    
   230  116  237 1    
   231  116  238 1    
   232  116  239 1    
   233  117  118 2    
   234  117  119 am   BACKBONE|DICT|INTERRES
   235  119  120 1    
   236  119  240 1    
   237  120  121 1    
   238  120  124 1    
   239  120  241 1    
   240  121  122 am   BACKBONE|DICT|INTERRES
   241  121  123 2    
   242  122  242 1    
   243  122  243 1    
   244  124  125 1    
   245  124  244 1    
   246  124  245 1    
   247  125  126 1    
   248  126  246 1    
   249  126  247 1    
@<TRIPOS>SUBSTRUCTURE
     1 UNK         1 GROUP             0       ****    0 ROOT    
