@<TRIPOS>MOLECULE
3R540
247   249    1
SMALL
USER_CHARGES


@<TRIPOS>ATOM
      1 CA         -2.1876   -8.0804  -46.3517 C.3       0 UNK        -0.1800 
      2 C          -2.1826   -9.3735  -45.5490 C.2       0 UNK         0.5000 
      3 O          -2.5844   -9.3719  -44.3856 O.2       0 UNK        -0.5000 
      4 N          -1.7273  -10.4727  -46.1671 N.am      1 UNK        -0.5000 
      5 CA         -1.6225  -11.8165  -45.5783 C.3       1 UNK         0.1400 
      6 C6         -3.0039  -12.4103  -45.1812 C.3       23 UNK        -0.0398 
      7 S7         -3.0745  -14.2161  -45.4235 S.3       23 UNK        -0.2404 
      8 C8         -3.9139  -14.3072  -47.0342 C.3       23 UNK        -0.0205 
      9 C9         -3.9240  -15.7344  -47.5510 C.ar      23 UNK        -0.0193 
     10 C10        -2.8751  -16.1967  -48.3492 C.ar      23 UNK        -0.1150 
     11 C11        -2.8522  -17.5206  -48.7947 C.ar      23 UNK        -0.0193 
     12 C12        -3.8890  -18.3858  -48.4308 C.ar      23 UNK        -0.1150 
     13 C13        -4.9513  -17.9298  -47.6433 C.ar      23 UNK        -0.0193 
     14 C14        -4.9671  -16.6001  -47.2133 C.ar      23 UNK        -0.1150 
     15 C15        -6.0750  -18.8768  -47.2457 C.3       23 UNK        -0.0205 
     16 S16        -6.1621  -19.1756  -45.4439 S.3       23 UNK        -0.2404 
     17 C17        -4.4281  -19.5173  -44.9784 C.3       23 UNK        -0.0398 
     18 CA         -3.8412  -20.7868  -45.6388 C.3       11 UNK         0.1400 
     19 N          -2.3809  -20.7357  -45.7030 N.am      11 UNK        -0.5000 
     20 C          -1.6282  -21.4817  -46.5217 C.2       10 UNK         0.5000 
     21 O          -2.0923  -22.2570  -47.3582 O.2       10 UNK        -0.5000 
     22 CA         -0.1027  -21.3744  -46.3444 C.3       10 UNK         0.1400 
     23 CB          0.4744  -20.2620  -47.2281 C.3       10 UNK        -0.1800 
     24 N           0.2788  -21.1379  -44.9507 N.am      10 UNK        -0.5000 
     25 C           0.1760  -22.0636  -43.9862 C.2       9 UNK         0.5000 
     26 O          -0.2205  -23.2107  -44.1872 O.2       9 UNK        -0.5000 
     27 CA          0.5277  -21.6272  -42.5519 C.3       9 UNK         0.1400 
     28 CB          2.0373  -21.7610  -42.3036 C.3       9 UNK        -0.1800 
     29 N           0.1080  -20.2607  -42.2376 N.am      9 UNK        -0.5000 
     30 C          -1.1543  -19.8082  -42.2641 C.2       8 UNK         0.5000 
     31 O          -2.1230  -20.5081  -42.5556 O.2       8 UNK        -0.5000 
     32 CA         -1.3699  -18.3153  -41.9483 C.3       8 UNK         0.1400 
     33 CB         -1.7780  -18.1314  -40.4795 C.3       8 UNK        -0.1800 
     34 N          -0.1914  -17.4900  -42.2293 N.am      8 UNK        -0.5000 
     35 C           0.3028  -17.2727  -43.4554 C.2       7 UNK         0.5000 
     36 O          -0.2170  -17.7238  -44.4791 O.2       7 UNK        -0.5000 
     37 CA          1.6083  -16.4511  -43.5085 C.3       7 UNK         0.1400 
     38 CB          2.7834  -17.2565  -42.9095 C.3       7 UNK        -0.1800 
     39 N           1.9232  -15.9550  -44.8535 N.am      7 UNK        -0.5000 
     40 C           2.2838  -16.6735  -45.9281 C.2       6 UNK         0.5000 
     41 O           2.5799  -17.8685  -45.9017 O.2       6 UNK        -0.5000 
     42 CA          2.2938  -15.9372  -47.2736 C.3       6 UNK         0.1400 
     43 CB          0.8678  -15.8956  -47.8562 C.3       6 UNK        -0.1800 
     44 N           2.8423  -14.5841  -47.1703 N.am      6 UNK        -0.5000 
     45 C           3.2932  -13.8770  -48.2146 C.2       5 UNK         0.5000 
     46 O           3.3282  -14.3038  -49.3696 O.2       5 UNK        -0.5000 
     47 CA          3.7902  -12.4518  -47.9272 C.3       5 UNK         0.1400 
     48 CB          2.6057  -11.4798  -47.7996 C.3       5 UNK        -0.1800 
     49 N           4.6082  -12.3910  -46.7171 N.am      5 UNK        -0.5000 
     50 C           5.9207  -12.6613  -46.6775 C.2       4 UNK         0.5000 
     51 O           6.5760  -13.0037  -47.6624 O.2       4 UNK        -0.5000 
     52 CA          6.6348  -12.5012  -45.3206 C.3       4 UNK         0.1400 
     53 CB          7.3553  -11.1455  -45.2543 C.3       4 UNK        -0.1800 
     54 N           5.7234  -12.6043  -44.1809 N.am      4 UNK        -0.5000 
     55 C           5.2655  -13.7589  -43.6799 C.2       3 UNK         0.5000 
     56 O           5.6046  -14.8681  -44.0911 O.2       3 UNK        -0.5000 
     57 CA          4.2260  -13.6480  -42.5476 C.3       3 UNK         0.1400 
     58 CB          4.9206  -13.5770  -41.1798 C.3       3 UNK        -0.1800 
     59 N           3.3152  -12.5077  -42.6905 N.am      3 UNK        -0.5000 
     60 C           2.4869  -12.3128  -43.7246 C.2       2 UNK         0.5000 
     61 O           2.4197  -13.0693  -44.6989 O.2       2 UNK        -0.5000 
     62 CA          1.6461  -11.0237  -43.6855 C.3       2 UNK         0.1400 
     63 CB          2.5113   -9.8145  -44.0758 C.3       2 UNK        -0.1800 
     64 N           0.4981  -11.0797  -44.5886 N.am      2 UNK        -0.5000 
     65 C          -0.5612  -11.8896  -44.4513 C.2       1 UNK         0.5000 
     66 O          -0.7092  -12.6521  -43.4941 O.2       1 UNK        -0.5000 
     67 C          -4.3257  -22.0853  -44.9634 C.2       11 UNK         0.5000 
     68 O          -5.2566  -22.7162  -45.4633 O.2       11 UNK        -0.5000 
     69 N          -3.6418  -22.5074  -43.8891 N.am      12 UNK        -0.5000 
     70 CA         -3.8540  -23.7888  -43.2079 C.3       12 UNK         0.1400 
     71 CB         -3.0034  -23.8355  -41.9302 C.3       12 UNK        -0.1800 
     72 C          -3.5570  -25.0042  -44.1102 C.2       12 UNK         0.5000 
     73 O          -4.2372  -26.0244  -44.0021 O.2       12 UNK        -0.5000 
     74 N          -2.5900  -24.8482  -45.0248 N.am      13 UNK        -0.5000 
     75 CA         -2.2684  -25.7888  -46.1003 C.3       13 UNK         0.1400 
     76 CB         -0.8157  -25.5526  -46.5475 C.3       13 UNK        -0.1800 
     77 C          -3.2349  -25.7083  -47.3040 C.2       13 UNK         0.5000 
     78 O          -2.9830  -26.3684  -48.3127 O.2       13 UNK        -0.5000 
     79 N          -4.3025  -24.9009  -47.2030 N.am      14 UNK        -0.5000 
     80 CA         -5.3589  -24.6883  -48.1962 C.3       14 UNK         0.1400 
     81 CB         -6.1876  -25.9754  -48.3935 C.3       14 UNK        -0.1800 
     82 C          -4.8186  -24.1098  -49.5166 C.2       14 UNK         0.5000 
     83 O          -5.1580  -24.6075  -50.5904 O.2       14 UNK        -0.5000 
     84 N          -3.9516  -23.0914  -49.4077 N.am      15 UNK        -0.5000 
     85 CA         -3.2274  -22.4411  -50.5050 C.3       15 UNK         0.1400 
     86 CB         -4.1971  -21.7040  -51.4515 C.3       15 UNK        -0.1800 
     87 C          -2.2965  -23.4305  -51.2322 C.2       15 UNK         0.5000 
     88 O          -2.2761  -23.4758  -52.4643 O.2       15 UNK        -0.5000 
     89 N          -1.5773  -24.2325  -50.4317 N.am      16 UNK        -0.5000 
     90 CA         -0.7045  -25.3389  -50.8362 C.3       16 UNK         0.1400 
     91 CB          0.5415  -24.8008  -51.5713 C.3       16 UNK        -0.1800 
     92 C          -1.4727  -26.4049  -51.6446 C.2       16 UNK         0.5000 
     93 O          -1.0699  -26.7484  -52.7553 O.2       16 UNK        -0.5000 
     94 N          -2.6039  -26.8642  -51.0890 N.am      17 UNK        -0.5000 
     95 CA         -3.5892  -27.7595  -51.7091 C.3       17 UNK         0.1400 
     96 CB         -3.0189  -29.1866  -51.8404 C.3       17 UNK        -0.1800 
     97 C          -4.1346  -27.1964  -53.0412 C.2       17 UNK         0.5000 
     98 O          -4.2056  -27.9102  -54.0431 O.2       17 UNK        -0.5000 
     99 N          -4.4726  -25.9002  -53.0162 N.am      18 UNK        -0.5000 
    100 CA        -4.9526  -25.0550  -54.1117 C.3       18 UNK         0.1400 
    101 CB        -6.3085  -25.5627  -54.6432 C.3       18 UNK        -0.1800 
    102 C         -3.9349  -24.8043  -55.2467 C.2       18 UNK         0.5000 
    103 O         -4.3210  -24.2405  -56.2717 O.2       18 UNK        -0.5000 
    104 N         -2.6607  -25.1830  -55.0639 N.am      19 UNK        -0.5000 
    105 CA        -1.5995  -24.9776  -56.0527 C.3       19 UNK         0.1400 
    106 CB        -0.3954  -25.8725  -55.7268 C.3       19 UNK        -0.1800 
    107 C         -1.1583  -23.5074  -56.1614 C.2       19 UNK         0.5000 
    108 O         -0.8263  -23.0608  -57.2605 O.2       19 UNK        -0.5000 
    109 N         -1.1662  -22.7792  -55.0353 N.am      20 UNK        -0.5000 
    110 CA        -0.8482  -21.3503  -54.9916 C.3       20 UNK         0.1400 
    111 CB        -0.3426  -20.9801  -53.5890 C.3       20 UNK        -0.1800 
    112 C         -2.0578  -20.4812  -55.3813 C.2       20 UNK         0.5000 
    113 O         -1.8678  -19.3800  -55.8975 O.2       20 UNK        -0.5000 
    114 N         -3.2719  -20.9957  -55.1233 N.am      21 UNK        -0.5000 
    115 CA        -4.5854  -20.4071  -55.4274 C.3       21 UNK         0.1400 
    116 CB        -4.8047  -20.3428  -56.9525 C.3       21 UNK        -0.1800 
    117 C         -4.8613  -19.0528  -54.7311 C.2       21 UNK         0.5000 
    118 O         -5.7288  -18.2972  -55.1715 O.2       21 UNK        -0.5000 
    119 N         -4.1256  -18.7770  -53.6494 N.am      22 UNK        -0.5000 
    120 CA        -4.1928  -17.5570  -52.8311 C.3       22 UNK         0.1400 
    121 C         -5.3995  -17.4772  -51.8493 C.2       22 UNK         0.5000 
    122 N         -6.1865  -18.5314  -51.6702 N.am      22 UNK        -0.7600 
    123 O         -5.6454  -16.4259  -51.2654 O.2       22 UNK        -0.5000 
    124 C124       -2.8358  -17.2919  -52.1253 C.3       23 UNK        -0.0398 
    125 S125       -2.1888  -18.7433  -51.2185 S.3       23 UNK        -0.2404 
    126 C126       -1.6830  -18.0176  -49.6318 C.3       23 UNK        -0.0205 
    127 H127       -1.5644   -7.3324  -45.8615 H         1 UNK         0.0600 
    128 H128       -3.2017   -7.6871  -46.4230 H         1 UNK         0.0600 
    129 H129       -1.8087   -8.2284  -47.3633 H         1 UNK         0.0600 
    130 H130       -1.4207  -10.3984  -47.1274 H         1 UNK         0.3000 
    131 H131       -1.2169  -12.4278  -46.3863 H         1 UNK         0.0600 
    132 H132       -3.2577  -12.1746  -44.1462 H         1 UNK         0.0800 
    133 H133       -3.7968  -11.9588  -45.7791 H         1 UNK         0.0800 
    134 H134       -4.9346  -13.9339  -46.9376 H         1 UNK         0.0800 
    135 H135       -3.4093  -13.6552  -47.7491 H         1 UNK         0.0800 
    136 H136       -2.0673  -15.5269  -48.6076 H         1 UNK         0.1150 
    137 H137       -3.8654  -19.4133  -48.7655 H         1 UNK         0.1150 
    138 H138       -5.7791  -16.2477  -46.5928 H         1 UNK         0.1150 
    139 H139       -7.0247  -18.4528  -47.5747 H         1 UNK         0.0800 
    140 H140       -5.9803  -19.8313  -47.7653 H         1 UNK         0.0800 
    141 H141       -4.3643  -19.5763  -43.8905 H         1 UNK         0.0800 
    142 H142       -3.8356  -18.6428  -45.2514 H         1 UNK         0.0800 
    143 H143       -4.1881  -20.8253  -46.6719 H         1 UNK         0.0600 
    144 H144       -1.9166  -20.1468  -45.0265 H         1 UNK         0.3000 
    145 H145        0.3372  -22.3208  -46.6652 H         1 UNK         0.0600 
    146 H146        1.5585  -20.2041  -47.1295 H         1 UNK         0.0600 
    147 H147        0.2570  -20.4514  -48.2796 H         1 UNK         0.0600 
    148 H148        0.0636  -19.2857  -46.9668 H         1 UNK         0.0600 
    149 H149        0.5884  -20.2052  -44.7128 H         1 UNK         0.3000 
    150 H150        0.0078  -22.2983  -41.8656 H         1 UNK         0.0600 
    151 H151        2.3787  -22.7760  -42.5117 H         1 UNK         0.0600 
    152 H152        2.2877  -21.5422  -41.2654 H         1 UNK         0.0600 
    153 H153        2.6119  -21.0846  -42.9380 H         1 UNK         0.0600 
    154 H154        0.8379  -19.6117  -41.9857 H         1 UNK         0.3000 
    155 H155       -2.1896  -17.9627  -42.5782 H         1 UNK         0.0600 
    156 H156       -2.6692  -18.7159  -40.2462 H         1 UNK         0.0600 
    157 H157       -2.0096  -17.0886  -40.2618 H         1 UNK         0.0600 
    158 H158       -0.9884  -18.4508  -39.7983 H         1 UNK         0.0600 
    159 H159        0.2758  -17.0876  -41.4295 H         1 UNK         0.3000 
    160 H160        1.4531  -15.5599  -42.8987 H         1 UNK         0.0600 
    161 H161        2.8319  -18.2677  -43.3153 H         1 UNK         0.0600 
    162 H162        2.6842  -17.3482  -41.8277 H         1 UNK         0.0600 
    163 H163        3.7437  -16.7821  -43.1081 H         1 UNK         0.0600 
    164 H164        1.7215  -14.9713  -44.9874 H         1 UNK         0.3000 
    165 H165        2.9277  -16.5186  -47.9468 H         1 UNK         0.0600 
    166 H166        0.8639  -15.5372  -48.8853 H         1 UNK         0.0600 
    167 H167        0.4213  -16.8903  -47.8567 H         1 UNK         0.0600 
    168 H168        0.2145  -15.2468  -47.2712 H         1 UNK         0.0600 
    169 H169        2.8620  -14.1601  -46.2479 H         1 UNK         0.3000 
    170 H170        4.3918  -12.1277  -48.7794 H         1 UNK         0.0600 
    171 H171        2.0155  -11.4665  -48.7168 H         1 UNK         0.0600 
    172 H172        1.9357  -11.7594  -46.9873 H         1 UNK         0.0600 
    173 H173        2.9483  -10.4608  -47.6199 H         1 UNK         0.0600 
    174 H174        4.1261  -12.1891  -45.8535 H         1 UNK         0.3000 
    175 H175        7.3869  -13.2897  -45.2466 H         1 UNK         0.0600 
    176 H176        6.6541  -10.3125  -45.3201 H         1 UNK         0.0600 
    177 H177        7.9152  -11.0414  -44.3248 H         1 UNK         0.0600 
    178 H178        8.0672  -11.0407  -46.0742 H         1 UNK         0.0600 
    179 H179        5.4034  -11.7390  -43.7717 H         1 UNK         0.3000 
    180 H180        3.6191  -14.5512  -42.5688 H         1 UNK         0.0600 
    181 H181        5.5192  -12.6709  -41.0779 H         1 UNK         0.0600 
    182 H182        5.5868  -14.4288  -41.0357 H         1 UNK         0.0600 
    183 H183        4.1944  -13.5940  -40.3669 H         1 UNK         0.0600 
    184 H184        3.3219  -11.8350  -41.9370 H         1 UNK         0.3000 
    185 H185        1.2744  -10.8830  -42.6685 H         1 UNK         0.0600 
    186 H186        2.9127   -9.9131  -45.0851 H         1 UNK         0.0600 
    187 H187        1.9361   -8.8893  -44.0340 H         1 UNK         0.0600 
    188 H188        3.3568   -9.6964  -43.3970 H         1 UNK         0.0600 
    189 H189        0.5369  -10.4847  -45.4020 H         1 UNK         0.3000 
    190 H190       -2.9288  -21.8971  -43.4968 H         1 UNK         0.3000 
    191 H191       -4.9059  -23.8398  -42.9193 H         1 UNK         0.0600 
    192 H192       -1.9376  -23.8060  -42.1549 H         1 UNK         0.0600 
    193 H193       -3.2307  -22.9959  -41.2729 H         1 UNK         0.0600 
    194 H194       -3.1943  -24.7507  -41.3686 H         1 UNK         0.0600 
    195 H195       -2.0288  -24.0054  -44.9863 H         1 UNK         0.3000 
    196 H196       -2.3370  -26.8039  -45.7047 H         1 UNK         0.0600 
    197 H197       -0.1272  -25.6268  -45.7056 H         1 UNK         0.0600 
    198 H198       -0.6878  -24.5689  -46.9981 H         1 UNK         0.0600 
    199 H199       -0.5038  -26.2942  -47.2837 H         1 UNK         0.0600 
    200 H200       -4.4128  -24.3597  -46.3533 H         1 UNK         0.3000 
    201 H201       -6.0254  -23.9300  -47.7837 H         1 UNK         0.0600 
    202 H202       -7.0452  -25.7915  -49.0417 H         1 UNK         0.0600 
    203 H203       -6.5734  -26.3440  -47.4431 H         1 UNK         0.0600 
    204 H204       -5.6004  -26.7732  -48.8489 H         1 UNK         0.0600 
    205 H205       -3.6514  -22.8104  -48.4794 H         1 UNK         0.3000 
    206 H206       -2.5783  -21.6908  -50.0512 H         1 UNK         0.0600 
    207 H207       -4.7786  -20.9609  -50.9069 H         1 UNK         0.0600 
    208 H208       -4.8929  -22.3819  -51.9442 H         1 UNK         0.0600 
    209 H209       -3.6488  -21.1810  -52.2327 H         1 UNK         0.0600 
    210 H210       -1.7068  -24.1226  -49.4359 H         1 UNK         0.3000 
    211 H211       -0.3678  -25.8261  -49.9201 H         1 UNK         0.0600 
    212 H212        1.0740  -24.0718  -50.9608 H         1 UNK         0.0600 
    213 H213        1.2394  -25.6078  -51.7969 H         1 UNK         0.0600 
    214 H214        0.2832  -24.3202  -52.5154 H         1 UNK         0.0600 
    215 H215       -2.8340  -26.5479  -50.1485 H         1 UNK         0.3000 
    216 H216       -4.4374  -27.8029  -51.0243 H         1 UNK         0.0600 
    217 H217       -3.7813  -29.8802  -52.1966 H         1 UNK         0.0600 
    218 H218       -2.1855  -29.2278  -52.5423 H         1 UNK         0.0600 
    219 H219       -2.6660  -29.5588  -50.8786 H         1 UNK         0.0600 
    220 H220       -4.4233  -25.4242  -52.1180 H         1 UNK         0.3000 
    221 H221       -5.1288  -24.0778  -53.6616 H         1 UNK         0.0600 
    222 H222       -6.2074  -26.5103  -55.1728 H         1 UNK         0.0600 
    223 H223       -7.0213  -25.7053  -53.8309 H         1 UNK         0.0600 
    224 H224       -6.7511  -24.8477  -55.3376 H         1 UNK         0.0600 
    225 H225       -2.3945  -25.6201  -54.1896 H         1 UNK         0.3000 
    226 H226       -1.9844  -25.2825  -57.0282 H         1 UNK         0.0600 
    227 H227       -0.6924  -26.9166  -55.6259 H         1 UNK         0.0600 
    228 H228        0.3522  -25.8207  -56.5191 H         1 UNK         0.0600 
    229 H229        0.0925  -25.5688  -54.8002 H         1 UNK         0.0600 
    230 H230       -1.4736  -23.2073  -54.1646 H         1 UNK         0.3000 
    231 H231       -0.0442  -21.1409  -55.7006 H         1 UNK         0.0600 
    232 H232       -0.0294  -19.9360  -53.5514 H         1 UNK         0.0600 
    233 H233        0.5156  -21.5889  -53.3040 H         1 UNK         0.0600 
    234 H234       -1.1137  -21.1138  -52.8316 H         1 UNK         0.0600 
    235 H235       -3.2938  -21.9138  -54.7035 H         1 UNK         0.3000 
    236 H236       -5.3224  -21.1021  -55.0226 H         1 UNK         0.0600 
    237 H237       -4.6296  -21.3145  -57.4150 H         1 UNK         0.0600 
    238 H238       -5.8282  -20.0520  -57.1916 H         1 UNK         0.0600 
    239 H239       -4.1399  -19.6203  -57.4266 H         1 UNK         0.0600 
    240 H240       -3.4305  -19.4476  -53.3591 H         1 UNK         0.3000 
    241 H241       -4.3471  -16.7256  -53.5215 H         1 UNK         0.0600 
    242 H242       -6.0134  -19.3895  -52.1650 H         1 UNK         0.3800 
    243 H243       -6.9725  -18.4578  -51.0449 H         1 UNK         0.3800 
    244 H244       -2.0908  -17.0230  -52.8752 H         1 UNK         0.0800 
    245 H245       -2.9035  -16.4281  -51.4619 H         1 UNK         0.0800 
    246 H246       -0.9708  -17.2159  -49.8302 H         1 UNK         0.0800 
    247 H247       -1.1479  -18.7735  -49.0611 H         1 UNK         0.0800 
@<TRIPOS>BOND
     1    1    2 1    
     2    1  127 1    
     3    1  128 1    
     4    1  129 1    
     5    2    3 2    
     6    2    4 am   BACKBONE|DICT|INTERRES
     7    4    5 1    
     8    4  130 1    
     9    5    6 1    
    10    5   65 1    
    11    5  131 1    
    12    6    7 1    
    13    6  132 1    
    14    6  133 1    
    15    7    8 1    
    16    8    9 1    
    17    8  134 1    
    18    8  135 1    
    19    9   10 ar   
    20    9   14 ar   
    21   10   11 ar   
    22   10  136 1    
    23   11   12 ar   
    24   11  126 1    
    25   12   13 ar   
    26   12  137 1    
    27   13   14 ar   
    28   13   15 1    
    29   14  138 1    
    30   15   16 1    
    31   15  139 1    
    32   15  140 1    
    33   16   17 1    
    34   17   18 1    
    35   17  141 1    
    36   17  142 1    
    37   18   19 1    
    38   18   67 1    
    39   18  143 1    
    40   19   20 am   BACKBONE|DICT|INTERRES
    41   19  144 1    
    42   20   21 2    
    43   20   22 1    
    44   22   23 1    
    45   22   24 1    
    46   22  145 1    
    47   23  146 1    
    48   23  147 1    
    49   23  148 1    
    50   24   25 am   BACKBONE|DICT|INTERRES
    51   24  149 1    
    52   25   26 2    
    53   25   27 1    
    54   27   28 1    
    55   27   29 1    
    56   27  150 1    
    57   28  151 1    
    58   28  152 1    
    59   28  153 1    
    60   29   30 am   BACKBONE|DICT|INTERRES
    61   29  154 1    
    62   30   31 2    
    63   30   32 1    
    64   32   33 1    
    65   32   34 1    
    66   32  155 1    
    67   33  156 1    
    68   33  157 1    
    69   33  158 1    
    70   34   35 am   BACKBONE|DICT|INTERRES
    71   34  159 1    
    72   35   36 2    
    73   35   37 1    
    74   37   38 1    
    75   37   39 1    
    76   37  160 1    
    77   38  161 1    
    78   38  162 1    
    79   38  163 1    
    80   39   40 am   BACKBONE|DICT|INTERRES
    81   39  164 1    
    82   40   41 2    
    83   40   42 1    
    84   42   43 1    
    85   42   44 1    
    86   42  165 1    
    87   43  166 1    
    88   43  167 1    
    89   43  168 1    
    90   44   45 am   BACKBONE|DICT|INTERRES
    91   44  169 1    
    92   45   46 2    
    93   45   47 1    
    94   47   48 1    
    95   47   49 1    
    96   47  170 1    
    97   48  171 1    
    98   48  172 1    
    99   48  173 1    
   100   49   50 am   BACKBONE|DICT|INTERRES
   101   49  174 1    
   102   50   51 2    
   103   50   52 1    
   104   52   53 1    
   105   52   54 1    
   106   52  175 1    
   107   53  176 1    
   108   53  177 1    
   109   53  178 1    
   110   54   55 am   BACKBONE|DICT|INTERRES
   111   54  179 1    
   112   55   56 2    
   113   55   57 1    
   114   57   58 1    
   115   57   59 1    
   116   57  180 1    
   117   58  181 1    
   118   58  182 1    
   119   58  183 1    
   120   59   60 am   BACKBONE|DICT|INTERRES
   121   59  184 1    
   122   60   61 2    
   123   60   62 1    
   124   62   63 1    
   125   62   64 1    
   126   62  185 1    
   127   63  186 1    
   128   63  187 1    
   129   63  188 1    
   130   64   65 am   BACKBONE|DICT|INTERRES
   131   64  189 1    
   132   65   66 2    
   133   67   68 2    
   134   67   69 am   BACKBONE|DICT|INTERRES
   135   69   70 1    
   136   69  190 1    
   137   70   71 1    
   138   70   72 1    
   139   70  191 1    
   140   71  192 1    
   141   71  193 1    
   142   71  194 1    
   143   72   73 2    
   144   72   74 am   BACKBONE|DICT|INTERRES
   145   74   75 1    
   146   74  195 1    
   147   75   76 1    
   148   75   77 1    
   149   75  196 1    
   150   76  197 1    
   151   76  198 1    
   152   76  199 1    
   153   77   78 2    
   154   77   79 am   BACKBONE|DICT|INTERRES
   155   79   80 1    
   156   79  200 1    
   157   80   81 1    
   158   80   82 1    
   159   80  201 1    
   160   81  202 1    
   161   81  203 1    
   162   81  204 1    
   163   82   83 2    
   164   82   84 am   BACKBONE|DICT|INTERRES
   165   84   85 1    
   166   84  205 1    
   167   85   86 1    
   168   85   87 1    
   169   85  206 1    
   170   86  207 1    
   171   86  208 1    
   172   86  209 1    
   173   87   88 2    
   174   87   89 am   BACKBONE|DICT|INTERRES
   175   89   90 1    
   176   89  210 1    
   177   90   91 1    
   178   90   92 1    
   179   90  211 1    
   180   91  212 1    
   181   91  213 1    
   182   91  214 1    
   183   92   93 2    
   184   92   94 am   BACKBONE|DICT|INTERRES
   185   94   95 1    
   186   94  215 1    
   187   95   96 1    
   188   95   97 1    
   189   95  216 1    
   190   96  217 1    
   191   96  218 1    
   192   96  219 1    
   193   97   98 2    
   194   97   99 am   BACKBONE|DICT|INTERRES
   195   99  100 1    
   196   99  220 1    
   197  100  101 1    
   198  100  102 1    
   199  100  221 1    
   200  101  222 1    
   201  101  223 1    
   202  101  224 1    
   203  102  103 2    
   204  102  104 am   BACKBONE|DICT|INTERRES
   205  104  105 1    
   206  104  225 1    
   207  105  106 1    
   208  105  107 1    
   209  105  226 1    
   210  106  227 1    
   211  106  228 1    
   212  106  229 1    
   213  107  108 2    
   214  107  109 am   BACKBONE|DICT|INTERRES
   215  109  110 1    
   216  109  230 1    
   217  110  111 1    
   218  110  112 1    
   219  110  231 1    
   220  111  232 1    
   221  111  233 1    
   222  111  234 1    
   223  112  113 2    
   224  112  114 am   BACKBONE|DICT|INTERRES
   225  114  115 1    
   226  114  235 1    
   227  115  116 1    
   228  115  117 1    
   229  115  236 1    
   230  116  237 1    
   231  116  238 1    
   232  116  239 1    
   233  117  118 2    
   234  117  119 am   BACKBONE|DICT|INTERRES
   235  119  120 1    
   236  119  240 1    
   237  120  121 1    
   238  120  124 1    
   239  120  241 1    
   240  121  122 am   BACKBONE|DICT|INTERRES
   241  121  123 2    
   242  122  242 1    
   243  122  243 1    
   244  124  125 1    
   245  124  244 1    
   246  124  245 1    
   247  125  126 1    
   248  126  246 1    
   249  126  247 1    
@<TRIPOS>SUBSTRUCTURE
     1 UNK         1 GROUP             0       ****    0 ROOT    
