@<TRIPOS>MOLECULE
3R540
247   249    1
SMALL
USER_CHARGES


@<TRIPOS>ATOM
      1 CA         -2.6662   -9.0203  -48.3962 C.3       0 UNK        -0.1800 
      2 C          -1.3645   -9.6275  -47.8944 C.2       0 UNK         0.5000 
      3 O          -0.7726   -9.1167  -46.9441 O.2       0 UNK        -0.5000 
      4 N          -0.9201  -10.7318  -48.5078 N.am      1 UNK        -0.5000 
      5 CA          0.3280  -11.4323  -48.1730 C.3       1 UNK         0.1400 
      6 C6          0.7605  -12.4013  -49.2974 C.3       23 UNK        -0.0398 
      7 S7         -0.4052  -13.7714  -49.6182 S.3       23 UNK        -0.2404 
      8 C8          0.6260  -15.2183  -49.2213 C.3       23 UNK        -0.0205 
      9 C9          0.0143  -16.4887  -49.7877 C.ar      23 UNK        -0.0193 
     10 C10         0.2116  -16.8147  -51.1317 C.ar      23 UNK        -0.1150 
     11 C11        -0.3778  -17.9557  -51.6824 C.ar      23 UNK        -0.0193 
     12 C12        -1.1372  -18.7996  -50.8643 C.ar      23 UNK        -0.1150 
     13 C13        -1.3485  -18.4805  -49.5180 C.ar      23 UNK        -0.0193 
     14 C14        -0.7714  -17.3218  -48.9877 C.ar      23 UNK        -0.1150 
     15 C15        -2.2743  -19.3337  -48.6623 C.3       23 UNK        -0.0205 
     16 S16        -1.4783  -19.9758  -47.1525 S.3       23 UNK        -0.2404 
     17 C17        -2.9374  -20.7027  -46.3278 C.3       23 UNK        -0.0398 
     18 CA         -2.9564  -22.2482  -46.4111 C.3       11 UNK         0.1400 
     19 N          -1.8724  -22.8586  -45.6305 N.am      11 UNK        -0.5000 
     20 C          -1.4665  -24.1338  -45.7309 C.2       10 UNK         0.5000 
     21 O          -1.9376  -24.9324  -46.5381 O.2       10 UNK        -0.5000 
     22 CA         -0.3951  -24.6254  -44.7367 C.3       10 UNK         0.1400 
     23 CB          1.0021  -24.4970  -45.3624 C.3       10 UNK        -0.1800 
     24 N          -0.3994  -23.9198  -43.4547 N.am      10 UNK        -0.5000 
     25 C          -1.4481  -23.7637  -42.6339 C.2       9 UNK         0.5000 
     26 O          -2.5429  -24.2967  -42.8192 O.2       9 UNK        -0.5000 
     27 CA         -1.2635  -22.7849  -41.4558 C.3       9 UNK         0.1400 
     28 CB         -0.9256  -23.5562  -40.1717 C.3       9 UNK        -0.1800 
     29 N          -0.2409  -21.7521  -41.6841 N.am      9 UNK        -0.5000 
     30 C          -0.2282  -20.8853  -42.7077 C.2       8 UNK         0.5000 
     31 O          -1.0909  -20.8610  -43.5893 O.2       8 UNK        -0.5000 
     32 CA          0.9711  -19.9310  -42.7921 C.3       8 UNK         0.1400 
     33 CB          2.2907  -20.7012  -42.9912 C.3       8 UNK        -0.1800 
     34 N           0.7684  -19.0223  -43.9162 N.am      8 UNK        -0.5000 
     35 C           1.2642  -17.7877  -44.0134 C.2       7 UNK         0.5000 
     36 O           1.9528  -17.2571  -43.1377 O.2       7 UNK        -0.5000 
     37 CA          0.8937  -17.0070  -45.2896 C.3       7 UNK         0.1400 
     38 CB         -0.5167  -16.4091  -45.1606 C.3       7 UNK        -0.1800 
     39 N           1.8488  -15.9283  -45.5429 N.am      7 UNK        -0.5000 
     40 C           3.0973  -16.1076  -45.9983 C.2       6 UNK         0.5000 
     41 O           3.5352  -17.1921  -46.3840 O.2       6 UNK        -0.5000 
     42 CA          4.0159  -14.8708  -46.0204 C.3       6 UNK         0.1400 
     43 CB          4.0350  -14.2374  -47.4170 C.3       6 UNK        -0.1800 
     44 N           3.6004  -13.8642  -45.0416 N.am      6 UNK        -0.5000 
     45 C           3.9473  -13.8919  -43.7469 C.2       5 UNK         0.5000 
     46 O           4.7259  -14.7214  -43.2729 O.2       5 UNK        -0.5000 
     47 CA          3.3017  -12.8338  -42.8276 C.3       5 UNK         0.1400 
     48 CB          4.1250  -12.5523  -41.5530 C.3       5 UNK        -0.1800 
     49 N           2.9555  -11.5875  -43.5168 N.am      5 UNK        -0.5000 
     50 C           3.7845  -10.6917  -44.0765 C.2       4 UNK         0.5000 
     51 O           5.0107  -10.8046  -44.0847 O.2       4 UNK        -0.5000 
     52 CA          3.1397   -9.4604  -44.7526 C.3       4 UNK         0.1400 
     53 CB          3.4290   -9.4566  -46.2627 C.3       4 UNK        -0.1800 
     54 N           1.6902   -9.3895  -44.5491 N.am      4 UNK        -0.5000 
     55 C           1.0865   -8.9714  -43.4272 C.2       3 UNK         0.5000 
     56 O           1.6848   -8.4804  -42.4699 O.2       3 UNK        -0.5000 
     57 CA         -0.4359   -9.1930  -43.3428 C.3       3 UNK         0.1400 
     58 CB         -1.1995   -7.9322  -43.7754 C.3       3 UNK        -0.1800 
     59 N          -0.8707  -10.3394  -44.1489 N.am      3 UNK        -0.5000 
     60 C          -0.6733  -11.6201  -43.7985 C.2       2 UNK         0.5000 
     61 O          -0.1407  -11.9586  -42.7422 O.2       2 UNK        -0.5000 
     62 CA         -1.0776  -12.7066  -44.8126 C.3       2 UNK         0.1400 
     63 CB         -2.5387  -13.1319  -44.6096 C.3       2 UNK        -0.1800 
     64 N          -0.8809  -12.2873  -46.1989 N.am      2 UNK        -0.5000 
     65 C           0.3147  -12.0956  -46.7740 C.2       1 UNK         0.5000 
     66 O           1.3797  -12.3738  -46.2194 O.2       1 UNK        -0.5000 
     67 C          -4.3580  -22.8038  -46.0592 C.2       11 UNK         0.5000 
     68 O          -5.3189  -22.4668  -46.7512 O.2       11 UNK        -0.5000 
     69 N          -4.4626  -23.6450  -45.0228 N.am      12 UNK        -0.5000 
     70 CA         -5.6465  -24.4405  -44.7087 C.3       12 UNK         0.1400 
     71 CB         -6.2408  -23.9593  -43.3754 C.3       12 UNK        -0.1800 
     72 C          -5.3007  -25.9384  -44.6404 C.2       12 UNK         0.5000 
     73 O          -6.0839  -26.7617  -45.1146 O.2       12 UNK        -0.5000 
     74 N          -4.1535  -26.2710  -44.0335 N.am      13 UNK        -0.5000 
     75 CA         -3.7740  -27.6376  -43.6767 C.3       13 UNK         0.1400 
     76 CB         -2.8823  -27.5734  -42.4249 C.3       13 UNK        -0.1800 
     77 C          -3.0591  -28.4326  -44.7860 C.2       13 UNK         0.5000 
     78 O          -2.9245  -29.6482  -44.6333 O.2       13 UNK        -0.5000 
     79 N          -2.5751  -27.7717  -45.8456 N.am      14 UNK        -0.5000 
     80 CA         -1.7204  -28.3818  -46.8660 C.3       14 UNK         0.1400 
     81 CB         -0.2449  -28.1475  -46.4849 C.3       14 UNK        -0.1800 
     82 C          -2.0508  -27.8553  -48.2729 C.2       14 UNK         0.5000 
     83 O          -3.0545  -27.1671  -48.4661 O.2       14 UNK        -0.5000 
     84 N          -1.1910  -28.1996  -49.2427 N.am      15 UNK        -0.5000 
     85 CA         -1.3225  -27.8830  -50.6689 C.3       15 UNK         0.1400 
     86 CB         -0.1910  -28.5779  -51.4407 C.3       15 UNK        -0.1800 
     87 C          -1.3492  -26.3788  -51.0004 C.2       15 UNK         0.5000 
     88 O          -1.8772  -26.0043  -52.0485 O.2       15 UNK        -0.5000 
     89 N          -0.8358  -25.5296  -50.0976 N.am      16 UNK        -0.5000 
     90 CA         -0.9191  -24.0722  -50.2145 C.3       16 UNK         0.1400 
     91 CB         -0.0149  -23.3963  -49.1754 C.3       16 UNK        -0.1800 
     92 C          -2.3643  -23.5322  -50.1605 C.2       16 UNK         0.5000 
     93 O          -2.6112  -22.4399  -50.6686 O.2       16 UNK        -0.5000 
     94 N          -3.3034  -24.3207  -49.6128 N.am      17 UNK        -0.5000 
     95 CA         -4.7428  -24.0596  -49.6684 C.3       17 UNK         0.1400 
     96 CB         -5.4785  -25.0701  -48.7743 C.3       17 UNK        -0.1800 
     97 C          -5.3059  -24.1180  -51.1014 C.2       17 UNK         0.5000 
     98 O          -6.2104  -23.3496  -51.4265 O.2       17 UNK        -0.5000 
     99 N          -4.7539  -25.0097  -51.9372 N.am      18 UNK        -0.5000 
    100 CA        -5.0879  -25.1194  -53.3577 C.3       18 UNK         0.1400 
    101 CB        -4.7829  -26.5420  -53.8513 C.3       18 UNK        -0.1800 
    102 C         -4.3294  -24.0740  -54.1933 C.2       18 UNK         0.5000 
    103 O         -4.8824  -23.5503  -55.1611 O.2       18 UNK        -0.5000 
    104 N         -3.0892  -23.7617  -53.7873 N.am      19 UNK        -0.5000 
    105 CA        -2.2332  -22.7537  -54.4194 C.3       19 UNK         0.1400 
    106 CB        -0.7948  -22.8941  -53.9014 C.3       19 UNK        -0.1800 
    107 C         -2.7221  -21.3060  -54.2209 C.2       19 UNK         0.5000 
    108 O         -2.2662  -20.4269  -54.9473 O.2       19 UNK        -0.5000 
    109 N         -3.6458  -21.0776  -53.2750 N.am      20 UNK        -0.5000 
    110 CA        -4.2449  -19.7862  -52.9105 C.3       20 UNK         0.1400 
    111 CB        -5.1703  -19.9995  -51.7027 C.3       20 UNK        -0.1800 
    112 C         -4.9828  -19.0401  -54.0460 C.2       20 UNK         0.5000 
    113 O         -5.3469  -17.8777  -53.8668 O.2       20 UNK        -0.5000 
    114 N         -5.1581  -19.6930  -55.2027 N.am      21 UNK        -0.5000 
    115 CA        -5.5588  -19.0873  -56.4743 C.3       21 UNK         0.1400 
    116 CB        -5.9537  -20.2156  -57.4410 C.3       21 UNK        -0.1800 
    117 C         -4.4721  -18.1809  -57.1053 C.2       21 UNK         0.5000 
    118 O         -4.7595  -17.5175  -58.1029 O.2       21 UNK        -0.5000 
    119 N         -3.2569  -18.1826  -56.5360 N.am      22 UNK        -0.5000 
    120 CA        -2.0937  -17.3448  -56.8717 C.3       22 UNK         0.1400 
    121 C         -2.3917  -15.8245  -57.0533 C.2       22 UNK         0.5000 
    122 N         -1.6628  -15.1500  -57.9333 N.am      22 UNK        -0.7600 
    123 O         -3.2432  -15.2413  -56.3853 O.2       22 UNK        -0.5000 
    124 C124       -0.9377  -17.5683  -55.8531 C.3       23 UNK        -0.0398 
    125 S125       -1.3867  -17.1882  -54.1186 S.3       23 UNK        -0.2404 
    126 C126       -0.2332  -18.2327  -53.1717 C.3       23 UNK        -0.0205 
    127 H127       -3.4015   -8.9928  -47.5920 H         1 UNK         0.0600 
    128 H128       -3.0870   -9.5918  -49.2239 H         1 UNK         0.0600 
    129 H129       -2.4951   -7.9996  -48.7385 H         1 UNK         0.0600 
    130 H130       -1.4509  -11.1287  -49.2710 H         1 UNK         0.3000 
    131 H131        1.1017  -10.6637  -48.1195 H         1 UNK         0.0600 
    132 H132        0.8641  -11.8415  -50.2279 H         1 UNK         0.0800 
    133 H133        1.7575  -12.7895  -49.0981 H         1 UNK         0.0800 
    134 H134        1.6270  -15.0894  -49.6365 H         1 UNK         0.0800 
    135 H135        0.7434  -15.2947  -48.1395 H         1 UNK         0.0800 
    136 H136        0.7929  -16.1561  -51.7620 H         1 UNK         0.1150 
    137 H137       -1.5959  -19.6843  -51.2839 H         1 UNK         0.1150 
    138 H138       -0.9525  -17.0615  -47.9556 H         1 UNK         0.1150 
    139 H139       -3.1342  -18.7216  -48.3869 H         1 UNK         0.0800 
    140 H140       -2.6645  -20.1750  -49.2363 H         1 UNK         0.0800 
    141 H141       -3.8358  -20.2787  -46.7796 H         1 UNK         0.0800 
    142 H142       -2.9573  -20.3731  -45.2889 H         1 UNK         0.0800 
    143 H143       -2.7913  -22.5186  -47.4544 H         1 UNK         0.0600 
    144 H144       -1.4533  -22.2586  -44.9262 H         1 UNK         0.3000 
    145 H145       -0.5940  -25.6797  -44.5346 H         1 UNK         0.0600 
    146 H146        1.7621  -24.9529  -44.7276 H         1 UNK         0.0600 
    147 H147        1.0512  -24.9926  -46.3324 H         1 UNK         0.0600 
    148 H148        1.2764  -23.4527  -45.5187 H         1 UNK         0.0600 
    149 H149        0.4537  -23.4398  -43.2105 H         1 UNK         0.3000 
    150 H150       -2.2181  -22.2754  -41.3099 H         1 UNK         0.0600 
    151 H151        0.0384  -24.0610  -40.2476 H         1 UNK         0.0600 
    152 H152       -1.6791  -24.3171  -39.9629 H         1 UNK         0.0600 
    153 H153       -0.8906  -22.8910  -39.3086 H         1 UNK         0.0600 
    154 H154        0.5060  -21.7116  -41.0055 H         1 UNK         0.3000 
    155 H155        1.0106  -19.3633  -41.8601 H         1 UNK         0.0600 
    156 H156        2.2690  -21.3055  -43.8992 H         1 UNK         0.0600 
    157 H157        2.4945  -21.3694  -42.1539 H         1 UNK         0.0600 
    158 H158        3.1376  -20.0189  -43.0671 H         1 UNK         0.0600 
    159 H159        0.1291  -19.3730  -44.6197 H         1 UNK         0.3000 
    160 H160        0.9088  -17.6904  -46.1417 H         1 UNK         0.0600 
    161 H161       -0.6338  -15.8532  -44.2300 H         1 UNK         0.0600 
    162 H162       -1.2718  -17.1962  -45.1635 H         1 UNK         0.0600 
    163 H163       -0.7466  -15.7365  -45.9873 H         1 UNK         0.0600 
    164 H164        1.5944  -15.0092  -45.2157 H         1 UNK         0.3000 
    165 H165        5.0303  -15.2032  -45.7897 H         1 UNK         0.0600 
    166 H166        4.3968  -14.9454  -48.1637 H         1 UNK         0.0600 
    167 H167        3.0377  -13.9257  -47.7163 H         1 UNK         0.0600 
    168 H168        4.6865  -13.3640  -47.4486 H         1 UNK         0.0600 
    169 H169        2.9427  -13.1598  -45.3651 H         1 UNK         0.3000 
    170 H170        2.3531  -13.2670  -42.5075 H         1 UNK         0.0600 
    171 H171        4.2375  -13.4557  -40.9525 H         1 UNK         0.0600 
    172 H172        5.1265  -12.1906  -41.7874 H         1 UNK         0.0600 
    173 H173        3.6365  -11.8069  -40.9253 H         1 UNK         0.0600 
    174 H174        1.9645  -11.3978  -43.5744 H         1 UNK         0.3000 
    175 H175        3.5972   -8.5699  -44.3168 H         1 UNK         0.0600 
    176 H176        2.9504   -8.6110  -46.7574 H         1 UNK         0.0600 
    177 H177        4.5004   -9.3790  -46.4523 H         1 UNK         0.0600 
    178 H178        3.0819  -10.3707  -46.7434 H         1 UNK         0.0600 
    179 H179        1.1103   -9.7511  -45.2932 H         1 UNK         0.3000 
    180 H180       -0.6845   -9.3924  -42.2980 H         1 UNK         0.0600 
    181 H181       -0.9533   -7.6360  -44.7949 H         1 UNK         0.0600 
    182 H182       -0.9557   -7.0906  -43.1259 H         1 UNK         0.0600 
    183 H183       -2.2775   -8.0838  -43.7195 H         1 UNK         0.0600 
    184 H184       -1.2498  -10.1261  -45.0630 H         1 UNK         0.3000 
    185 H185       -0.4386  -13.5705  -44.6277 H         1 UNK         0.0600 
    186 H186       -2.7073  -13.4730  -43.5871 H         1 UNK         0.0600 
    187 H187       -3.2287  -12.3089  -44.8003 H         1 UNK         0.0600 
    188 H188       -2.8048  -13.9548  -45.2734 H         1 UNK         0.0600 
    189 H189       -1.7069  -12.0458  -46.7267 H         1 UNK         0.3000 
    190 H190       -3.6345  -23.8373  -44.4722 H         1 UNK         0.3000 
    191 H191       -6.4066  -24.3238  -45.4842 H         1 UNK         0.0600 
    192 H192       -6.5511  -22.9162  -43.4389 H         1 UNK         0.0600 
    193 H193       -7.1202  -24.5450  -43.1048 H         1 UNK         0.0600 
    194 H194       -5.5222  -24.0451  -42.5590 H         1 UNK         0.0600 
    195 H195       -3.5769  -25.5384  -43.6272 H         1 UNK         0.3000 
    196 H196       -4.6757  -28.1945  -43.4128 H         1 UNK         0.0600 
    197 H197       -2.6316  -28.5732  -42.0682 H         1 UNK         0.0600 
    198 H198       -3.3843  -27.0551  -41.6076 H         1 UNK         0.0600 
    199 H199       -1.9451  -27.0528  -42.6258 H         1 UNK         0.0600 
    200 H200       -2.7630  -26.7825  -45.9706 H         1 UNK         0.3000 
    201 H201       -1.9005  -29.4579  -46.9045 H         1 UNK         0.0600 
    202 H202        0.4311  -28.7214  -47.1191 H         1 UNK         0.0600 
    203 H203        0.0268  -27.0971  -46.5789 H         1 UNK         0.0600 
    204 H204       -0.0472  -28.4523  -45.4570 H         1 UNK         0.0600 
    205 H205       -0.3913  -28.7626  -48.9921 H         1 UNK         0.3000 
    206 H206       -2.2728  -28.2993  -51.0091 H         1 UNK         0.0600 
    207 H207       -0.2225  -29.6587  -51.3011 H         1 UNK         0.0600 
    208 H208       -0.2740  -28.3889  -52.5120 H         1 UNK         0.0600 
    209 H209        0.7900  -28.2249  -51.1202 H         1 UNK         0.0600 
    210 H210       -0.4444  -25.9034  -49.2460 H         1 UNK         0.3000 
    211 H211       -0.5204  -23.8144  -51.1938 H         1 UNK         0.0600 
    212 H212       -0.2802  -23.6814  -48.1627 H         1 UNK         0.0600 
    213 H213       -0.0883  -22.3094  -49.2388 H         1 UNK         0.0600 
    214 H214        1.0306  -23.6611  -49.3324 H         1 UNK         0.0600 
    215 H215       -3.0241  -25.2005  -49.1899 H         1 UNK         0.3000 
    216 H216       -4.9159  -23.0537  -49.2827 H         1 UNK         0.0600 
    217 H217       -6.5281  -24.7968  -48.6617 H         1 UNK         0.0600 
    218 H218       -5.0429  -25.1136  -47.7766 H         1 UNK         0.0600 
    219 H219       -5.4437  -26.0776  -49.1905 H         1 UNK         0.0600 
    220 H220       -3.9819  -25.5760  -51.6104 H         1 UNK         0.3000 
    221 H221       -6.1577  -24.9421  -53.4881 H         1 UNK         0.0600 
    222 H222       -3.7213  -26.7798  -53.7822 H         1 UNK         0.0600 
    223 H223       -5.3316  -27.2858  -53.2735 H         1 UNK         0.0600 
    224 H224       -5.0757  -26.6608  -54.8952 H         1 UNK         0.0600 
    225 H225       -2.6912  -24.2830  -53.0155 H         1 UNK         0.3000 
    226 H226       -2.2268  -22.9552  -55.4926 H         1 UNK         0.0600 
    227 H227       -0.1004  -22.3659  -54.5559 H         1 UNK         0.0600 
    228 H228       -0.6857  -22.4576  -52.9093 H         1 UNK         0.0600 
    229 H229       -0.4762  -23.9360  -53.8604 H         1 UNK         0.0600 
    230 H230       -3.9187  -21.8636  -52.7017 H         1 UNK         0.3000 
    231 H231       -3.4305  -19.1309  -52.6006 H         1 UNK         0.0600 
    232 H232       -6.0148  -20.6409  -51.9565 H         1 UNK         0.0600 
    233 H233       -5.5732  -19.0517  -51.3436 H         1 UNK         0.0600 
    234 H234       -4.6372  -20.4598  -50.8706 H         1 UNK         0.0600 
    235 H235       -4.8371  -20.6498  -55.2487 H         1 UNK         0.3000 
    236 H236       -6.4372  -18.4643  -56.2950 H         1 UNK         0.0600 
    237 H237       -6.3033  -19.8137  -58.3928 H         1 UNK         0.0600 
    238 H238       -5.1113  -20.8757  -57.6519 H         1 UNK         0.0600 
    239 H239       -6.7609  -20.8227  -57.0307 H         1 UNK         0.0600 
    240 H240       -3.1015  -18.8173  -55.7602 H         1 UNK         0.3000 
    241 H241       -1.7489  -17.7123  -57.8396 H         1 UNK         0.0600 
    242 H242       -0.9523  -15.5992  -58.4908 H         1 UNK         0.3800 
    243 H243       -1.8325  -14.1633  -58.0538 H         1 UNK         0.3800 
    244 H244       -0.0657  -16.9705  -56.1236 H         1 UNK         0.0800 
    245 H245       -0.6055  -18.6055  -55.9080 H         1 UNK         0.0800 
    246 H246        0.7905  -18.0280  -53.4886 H         1 UNK         0.0800 
    247 H247       -0.4232  -19.2848  -53.3861 H         1 UNK         0.0800 
@<TRIPOS>BOND
     1    1    2 1    
     2    1  127 1    
     3    1  128 1    
     4    1  129 1    
     5    2    3 2    
     6    2    4 am   BACKBONE|DICT|INTERRES
     7    4    5 1    
     8    4  130 1    
     9    5    6 1    
    10    5   65 1    
    11    5  131 1    
    12    6    7 1    
    13    6  132 1    
    14    6  133 1    
    15    7    8 1    
    16    8    9 1    
    17    8  134 1    
    18    8  135 1    
    19    9   10 ar   
    20    9   14 ar   
    21   10   11 ar   
    22   10  136 1    
    23   11   12 ar   
    24   11  126 1    
    25   12   13 ar   
    26   12  137 1    
    27   13   14 ar   
    28   13   15 1    
    29   14  138 1    
    30   15   16 1    
    31   15  139 1    
    32   15  140 1    
    33   16   17 1    
    34   17   18 1    
    35   17  141 1    
    36   17  142 1    
    37   18   19 1    
    38   18   67 1    
    39   18  143 1    
    40   19   20 am   BACKBONE|DICT|INTERRES
    41   19  144 1    
    42   20   21 2    
    43   20   22 1    
    44   22   23 1    
    45   22   24 1    
    46   22  145 1    
    47   23  146 1    
    48   23  147 1    
    49   23  148 1    
    50   24   25 am   BACKBONE|DICT|INTERRES
    51   24  149 1    
    52   25   26 2    
    53   25   27 1    
    54   27   28 1    
    55   27   29 1    
    56   27  150 1    
    57   28  151 1    
    58   28  152 1    
    59   28  153 1    
    60   29   30 am   BACKBONE|DICT|INTERRES
    61   29  154 1    
    62   30   31 2    
    63   30   32 1    
    64   32   33 1    
    65   32   34 1    
    66   32  155 1    
    67   33  156 1    
    68   33  157 1    
    69   33  158 1    
    70   34   35 am   BACKBONE|DICT|INTERRES
    71   34  159 1    
    72   35   36 2    
    73   35   37 1    
    74   37   38 1    
    75   37   39 1    
    76   37  160 1    
    77   38  161 1    
    78   38  162 1    
    79   38  163 1    
    80   39   40 am   BACKBONE|DICT|INTERRES
    81   39  164 1    
    82   40   41 2    
    83   40   42 1    
    84   42   43 1    
    85   42   44 1    
    86   42  165 1    
    87   43  166 1    
    88   43  167 1    
    89   43  168 1    
    90   44   45 am   BACKBONE|DICT|INTERRES
    91   44  169 1    
    92   45   46 2    
    93   45   47 1    
    94   47   48 1    
    95   47   49 1    
    96   47  170 1    
    97   48  171 1    
    98   48  172 1    
    99   48  173 1    
   100   49   50 am   BACKBONE|DICT|INTERRES
   101   49  174 1    
   102   50   51 2    
   103   50   52 1    
   104   52   53 1    
   105   52   54 1    
   106   52  175 1    
   107   53  176 1    
   108   53  177 1    
   109   53  178 1    
   110   54   55 am   BACKBONE|DICT|INTERRES
   111   54  179 1    
   112   55   56 2    
   113   55   57 1    
   114   57   58 1    
   115   57   59 1    
   116   57  180 1    
   117   58  181 1    
   118   58  182 1    
   119   58  183 1    
   120   59   60 am   BACKBONE|DICT|INTERRES
   121   59  184 1    
   122   60   61 2    
   123   60   62 1    
   124   62   63 1    
   125   62   64 1    
   126   62  185 1    
   127   63  186 1    
   128   63  187 1    
   129   63  188 1    
   130   64   65 am   BACKBONE|DICT|INTERRES
   131   64  189 1    
   132   65   66 2    
   133   67   68 2    
   134   67   69 am   BACKBONE|DICT|INTERRES
   135   69   70 1    
   136   69  190 1    
   137   70   71 1    
   138   70   72 1    
   139   70  191 1    
   140   71  192 1    
   141   71  193 1    
   142   71  194 1    
   143   72   73 2    
   144   72   74 am   BACKBONE|DICT|INTERRES
   145   74   75 1    
   146   74  195 1    
   147   75   76 1    
   148   75   77 1    
   149   75  196 1    
   150   76  197 1    
   151   76  198 1    
   152   76  199 1    
   153   77   78 2    
   154   77   79 am   BACKBONE|DICT|INTERRES
   155   79   80 1    
   156   79  200 1    
   157   80   81 1    
   158   80   82 1    
   159   80  201 1    
   160   81  202 1    
   161   81  203 1    
   162   81  204 1    
   163   82   83 2    
   164   82   84 am   BACKBONE|DICT|INTERRES
   165   84   85 1    
   166   84  205 1    
   167   85   86 1    
   168   85   87 1    
   169   85  206 1    
   170   86  207 1    
   171   86  208 1    
   172   86  209 1    
   173   87   88 2    
   174   87   89 am   BACKBONE|DICT|INTERRES
   175   89   90 1    
   176   89  210 1    
   177   90   91 1    
   178   90   92 1    
   179   90  211 1    
   180   91  212 1    
   181   91  213 1    
   182   91  214 1    
   183   92   93 2    
   184   92   94 am   BACKBONE|DICT|INTERRES
   185   94   95 1    
   186   94  215 1    
   187   95   96 1    
   188   95   97 1    
   189   95  216 1    
   190   96  217 1    
   191   96  218 1    
   192   96  219 1    
   193   97   98 2    
   194   97   99 am   BACKBONE|DICT|INTERRES
   195   99  100 1    
   196   99  220 1    
   197  100  101 1    
   198  100  102 1    
   199  100  221 1    
   200  101  222 1    
   201  101  223 1    
   202  101  224 1    
   203  102  103 2    
   204  102  104 am   BACKBONE|DICT|INTERRES
   205  104  105 1    
   206  104  225 1    
   207  105  106 1    
   208  105  107 1    
   209  105  226 1    
   210  106  227 1    
   211  106  228 1    
   212  106  229 1    
   213  107  108 2    
   214  107  109 am   BACKBONE|DICT|INTERRES
   215  109  110 1    
   216  109  230 1    
   217  110  111 1    
   218  110  112 1    
   219  110  231 1    
   220  111  232 1    
   221  111  233 1    
   222  111  234 1    
   223  112  113 2    
   224  112  114 am   BACKBONE|DICT|INTERRES
   225  114  115 1    
   226  114  235 1    
   227  115  116 1    
   228  115  117 1    
   229  115  236 1    
   230  116  237 1    
   231  116  238 1    
   232  116  239 1    
   233  117  118 2    
   234  117  119 am   BACKBONE|DICT|INTERRES
   235  119  120 1    
   236  119  240 1    
   237  120  121 1    
   238  120  124 1    
   239  120  241 1    
   240  121  122 am   BACKBONE|DICT|INTERRES
   241  121  123 2    
   242  122  242 1    
   243  122  243 1    
   244  124  125 1    
   245  124  244 1    
   246  124  245 1    
   247  125  126 1    
   248  126  246 1    
   249  126  247 1    
@<TRIPOS>SUBSTRUCTURE
     1 UNK         1 GROUP             0       ****    0 ROOT    
