@<TRIPOS>MOLECULE
3R540
247   249    1
SMALL
USER_CHARGES


@<TRIPOS>ATOM
      1 CA          3.3272  -12.9856  -48.9924 C.3       0 UNK        -0.1800 
      2 C           2.3414  -13.2061  -47.8549 C.2       0 UNK         0.5000 
      3 O           2.7296  -13.1552  -46.6880 O.2       0 UNK        -0.5000 
      4 N           1.0674  -13.4495  -48.1871 N.am      1 UNK        -0.5000 
      5 CA         -0.0358  -13.6914  -47.2506 C.3       1 UNK         0.1400 
      6 C6         -1.2038  -14.4499  -47.9306 C.3       23 UNK        -0.0398 
      7 S7         -0.8351  -16.2215  -48.1431 S.3       23 UNK        -0.2404 
      8 C8         -0.1607  -16.2831  -49.8286 C.3       23 UNK        -0.0205 
      9 C9          0.0531  -17.7193  -50.2847 C.ar      23 UNK        -0.0193 
     10 C10        -0.9461  -18.3797  -51.0050 C.ar      23 UNK        -0.1150 
     11 C11        -0.7523  -19.6880  -51.4563 C.ar      23 UNK        -0.0193 
     12 C12         0.4555  -20.3377  -51.1758 C.ar      23 UNK        -0.1150 
     13 C13         1.4702  -19.6864  -50.4660 C.ar      23 UNK        -0.0193 
     14 C14         1.2563  -18.3793  -50.0138 C.ar      23 UNK        -0.1150 
     15 C15         2.8271  -20.3555  -50.2607 C.3       23 UNK        -0.0205 
     16 S16         2.7464  -21.9724  -49.4195 S.3       23 UNK        -0.2404 
     17 C17         2.3265  -21.4811  -47.7133 C.3       23 UNK        -0.0398 
     18 CA          1.2485  -22.3767  -47.0544 C.3       11 UNK         0.1400 
     19 N           1.0853  -22.0750  -45.6289 N.am      11 UNK        -0.5000 
     20 C           0.3029  -22.7564  -44.7782 C.2       10 UNK         0.5000 
     21 O          -0.3164  -23.7759  -45.0820 O.2       10 UNK        -0.5000 
     22 CA          0.1459  -22.1768  -43.3606 C.3       10 UNK         0.1400 
     23 CB          1.3318  -22.5797  -42.4719 C.3       10 UNK        -0.1800 
     24 N          -0.0022  -20.7205  -43.3607 N.am      10 UNK        -0.5000 
     25 C          -1.0344  -20.0600  -43.9062 C.2       9 UNK         0.5000 
     26 O          -2.0096  -20.6168  -44.4103 O.2       9 UNK        -0.5000 
     27 CA         -0.9336  -18.5219  -43.9499 C.3       9 UNK         0.1400 
     28 CB         -1.3190  -17.9000  -42.5997 C.3       9 UNK        -0.1800 
     29 N           0.3977  -18.0579  -44.3440 N.am      9 UNK        -0.5000 
     30 C           0.9689  -18.3300  -45.5261 C.2       8 UNK         0.5000 
     31 O           0.4119  -18.9595  -46.4227 O.2       8 UNK        -0.5000 
     32 CA          2.4298  -17.8901  -45.7111 C.3       8 UNK         0.1400 
     33 CB          2.5199  -16.4155  -46.1206 C.3       8 UNK        -0.1800 
     34 N           3.2161  -18.1207  -44.5003 N.am      8 UNK        -0.5000 
     35 C           3.5856  -19.3348  -44.0692 C.2       7 UNK         0.5000 
     36 O           3.3334  -20.3776  -44.6725 O.2       7 UNK        -0.5000 
     37 CA          4.3255  -19.3965  -42.7203 C.3       7 UNK         0.1400 
     38 CB          5.8238  -19.1184  -42.9110 C.3       7 UNK        -0.1800 
     39 N           3.7795  -18.4627  -41.7340 N.am      7 UNK        -0.5000 
     40 C           2.5534  -18.5586  -41.2008 C.2       6 UNK         0.5000 
     41 O           1.7669  -19.4679  -41.4600 O.2       6 UNK        -0.5000 
     42 CA          2.1132  -17.4263  -40.2543 C.3       6 UNK         0.1400 
     43 CB          2.5300  -17.7387  -38.8098 C.3       6 UNK        -0.1800 
     44 N           2.6234  -16.1050  -40.6297 N.am      6 UNK        -0.5000 
     45 C           2.3936  -15.4911  -41.7972 C.2       5 UNK         0.5000 
     46 O           1.7453  -15.9936  -42.7176 O.2       5 UNK        -0.5000 
     47 CA          2.9629  -14.0680  -41.9388 C.3       5 UNK         0.1400 
     48 CB          3.2069  -13.6879  -43.4088 C.3       5 UNK        -0.1800 
     49 N           2.0395  -13.1014  -41.3551 N.am      5 UNK        -0.5000 
     50 C           1.8548  -12.8785  -40.0464 C.2       4 UNK         0.5000 
     51 O           2.5390  -13.3956  -39.1622 O.2       4 UNK        -0.5000 
     52 CA          0.7014  -11.9273  -39.6650 C.3       4 UNK         0.1400 
     53 CB          1.2393  -10.5177  -39.3768 C.3       4 UNK        -0.1800 
     54 N          -0.3199  -11.8393  -40.7116 N.am      4 UNK        -0.5000 
     55 C          -1.1794  -12.8128  -41.0373 C.2       3 UNK         0.5000 
     56 O          -1.2969  -13.8582  -40.3982 O.2       3 UNK        -0.5000 
     57 CA         -1.9997  -12.6179  -42.3269 C.3       3 UNK         0.1400 
     58 CB         -3.2712  -11.7870  -42.0701 C.3       3 UNK        -0.1800 
     59 N          -1.2128  -12.0926  -43.4550 N.am      3 UNK        -0.5000 
     60 C          -0.6936  -10.8682  -43.6386 C.2       2 UNK         0.5000 
     61 O          -0.8162   -9.9532  -42.8237 O.2       2 UNK        -0.5000 
     62 CA          0.1566  -10.6351  -44.9077 C.3       2 UNK         0.1400 
     63 CB          1.5353  -10.0594  -44.5416 C.3       2 UNK        -0.1800 
     64 N           0.3676  -11.8472  -45.7026 N.am      2 UNK        -0.5000 
     65 C          -0.4893  -12.3738  -46.5844 C.2       1 UNK         0.5000 
     66 O          -1.5775  -11.8684  -46.8626 O.2       1 UNK        -0.5000 
     67 C          -0.1004  -22.3154  -47.7986 C.2       11 UNK         0.5000 
     68 O          -0.4585  -23.2787  -48.4748 O.2       11 UNK        -0.5000 
     69 N          -0.8459  -21.2183  -47.6098 N.am      12 UNK        -0.5000 
     70 CA         -2.1766  -21.0147  -48.1756 C.3       12 UNK         0.1400 
     71 CB         -2.6650  -19.5986  -47.8517 C.3       12 UNK        -0.1800 
     72 C          -3.1967  -22.0659  -47.7112 C.2       12 UNK         0.5000 
     73 O          -3.9451  -22.5807  -48.5407 O.2       12 UNK        -0.5000 
     74 N          -3.1904  -22.3903  -46.4108 N.am      13 UNK        -0.5000 
     75 CA         -4.0268  -23.4324  -45.8153 C.3       13 UNK         0.1400 
     76 CB         -3.8542  -23.4317  -44.2891 C.3       13 UNK        -0.1800 
     77 C          -3.7454  -24.8267  -46.4043 C.2       13 UNK         0.5000 
     78 O          -4.6898  -25.5253  -46.7761 O.2       13 UNK        -0.5000 
     79 N          -2.4568  -25.1832  -46.5147 N.am      14 UNK        -0.5000 
     80 CA         -1.9837  -26.4290  -47.1207 C.3       14 UNK         0.1400 
     81 CB         -0.4723  -26.5744  -46.8877 C.3       14 UNK        -0.1800 
     82 C          -2.3190  -26.5270  -48.6200 C.2       14 UNK         0.5000 
     83 O          -2.7656  -27.5803  -49.0773 O.2       14 UNK        -0.5000 
     84 N          -2.1525  -25.4175  -49.3504 N.am      15 UNK        -0.5000 
     85 CA         -2.5003  -25.2537  -50.7626 C.3       15 UNK         0.1400 
     86 CB         -1.6491  -24.1169  -51.3490 C.3       15 UNK        -0.1800 
     87 C          -4.0159  -25.0409  -50.9750 C.2       15 UNK         0.5000 
     88 O          -4.4256  -24.0635  -51.6057 O.2       15 UNK        -0.5000 
     89 N          -4.8093  -25.9808  -50.4410 N.am      16 UNK        -0.5000 
     90 CA         -6.2588  -26.1469  -50.5815 C.3       16 UNK         0.1400 
     91 CB         -6.5850  -26.7270  -51.9720 C.3       16 UNK        -0.1800 
     92 C          -7.0847  -24.8885  -50.2408 C.2       16 UNK         0.5000 
     93 O          -8.0409  -24.5715  -50.9509 O.2       16 UNK        -0.5000 
     94 N          -6.7024  -24.2100  -49.1487 N.am      17 UNK        -0.5000 
     95 CA         -7.3068  -22.9824  -48.6202 C.3       17 UNK         0.1400 
     96 CB         -8.7269  -23.2564  -48.0820 C.3       17 UNK        -0.1800 
     97 C          -7.2488  -21.8192  -49.6329 C.2       17 UNK         0.5000 
     98 O          -8.2826  -21.2677  -50.0154 O.2       17 UNK        -0.5000 
     99 N          -6.0164  -21.4806  -50.0312 N.am      18 UNK        -0.5000 
    100 CA        -5.6241  -20.4180  -50.9564 C.3       18 UNK         0.1400 
    101 CB        -5.9978  -19.0291  -50.3949 C.3       18 UNK        -0.1800 
    102 C         -6.1539  -20.6554  -52.3834 C.2       18 UNK         0.5000 
    103 O         -6.9335  -19.8501  -52.8983 O.2       18 UNK        -0.5000 
    104 N         -5.7229  -21.7676  -52.9945 N.am      19 UNK        -0.5000 
    105 CA        -6.0204  -22.1302  -54.3823 C.3       19 UNK         0.1400 
    106 CB        -5.3556  -23.4782  -54.6986 C.3       19 UNK        -0.1800 
    107 C         -5.5547  -21.0761  -55.4071 C.2       19 UNK         0.5000 
    108 O         -4.5288  -20.4216  -55.2050 O.2       19 UNK        -0.5000 
    109 N         -6.2876  -20.9807  -56.5257 N.am      20 UNK        -0.5000 
    110 CA        -6.0121  -20.0690  -57.6435 C.3       20 UNK         0.1400 
    111 CB        -7.1703  -20.1463  -58.6497 C.3       20 UNK        -0.1800 
    112 C         -4.6663  -20.3308  -58.3500 C.2       20 UNK         0.5000 
    113 O         -4.1066  -19.4131  -58.9525 O.2       20 UNK        -0.5000 
    114 N         -4.1479  -21.5612  -58.2210 N.am      21 UNK        -0.5000 
    115 CA        -2.8313  -21.9988  -58.6914 C.3       21 UNK         0.1400 
    116 CB        -2.6774  -23.4986  -58.3945 C.3       21 UNK        -0.1800 
    117 C         -1.6501  -21.2077  -58.0898 C.2       21 UNK         0.5000 
    118 O         -0.5806  -21.1714  -58.6999 O.2       21 UNK        -0.5000 
    119 N         -1.8637  -20.5739  -56.9286 N.am      22 UNK        -0.5000 
    120 CA        -0.9157  -19.6454  -56.2940 C.3       22 UNK         0.1400 
    121 C         -0.7935  -18.2671  -57.0122 C.2       22 UNK         0.5000 
    122 N         -1.6600  -17.9178  -57.9577 N.am      22 UNK        -0.7600 
    123 O          0.1149  -17.4985  -56.7093 O.2       22 UNK        -0.5000 
    124 C124       -1.2270  -19.4429  -54.7900 C.3       23 UNK        -0.0398 
    125 S125       -1.2848  -21.0076  -53.8554 S.3       23 UNK        -0.2404 
    126 C126       -1.8528  -20.3940  -52.2395 C.3       23 UNK        -0.0205 
    127 H127        2.8468  -13.0670  -49.9678 H         1 UNK         0.0600 
    128 H128        4.1254  -13.7263  -48.9433 H         1 UNK         0.0600 
    129 H129        3.7743  -11.9947  -48.9136 H         1 UNK         0.0600 
    130 H130        0.8095  -13.4361  -49.1628 H         1 UNK         0.3000 
    131 H131        0.3343  -14.3231  -46.4401 H         1 UNK         0.0600 
    132 H132       -2.1037  -14.4064  -47.3142 H         1 UNK         0.0800 
    133 H133       -1.4730  -13.9963  -48.8857 H         1 UNK         0.0800 
    134 H134       -0.8391  -15.7717  -50.5132 H         1 UNK         0.0800 
    135 H135        0.7847  -15.7407  -49.8631 H         1 UNK         0.0800 
    136 H136       -1.8759  -17.8700  -51.2149 H         1 UNK         0.1150 
    137 H137        0.6143  -21.3463  -51.5310 H         1 UNK         0.1150 
    138 H138        2.0337  -17.8628  -49.4687 H         1 UNK         0.1150 
    139 H139        3.2853  -20.5010  -51.2397 H         1 UNK         0.0800 
    140 H140        3.5029  -19.7032  -49.7053 H         1 UNK         0.0800 
    141 H141        2.0143  -20.4384  -47.7083 H         1 UNK         0.0800 
    142 H142        3.2465  -21.5221  -47.1293 H         1 UNK         0.0800 
    143 H143        1.5994  -23.4093  -47.1118 H         1 UNK         0.0600 
    144 H144        1.5992  -21.2744  -45.2779 H         1 UNK         0.3000 
    145 H145       -0.7609  -22.6030  -42.9268 H         1 UNK         0.0600 
    146 H146        1.1841  -22.2468  -41.4445 H         1 UNK         0.0600 
    147 H147        1.4522  -23.6634  -42.4486 H         1 UNK         0.0600 
    148 H148        2.2684  -22.1519  -42.8300 H         1 UNK         0.0600 
    149 H149        0.7330  -20.1897  -42.9020 H         1 UNK         0.3000 
    150 H150       -1.6405  -18.1644  -44.7016 H         1 UNK         0.0600 
    151 H151       -2.3391  -18.1707  -42.3249 H         1 UNK         0.0600 
    152 H152       -1.2678  -16.8114  -42.6356 H         1 UNK         0.0600 
    153 H153       -0.6639  -18.2394  -41.7981 H         1 UNK         0.0600 
    154 H154        0.9116  -17.4963  -43.6717 H         1 UNK         0.3000 
    155 H155        2.8619  -18.4850  -46.5182 H         1 UNK         0.0600 
    156 H156        2.0581  -15.7600  -45.3829 H         1 UNK         0.0600 
    157 H157        3.5553  -16.0996  -46.2480 H         1 UNK         0.0600 
    158 H158        2.0125  -16.2488  -47.0710 H         1 UNK         0.0600 
    159 H159        3.3972  -17.3176  -43.9162 H         1 UNK         0.3000 
    160 H160        4.2139  -20.4091  -42.3266 H         1 UNK         0.0600 
    161 H161        6.0041  -18.1077  -43.2792 H         1 UNK         0.0600 
    162 H162        6.2605  -19.8127  -43.6301 H         1 UNK         0.0600 
    163 H163        6.3690  -19.2372  -41.9744 H         1 UNK         0.0600 
    164 H164        4.3625  -17.6841  -41.4647 H         1 UNK         0.3000 
    165 H165        1.0235  -17.3754  -40.2888 H         1 UNK         0.0600 
    166 H166        2.1410  -16.9921  -38.1170 H         1 UNK         0.0600 
    167 H167        2.1428  -18.7079  -38.4922 H         1 UNK         0.0600 
    168 H168        3.6149  -17.7660  -38.7003 H         1 UNK         0.0600 
    169 H169        3.1088  -15.5878  -39.9085 H         1 UNK         0.3000 
    170 H170        3.9186  -14.0206  -41.4126 H         1 UNK         0.0600 
    171 H171        2.2777  -13.6601  -43.9788 H         1 UNK         0.0600 
    172 H172        3.6775  -12.7082  -43.4908 H         1 UNK         0.0600 
    173 H173        3.8682  -14.4054  -43.8960 H         1 UNK         0.0600 
    174 H174        1.4056  -12.6500  -41.9955 H         1 UNK         0.3000 
    175 H175        0.2364  -12.3143  -38.7560 H         1 UNK         0.0600 
    176 H176        0.4415   -9.8513  -39.0482 H         1 UNK         0.0600 
    177 H177        1.7033  -10.0759  -40.2596 H         1 UNK         0.0600 
    178 H178        1.9902  -10.5397  -38.5859 H         1 UNK         0.0600 
    179 H179       -0.3259  -11.0018  -41.2872 H         1 UNK         0.3000 
    180 H180       -2.3238  -13.6121  -42.6394 H         1 UNK         0.0600 
    181 H181       -3.0427  -10.7870  -41.7011 H         1 UNK         0.0600 
    182 H182       -3.9030  -12.2693  -41.3234 H         1 UNK         0.0600 
    183 H183       -3.8639  -11.6827  -42.9789 H         1 UNK         0.0600 
    184 H184       -1.0183  -12.7674  -44.1796 H         1 UNK         0.3000 
    185 H185       -0.3698   -9.8991  -45.5186 H         1 UNK         0.0600 
    186 H186        1.4402   -9.1080  -44.0166 H         1 UNK         0.0600 
    187 H187        2.0958  -10.7362  -43.8959 H         1 UNK         0.0600 
    188 H188        2.1349   -9.8751  -45.4334 H         1 UNK         0.0600 
    189 H189        1.2774  -12.2920  -45.6222 H         1 UNK         0.3000 
    190 H190       -0.4605  -20.4494  -47.0645 H         1 UNK         0.3000 
    191 H191       -2.0874  -21.1026  -49.2586 H         1 UNK         0.0600 
    192 H192       -2.0000  -18.8551  -48.2862 H         1 UNK         0.0600 
    193 H193       -3.6598  -19.4234  -48.2586 H         1 UNK         0.0600 
    194 H194       -2.7098  -19.4194  -46.7775 H         1 UNK         0.0600 
    195 H195       -2.5761  -21.8809  -45.7814 H         1 UNK         0.3000 
    196 H196       -5.0670  -23.1845  -46.0334 H         1 UNK         0.0600 
    197 H197       -4.4886  -24.1872  -43.8241 H         1 UNK         0.0600 
    198 H198       -4.1302  -22.4674  -43.8623 H         1 UNK         0.0600 
    199 H199       -2.8252  -23.6427  -43.9983 H         1 UNK         0.0600 
    200 H200       -1.7417  -24.5520  -46.1630 H         1 UNK         0.3000 
    201 H201       -2.4857  -27.2559  -46.6145 H         1 UNK         0.0600 
    202 H202       -0.2383  -26.5906  -45.8231 H         1 UNK         0.0600 
    203 H203        0.0859  -25.7532  -47.3386 H         1 UNK         0.0600 
    204 H204       -0.0973  -27.5036  -47.3183 H         1 UNK         0.0600 
    205 H205       -1.7503  -24.5991  -48.8992 H         1 UNK         0.3000 
    206 H206       -2.2342  -26.1681  -51.2964 H         1 UNK         0.0600 
    207 H207       -0.5860  -24.3516  -51.2945 H         1 UNK         0.0600 
    208 H208       -1.8894  -23.9311  -52.3966 H         1 UNK         0.0600 
    209 H209       -1.8103  -23.1934  -50.7967 H         1 UNK         0.0600 
    210 H210       -4.3393  -26.7104  -49.9141 H         1 UNK         0.3000 
    211 H211       -6.5468  -26.8960  -49.8427 H         1 UNK         0.0600 
    212 H212       -6.3358  -26.0272  -52.7675 H         1 UNK         0.0600 
    213 H213       -7.6458  -26.9637  -52.0620 H         1 UNK         0.0600 
    214 H214       -6.0331  -27.6493  -52.1534 H         1 UNK         0.0600 
    215 H215       -5.8785  -24.5365  -48.6592 H         1 UNK         0.3000 
    216 H216       -6.6939  -22.6792  -47.7708 H         1 UNK         0.0600 
    217 H217       -9.1374  -22.3679  -47.6009 H         1 UNK         0.0600 
    218 H218       -8.7187  -24.0533  -47.3385 H         1 UNK         0.0600 
    219 H219       -9.4171  -23.5449  -48.8752 H         1 UNK         0.0600 
    220 H220       -5.2446  -22.0237  -49.6450 H         1 UNK         0.3000 
    221 H221       -4.5369  -20.4617  -51.0130 H         1 UNK         0.0600 
    222 H222       -7.0773  -18.8800  -50.3582 H         1 UNK         0.0600 
    223 H223       -5.6115  -18.8884  -49.3866 H         1 UNK         0.0600 
    224 H224       -5.5811  -18.2361  -51.0169 H         1 UNK         0.0600 
    225 H225       -5.1350  -22.4184  -52.4810 H         1 UNK         0.3000 
    226 H226       -7.1029  -22.2439  -54.4664 H         1 UNK         0.0600 
    227 H227       -5.7329  -24.2615  -54.0445 H         1 UNK         0.0600 
    228 H228       -5.5561  -23.7909  -55.7240 H         1 UNK         0.0600 
    229 H229       -4.2727  -23.4302  -54.5729 H         1 UNK         0.0600 
    230 H230       -7.1068  -21.5638  -56.6215 H         1 UNK         0.3000 
    231 H231       -5.9738  -19.0544  -57.2417 H         1 UNK         0.0600 
    232 H232       -7.2745  -21.1487  -59.0670 H         1 UNK         0.0600 
    233 H233       -7.0117  -19.4592  -59.4820 H         1 UNK         0.0600 
    234 H234       -8.1176  -19.8751  -58.1834 H         1 UNK         0.0600 
    235 H235       -4.6855  -22.2413  -57.7055 H         1 UNK         0.3000 
    236 H236       -2.8023  -21.8551  -59.7733 H         1 UNK         0.0600 
    237 H237       -3.4570  -24.0813  -58.8856 H         1 UNK         0.0600 
    238 H238       -1.7184  -23.8726  -58.7554 H         1 UNK         0.0600 
    239 H239       -2.7276  -23.7026  -57.3240 H         1 UNK         0.0600 
    240 H240       -2.7661  -20.6574  -56.4754 H         1 UNK         0.3000 
    241 H241        0.0741  -20.1013  -56.3580 H         1 UNK         0.0600 
    242 H242       -2.4201  -18.5309  -58.2308 H         1 UNK         0.3800 
    243 H243       -1.5583  -17.0241  -58.4120 H         1 UNK         0.3800 
    244 H244       -0.4739  -18.8036  -54.3255 H         1 UNK         0.0800 
    245 H245       -2.1839  -18.9314  -54.6710 H         1 UNK         0.0800 
    246 H246       -2.7049  -19.7317  -52.3986 H         1 UNK         0.0800 
    247 H247       -2.2297  -21.2295  -51.6554 H         1 UNK         0.0800 
@<TRIPOS>BOND
     1    1    2 1    
     2    1  127 1    
     3    1  128 1    
     4    1  129 1    
     5    2    3 2    
     6    2    4 am   BACKBONE|DICT|INTERRES
     7    4    5 1    
     8    4  130 1    
     9    5    6 1    
    10    5   65 1    
    11    5  131 1    
    12    6    7 1    
    13    6  132 1    
    14    6  133 1    
    15    7    8 1    
    16    8    9 1    
    17    8  134 1    
    18    8  135 1    
    19    9   10 ar   
    20    9   14 ar   
    21   10   11 ar   
    22   10  136 1    
    23   11   12 ar   
    24   11  126 1    
    25   12   13 ar   
    26   12  137 1    
    27   13   14 ar   
    28   13   15 1    
    29   14  138 1    
    30   15   16 1    
    31   15  139 1    
    32   15  140 1    
    33   16   17 1    
    34   17   18 1    
    35   17  141 1    
    36   17  142 1    
    37   18   19 1    
    38   18   67 1    
    39   18  143 1    
    40   19   20 am   BACKBONE|DICT|INTERRES
    41   19  144 1    
    42   20   21 2    
    43   20   22 1    
    44   22   23 1    
    45   22   24 1    
    46   22  145 1    
    47   23  146 1    
    48   23  147 1    
    49   23  148 1    
    50   24   25 am   BACKBONE|DICT|INTERRES
    51   24  149 1    
    52   25   26 2    
    53   25   27 1    
    54   27   28 1    
    55   27   29 1    
    56   27  150 1    
    57   28  151 1    
    58   28  152 1    
    59   28  153 1    
    60   29   30 am   BACKBONE|DICT|INTERRES
    61   29  154 1    
    62   30   31 2    
    63   30   32 1    
    64   32   33 1    
    65   32   34 1    
    66   32  155 1    
    67   33  156 1    
    68   33  157 1    
    69   33  158 1    
    70   34   35 am   BACKBONE|DICT|INTERRES
    71   34  159 1    
    72   35   36 2    
    73   35   37 1    
    74   37   38 1    
    75   37   39 1    
    76   37  160 1    
    77   38  161 1    
    78   38  162 1    
    79   38  163 1    
    80   39   40 am   BACKBONE|DICT|INTERRES
    81   39  164 1    
    82   40   41 2    
    83   40   42 1    
    84   42   43 1    
    85   42   44 1    
    86   42  165 1    
    87   43  166 1    
    88   43  167 1    
    89   43  168 1    
    90   44   45 am   BACKBONE|DICT|INTERRES
    91   44  169 1    
    92   45   46 2    
    93   45   47 1    
    94   47   48 1    
    95   47   49 1    
    96   47  170 1    
    97   48  171 1    
    98   48  172 1    
    99   48  173 1    
   100   49   50 am   BACKBONE|DICT|INTERRES
   101   49  174 1    
   102   50   51 2    
   103   50   52 1    
   104   52   53 1    
   105   52   54 1    
   106   52  175 1    
   107   53  176 1    
   108   53  177 1    
   109   53  178 1    
   110   54   55 am   BACKBONE|DICT|INTERRES
   111   54  179 1    
   112   55   56 2    
   113   55   57 1    
   114   57   58 1    
   115   57   59 1    
   116   57  180 1    
   117   58  181 1    
   118   58  182 1    
   119   58  183 1    
   120   59   60 am   BACKBONE|DICT|INTERRES
   121   59  184 1    
   122   60   61 2    
   123   60   62 1    
   124   62   63 1    
   125   62   64 1    
   126   62  185 1    
   127   63  186 1    
   128   63  187 1    
   129   63  188 1    
   130   64   65 am   BACKBONE|DICT|INTERRES
   131   64  189 1    
   132   65   66 2    
   133   67   68 2    
   134   67   69 am   BACKBONE|DICT|INTERRES
   135   69   70 1    
   136   69  190 1    
   137   70   71 1    
   138   70   72 1    
   139   70  191 1    
   140   71  192 1    
   141   71  193 1    
   142   71  194 1    
   143   72   73 2    
   144   72   74 am   BACKBONE|DICT|INTERRES
   145   74   75 1    
   146   74  195 1    
   147   75   76 1    
   148   75   77 1    
   149   75  196 1    
   150   76  197 1    
   151   76  198 1    
   152   76  199 1    
   153   77   78 2    
   154   77   79 am   BACKBONE|DICT|INTERRES
   155   79   80 1    
   156   79  200 1    
   157   80   81 1    
   158   80   82 1    
   159   80  201 1    
   160   81  202 1    
   161   81  203 1    
   162   81  204 1    
   163   82   83 2    
   164   82   84 am   BACKBONE|DICT|INTERRES
   165   84   85 1    
   166   84  205 1    
   167   85   86 1    
   168   85   87 1    
   169   85  206 1    
   170   86  207 1    
   171   86  208 1    
   172   86  209 1    
   173   87   88 2    
   174   87   89 am   BACKBONE|DICT|INTERRES
   175   89   90 1    
   176   89  210 1    
   177   90   91 1    
   178   90   92 1    
   179   90  211 1    
   180   91  212 1    
   181   91  213 1    
   182   91  214 1    
   183   92   93 2    
   184   92   94 am   BACKBONE|DICT|INTERRES
   185   94   95 1    
   186   94  215 1    
   187   95   96 1    
   188   95   97 1    
   189   95  216 1    
   190   96  217 1    
   191   96  218 1    
   192   96  219 1    
   193   97   98 2    
   194   97   99 am   BACKBONE|DICT|INTERRES
   195   99  100 1    
   196   99  220 1    
   197  100  101 1    
   198  100  102 1    
   199  100  221 1    
   200  101  222 1    
   201  101  223 1    
   202  101  224 1    
   203  102  103 2    
   204  102  104 am   BACKBONE|DICT|INTERRES
   205  104  105 1    
   206  104  225 1    
   207  105  106 1    
   208  105  107 1    
   209  105  226 1    
   210  106  227 1    
   211  106  228 1    
   212  106  229 1    
   213  107  108 2    
   214  107  109 am   BACKBONE|DICT|INTERRES
   215  109  110 1    
   216  109  230 1    
   217  110  111 1    
   218  110  112 1    
   219  110  231 1    
   220  111  232 1    
   221  111  233 1    
   222  111  234 1    
   223  112  113 2    
   224  112  114 am   BACKBONE|DICT|INTERRES
   225  114  115 1    
   226  114  235 1    
   227  115  116 1    
   228  115  117 1    
   229  115  236 1    
   230  116  237 1    
   231  116  238 1    
   232  116  239 1    
   233  117  118 2    
   234  117  119 am   BACKBONE|DICT|INTERRES
   235  119  120 1    
   236  119  240 1    
   237  120  121 1    
   238  120  124 1    
   239  120  241 1    
   240  121  122 am   BACKBONE|DICT|INTERRES
   241  121  123 2    
   242  122  242 1    
   243  122  243 1    
   244  124  125 1    
   245  124  244 1    
   246  124  245 1    
   247  125  126 1    
   248  126  246 1    
   249  126  247 1    
@<TRIPOS>SUBSTRUCTURE
     1 UNK         1 GROUP             0       ****    0 ROOT    
