@<TRIPOS>MOLECULE
3R540
247   249    1
SMALL
USER_CHARGES


@<TRIPOS>ATOM
      1 CA          3.1155  -14.4043  -45.1256 C.3       0 UNK        -0.1800 
      2 C           2.1035  -13.9938  -46.1839 C.2       0 UNK         0.5000 
      3 O           0.9259  -13.8197  -45.8702 O.2       0 UNK        -0.5000 
      4 N           2.5503  -13.8327  -47.4365 N.am      1 UNK        -0.5000 
      5 CA          1.7106  -13.5136  -48.6016 C.3       1 UNK         0.1400 
      6 C6          2.4700  -13.6698  -49.9414 C.3       23 UNK        -0.0398 
      7 S7          3.1426  -15.3455  -50.1889 S.3       23 UNK        -0.2404 
      8 C8          1.6536  -16.2131  -50.7863 C.3       23 UNK        -0.0205 
      9 C9          1.9010  -17.6763  -51.1370 C.ar      23 UNK        -0.0193 
     10 C10         1.3245  -18.2184  -52.2887 C.ar      23 UNK        -0.1150 
     11 C11         1.5024  -19.5668  -52.6075 C.ar      23 UNK        -0.0193 
     12 C12         2.2557  -20.3811  -51.7562 C.ar      23 UNK        -0.1150 
     13 C13         2.8400  -19.8591  -50.5968 C.ar      23 UNK        -0.0193 
     14 C14         2.6622  -18.5021  -50.3025 C.ar      23 UNK        -0.1150 
     15 C15         3.6882  -20.7747  -49.7137 C.3       23 UNK        -0.0205 
     16 S16         3.7198  -20.3283  -47.9405 S.3       23 UNK        -0.2404 
     17 C17         4.7385  -21.6920  -47.2683 C.3       23 UNK        -0.0398 
     18 CA          3.9509  -22.7236  -46.4214 C.3       11 UNK         0.1400 
     19 N           3.3727  -22.1169  -45.2170 N.am      11 UNK        -0.5000 
     20 C           2.7651  -22.7785  -44.2232 C.2       10 UNK         0.5000 
     21 O           2.5204  -23.9842  -44.2617 O.2       10 UNK        -0.5000 
     22 CA          2.3793  -21.9772  -42.9707 C.3       10 UNK         0.1400 
     23 CB          3.1670  -20.6626  -42.8035 C.3       10 UNK        -0.1800 
     24 N           0.9498  -21.6843  -42.9980 N.am      10 UNK        -0.5000 
     25 C           0.0998  -21.9013  -41.9843 C.2       9 UNK         0.5000 
     26 O           0.4312  -22.4442  -40.9290 O.2       9 UNK        -0.5000 
     27 CA         -1.3620  -21.4338  -42.1490 C.3       9 UNK         0.1400 
     28 CB         -1.7658  -20.4888  -41.0045 C.3       9 UNK        -0.1800 
     29 N          -1.5826  -20.7364  -43.4134 N.am      9 UNK        -0.5000 
     30 C          -2.1484  -21.2596  -44.5069 C.2       8 UNK         0.5000 
     31 O          -2.6267  -22.3905  -44.5560 O.2       8 UNK        -0.5000 
     32 CA         -2.1680  -20.3825  -45.7741 C.3       8 UNK         0.1400 
     33 CB         -3.5644  -19.7916  -46.0101 C.3       8 UNK        -0.1800 
     34 N          -1.1840  -19.2973  -45.7547 N.am      8 UNK        -0.5000 
     35 C           0.1457  -19.4662  -45.7701 C.2       7 UNK         0.5000 
     36 O           0.6912  -20.5702  -45.8245 O.2       7 UNK        -0.5000 
     37 CA          0.9995  -18.1920  -45.6351 C.3       7 UNK         0.1400 
     38 CB          1.2207  -17.5259  -46.9991 C.3       7 UNK        -0.1800 
     39 N           0.4139  -17.2229  -44.7060 N.am      7 UNK        -0.5000 
     40 C           0.3048  -17.4129  -43.3829 C.2       6 UNK         0.5000 
     41 O           0.7307  -18.4060  -42.7971 O.2       6 UNK        -0.5000 
     42 CA         -0.4565  -16.3374  -42.5900 C.3       6 UNK         0.1400 
     43 CB          0.4341  -15.1130  -42.3352 C.3       6 UNK        -0.1800 
     44 N          -1.6870  -15.9254  -43.2666 N.am      6 UNK        -0.5000 
     45 C          -2.7636  -16.7117  -43.4198 C.2       5 UNK         0.5000 
     46 O          -2.8473  -17.8495  -42.9607 O.2       5 UNK        -0.5000 
     47 CA         -3.9327  -16.1450  -44.2486 C.3       5 UNK         0.1400 
     48 CB         -4.9408  -15.4307  -43.3370 C.3       5 UNK        -0.1800 
     49 N          -3.5031  -15.2222  -45.2981 N.am      5 UNK        -0.5000 
     50 C          -2.7135  -15.5263  -46.3351 C.2       4 UNK         0.5000 
     51 O          -2.2685  -16.6550  -46.5452 O.2       4 UNK        -0.5000 
     52 CA         -2.2870  -14.3560  -47.2383 C.3       4 UNK         0.1400 
     53 CB         -3.4018  -13.9405  -48.2158 C.3       4 UNK        -0.1800 
     54 N          -1.7711  -13.2116  -46.4757 N.am      4 UNK        -0.5000 
     55 C          -2.4227  -12.3375  -45.6926 C.2       3 UNK         0.5000 
     56 O          -3.6380  -12.3625  -45.4969 O.2       3 UNK        -0.5000 
     57 CA         -1.5660  -11.2816  -44.9720 C.3       3 UNK         0.1400 
     58 CB         -1.1632  -11.7872  -43.5789 C.3       3 UNK        -0.1800 
     59 N          -0.3557  -10.9603  -45.7283 N.am      3 UNK        -0.5000 
     60 C          -0.2638   -9.9709  -46.6275 C.2       2 UNK         0.5000 
     61 O          -1.1613   -9.1571  -46.8489 O.2       2 UNK        -0.5000 
     62 CA          1.0486   -9.8905  -47.4323 C.3       2 UNK         0.1400 
     63 CB          2.0915   -9.0461  -46.6845 C.3       2 UNK        -0.1800 
     64 N           1.6145  -11.2100  -47.7214 N.am      2 UNK        -0.5000 
     65 C           1.0485  -12.1209  -48.5270 C.2       1 UNK         0.5000 
     66 O           0.0283  -11.9084  -49.1820 O.2       1 UNK        -0.5000 
     67 C           2.9426  -23.5130  -47.2839 C.2       11 UNK         0.5000 
     68 O           3.3285  -24.5065  -47.9014 O.2       11 UNK        -0.5000 
     69 N           1.6821  -23.0623  -47.3078 N.am      12 UNK        -0.5000 
     70 CA          0.6107  -23.6455  -48.1115 C.3       12 UNK         0.1400 
     71 CB         -0.0808  -22.5206  -48.8980 C.3       12 UNK        -0.1800 
     72 C          -0.3947  -24.4467  -47.2656 C.2       12 UNK         0.5000 
     73 O          -1.4519  -24.7992  -47.7883 O.2       12 UNK        -0.5000 
     74 N          -0.0732  -24.7447  -45.9960 N.am      13 UNK        -0.5000 
     75 CA         -0.9569  -25.3971  -45.0146 C.3       13 UNK         0.1400 
     76 CB         -0.2347  -25.4924  -43.6632 C.3       13 UNK        -0.1800 
     77 C          -1.5229  -26.7763  -45.4120 C.2       13 UNK         0.5000 
     78 O          -2.5132  -27.2109  -44.8230 O.2       13 UNK        -0.5000 
     79 N          -0.9135  -27.4300  -46.4092 N.am      14 UNK        -0.5000 
     80 CA         -1.3977  -28.6698  -47.0164 C.3       14 UNK         0.1400 
     81 CB         -0.3041  -29.2261  -47.9412 C.3       14 UNK        -0.1800 
     82 C          -2.7243  -28.5078  -47.7908 C.2       14 UNK         0.5000 
     83 O          -3.4415  -29.4968  -47.9500 O.2       14 UNK        -0.5000 
     84 N          -3.0243  -27.2884  -48.2626 N.am      15 UNK        -0.5000 
     85 CA         -4.2214  -26.9766  -49.0507 C.3       15 UNK         0.1400 
     86 CB         -3.8374  -26.9432  -50.5402 C.3       15 UNK        -0.1800 
     87 C          -4.9025  -25.6564  -48.6435 C.2       15 UNK         0.5000 
     88 O          -6.0623  -25.4547  -49.0037 O.2       15 UNK        -0.5000 
     89 N          -4.1753  -24.7711  -47.9441 N.am      16 UNK        -0.5000 
     90 CA         -4.5259  -23.3861  -47.6001 C.3       16 UNK         0.1400 
     91 CB         -5.7740  -23.3243  -46.6955 C.3       16 UNK        -0.1800 
     92 C          -4.6270  -22.4689  -48.8399 C.2       16 UNK         0.5000 
     93 O          -5.2959  -21.4361  -48.7956 O.2       16 UNK        -0.5000 
     94 N          -3.9479  -22.8597  -49.9288 N.am      17 UNK        -0.5000 
     95 CA         -4.0543  -22.2571  -51.2589 C.3       17 UNK         0.1400 
     96 CB         -3.3464  -23.1649  -52.2752 C.3       17 UNK        -0.1800 
     97 C          -3.5193  -20.8182  -51.3603 C.2       17 UNK         0.5000 
     98 O          -3.9193  -20.0879  -52.2685 O.2       17 UNK        -0.5000 
     99 N          -2.6410  -20.4184  -50.4311 N.am      18 UNK        -0.5000 
    100 CA        -2.0659  -19.0720  -50.3699 C.3       18 UNK         0.1400 
    101 CB        -0.9265  -19.0460  -49.3524 C.3       18 UNK        -0.1800 
    102 C         -3.0964  -17.9668  -50.0710 C.2       18 UNK         0.5000 
    103 O         -2.8144  -16.7982  -50.3368 O.2       18 UNK        -0.5000 
    104 N         -4.2953  -18.3479  -49.6044 N.am      19 UNK        -0.5000 
    105 CA        -5.4864  -17.5048  -49.5036 C.3       19 UNK         0.1400 
    106 CB        -6.4759  -18.1641  -48.5273 C.3       19 UNK        -0.1800 
    107 C         -6.1094  -17.2154  -50.8921 C.2       19 UNK         0.5000 
    108 O         -7.2925  -17.4772  -51.1135 O.2       19 UNK        -0.5000 
    109 N         -5.2835  -16.6742  -51.7978 N.am      20 UNK        -0.5000 
    110 CA        -5.5879  -16.1829  -53.1438 C.3       20 UNK         0.1400 
    111 CB        -6.5670  -14.9917  -53.0716 C.3       20 UNK        -0.1800 
    112 C         -6.0325  -17.2507  -54.1692 C.2       20 UNK         0.5000 
    113 O         -6.5924  -16.8763  -55.2015 O.2       20 UNK        -0.5000 
    114 N         -5.7603  -18.5410  -53.9195 N.am      21 UNK        -0.5000 
    115 CA        -6.0421  -19.6190  -54.8736 C.3       21 UNK         0.1400 
    116 CB        -6.4688  -20.9003  -54.1392 C.3       21 UNK        -0.1800 
    117 C         -4.8323  -19.8709  -55.7901 C.2       21 UNK         0.5000 
    118 O         -5.0039  -19.9111  -57.0092 O.2       21 UNK        -0.5000 
    119 N         -3.6338  -20.0066  -55.2018 N.am      22 UNK        -0.5000 
    120 CA        -2.3609  -20.1479  -55.9381 C.3       22 UNK         0.1400 
    121 C         -1.6829  -18.7982  -56.3183 C.2       22 UNK         0.5000 
    122 N         -2.2081  -17.6506  -55.9070 N.am      22 UNK        -0.7600 
    123 O         -0.6730  -18.7905  -57.0169 O.2       22 UNK        -0.5000 
    124 C124       -1.3770  -21.1373  -55.2559 C.3       23 UNK        -0.0398 
    125 S125       -0.8335  -20.6504  -53.5835 S.3       23 UNK        -0.2404 
    126 C126        0.8833  -20.1355  -53.8750 C.3       23 UNK        -0.0205 
    127 H127        4.1248  -14.4663  -45.5327 H         1 UNK         0.0600 
    128 H128        3.1192  -13.6811  -44.3104 H         1 UNK         0.0600 
    129 H129        2.8523  -15.3797  -44.7166 H         1 UNK         0.0600 
    130 H130        3.5260  -13.9992  -47.6395 H         1 UNK         0.3000 
    131 H131        0.8901  -14.2335  -48.6008 H         1 UNK         0.0600 
    132 H132        1.8221  -13.4310  -50.7873 H         1 UNK         0.0800 
    133 H133        3.3008  -12.9636  -49.9904 H         1 UNK         0.0800 
    134 H134        0.8795  -16.1709  -50.0199 H         1 UNK         0.0800 
    135 H135        1.2640  -15.6791  -51.6544 H         1 UNK         0.0800 
    136 H136        0.7277  -17.5939  -52.9388 H         1 UNK         0.1150 
    137 H137        2.3918  -21.4249  -52.0024 H         1 UNK         0.1150 
    138 H138        3.1165  -18.0805  -49.4184 H         1 UNK         0.1150 
    139 H139        3.3252  -21.7999  -49.8014 H         1 UNK         0.0800 
    140 H140        4.7090  -20.7694  -50.0976 H         1 UNK         0.0800 
    141 H141        5.5229  -21.2461  -46.6554 H         1 UNK         0.0800 
    142 H142        5.2647  -22.1952  -48.0814 H         1 UNK         0.0800 
    143 H143        4.6761  -23.4580  -46.0646 H         1 UNK         0.0600 
    144 H144        3.4845  -21.1175  -45.1329 H         1 UNK         0.3000 
    145 H145        2.6224  -22.6181  -42.1209 H         1 UNK         0.0600 
    146 H146        2.9282  -20.1886  -41.8512 H         1 UNK         0.0600 
    147 H147        4.2429  -20.8416  -42.8132 H         1 UNK         0.0600 
    148 H148        2.9378  -19.9433  -43.5894 H         1 UNK         0.0600 
    149 H149        0.6016  -21.2722  -43.8557 H         1 UNK         0.3000 
    150 H150       -1.9929  -22.3232  -42.0942 H         1 UNK         0.0600 
    151 H151       -1.6697  -20.9777  -40.0344 H         1 UNK         0.0600 
    152 H152       -2.8037  -20.1707  -41.1054 H         1 UNK         0.0600 
    153 H153       -1.1437  -19.5930  -40.9864 H         1 UNK         0.0600 
    154 H154       -1.2469  -19.7830  -43.4550 H         1 UNK         0.3000 
    155 H155       -1.9335  -21.0335  -46.6162 H         1 UNK         0.0600 
    156 H156       -3.5889  -19.1727  -46.9068 H         1 UNK         0.0600 
    157 H157       -3.8847  -19.1803  -45.1682 H         1 UNK         0.0600 
    158 H158       -4.3064  -20.5787  -46.1384 H         1 UNK         0.0600 
    159 H159       -1.5518  -18.3507  -45.7688 H         1 UNK         0.3000 
    160 H160        1.9744  -18.4959  -45.2501 H         1 UNK         0.0600 
    161 H161        0.3393  -16.9799  -47.3347 H         1 UNK         0.0600 
    162 H162        1.4579  -18.2697  -47.7585 H         1 UNK         0.0600 
    163 H163        2.0558  -16.8278  -46.9656 H         1 UNK         0.0600 
    164 H164        0.0121  -16.3903  -45.1118 H         1 UNK         0.3000 
    165 H165       -0.7280  -16.7654  -41.6225 H         1 UNK         0.0600 
    166 H166        0.7416  -14.6365  -43.2653 H         1 UNK         0.0600 
    167 H167       -0.0815  -14.3685  -41.7284 H         1 UNK         0.0600 
    168 H168        1.3409  -15.3966  -41.7995 H         1 UNK         0.0600 
    169 H169       -1.7007  -15.0052  -43.6786 H         1 UNK         0.3000 
    170 H170       -4.4412  -16.9813  -44.7301 H         1 UNK         0.0600 
    171 H171       -5.2997  -16.0980  -42.5523 H         1 UNK         0.0600 
    172 H172       -4.4979  -14.5597  -42.8522 H         1 UNK         0.0600 
    173 H173       -5.8115  -15.0942  -43.9000 H         1 UNK         0.0600 
    174 H174       -3.7981  -14.2536  -45.2109 H         1 UNK         0.3000 
    175 H175       -1.4482  -14.7136  -47.8372 H         1 UNK         0.0600 
    176 H176       -3.6619  -14.7648  -48.8775 H         1 UNK         0.0600 
    177 H177       -4.3139  -13.6389  -47.7008 H         1 UNK         0.0600 
    178 H178       -3.0805  -13.1109  -48.8457 H         1 UNK         0.0600 
    179 H179       -0.7571  -13.1677  -46.4481 H         1 UNK         0.3000 
    180 H180       -2.1773  -10.3859  -44.8438 H         1 UNK         0.0600 
    181 H181       -0.5237  -12.6665  -43.6434 H         1 UNK         0.0600 
    182 H182       -2.0399  -12.0573  -42.9885 H         1 UNK         0.0600 
    183 H183       -0.6215  -11.0207  -43.0245 H         1 UNK         0.0600 
    184 H184        0.4214  -11.5995  -45.6289 H         1 UNK         0.3000 
    185 H185        0.8275   -9.3990  -48.3822 H         1 UNK         0.0600 
    186 H186        2.9983   -8.9235  -47.2770 H         1 UNK         0.0600 
    187 H187        1.7057   -8.0480  -46.4726 H         1 UNK         0.0600 
    188 H188        2.3704   -9.4991  -45.7323 H         1 UNK         0.0600 
    189 H189        2.4582  -11.4642  -47.2286 H         1 UNK         0.3000 
    190 H190        1.4491  -22.2327  -46.7687 H         1 UNK         0.3000 
    191 H191        1.0189  -24.3463  -48.8421 H         1 UNK         0.0600 
    192 H192        0.6300  -22.0069  -49.5454 H         1 UNK         0.0600 
    193 H193       -0.8736  -22.9080  -49.5386 H         1 UNK         0.0600 
    194 H194       -0.5178  -21.7803  -48.2310 H         1 UNK         0.0600 
    195 H195        0.8301  -24.4461  -45.6478 H         1 UNK         0.3000 
    196 H196       -1.8240  -24.7504  -44.8865 H         1 UNK         0.0600 
    197 H197       -0.8679  -25.9576  -42.9066 H         1 UNK         0.0600 
    198 H198        0.0324  -24.5050  -43.2917 H         1 UNK         0.0600 
    199 H199        0.6790  -26.0831  -43.7379 H         1 UNK         0.0600 
    200 H200       -0.1033  -27.0019  -46.8318 H         1 UNK         0.3000 
    201 H201       -1.5706  -29.3931  -46.2167 H         1 UNK         0.0600 
    202 H202        0.6177  -29.4186  -47.3920 H         1 UNK         0.0600 
    203 H203       -0.0746  -28.5349  -48.7533 H         1 UNK         0.0600 
    204 H204       -0.6154  -30.1696  -48.3915 H         1 UNK         0.0600 
    205 H205       -2.3724  -26.5303  -48.0931 H         1 UNK         0.3000 
    206 H206       -4.9743  -27.7547  -48.9088 H         1 UNK         0.0600 
    207 H207       -3.4608  -27.9115  -50.8703 H         1 UNK         0.0600 
    208 H208       -4.6979  -26.7006  -51.1653 H         1 UNK         0.0600 
    209 H209       -3.0650  -26.1992  -50.7384 H         1 UNK         0.0600 
    210 H210       -3.2038  -24.9980  -47.7477 H         1 UNK         0.3000 
    211 H211       -3.6849  -23.0060  -47.0197 H         1 UNK         0.0600 
    212 H212       -6.6788  -23.6193  -47.2267 H         1 UNK         0.0600 
    213 H213       -5.9375  -22.3144  -46.3192 H         1 UNK         0.0600 
    214 H214       -5.6630  -23.9765  -45.8293 H         1 UNK         0.0600 
    215 H215       -3.4056  -23.7080  -49.8632 H         1 UNK         0.3000 
    216 H216       -5.1153  -22.2225  -51.5123 H         1 UNK         0.0600 
    217 H217       -3.7822  -24.1640  -52.2848 H         1 UNK         0.0600 
    218 H218       -2.2824  -23.2616  -52.0551 H         1 UNK         0.0600 
    219 H219       -3.4365  -22.7646  -53.2858 H         1 UNK         0.0600 
    220 H220       -2.3582  -21.0756  -49.7220 H         1 UNK         0.3000 
    221 H221       -1.6407  -18.8431  -51.3488 H         1 UNK         0.0600 
    222 H222       -1.2729  -19.3574  -48.3719 H         1 UNK         0.0600 
    223 H223       -0.1085  -19.6985  -49.6548 H         1 UNK         0.0600 
    224 H224       -0.5181  -18.0408  -49.2589 H         1 UNK         0.0600 
    225 H225       -4.4469  -19.3357  -49.4447 H         1 UNK         0.3000 
    226 H226       -5.1958  -16.5448  -49.0747 H         1 UNK         0.0600 
    227 H227       -6.0188  -18.3250  -47.5507 H         1 UNK         0.0600 
    228 H228       -7.3536  -17.5350  -48.3745 H         1 UNK         0.0600 
    229 H229       -6.8226  -19.1296  -48.8976 H         1 UNK         0.0600 
    230 H230       -4.3226  -16.5377  -51.4950 H         1 UNK         0.3000 
    231 H231       -4.6428  -15.7959  -53.5270 H         1 UNK         0.0600 
    232 H232       -6.2184  -14.2361  -52.3675 H         1 UNK         0.0600 
    233 H233       -7.5635  -15.3064  -52.7604 H         1 UNK         0.0600 
    234 H234       -6.6675  -14.5030  -54.0414 H         1 UNK         0.0600 
    235 H235       -5.2558  -18.8010  -53.0785 H         1 UNK         0.3000 
    236 H236       -6.8847  -19.3315  -55.5063 H         1 UNK         0.0600 
    237 H237       -6.8887  -21.6204  -54.8422 H         1 UNK         0.0600 
    238 H238       -5.6332  -21.3918  -53.6467 H         1 UNK         0.0600 
    239 H239       -7.2321  -20.6942  -53.3888 H         1 UNK         0.0600 
    240 H240       -3.5712  -19.9700  -54.1882 H         1 UNK         0.3000 
    241 H241       -2.5930  -20.6040  -56.9023 H         1 UNK         0.0600 
    242 H242       -3.0419  -17.6484  -55.3447 H         1 UNK         0.3800 
    243 H243       -1.7686  -16.7817  -56.1667 H         1 UNK         0.3800 
    244 H244       -0.5034  -21.3027  -55.8886 H         1 UNK         0.0800 
    245 H245       -1.8562  -22.1131  -55.1714 H         1 UNK         0.0800 
    246 H246        0.9118  -19.3866  -54.6678 H         1 UNK         0.0800 
    247 H247        1.4633  -20.9881  -54.2314 H         1 UNK         0.0800 
@<TRIPOS>BOND
     1    1    2 1    
     2    1  127 1    
     3    1  128 1    
     4    1  129 1    
     5    2    3 2    
     6    2    4 am   BACKBONE|DICT|INTERRES
     7    4    5 1    
     8    4  130 1    
     9    5    6 1    
    10    5   65 1    
    11    5  131 1    
    12    6    7 1    
    13    6  132 1    
    14    6  133 1    
    15    7    8 1    
    16    8    9 1    
    17    8  134 1    
    18    8  135 1    
    19    9   10 ar   
    20    9   14 ar   
    21   10   11 ar   
    22   10  136 1    
    23   11   12 ar   
    24   11  126 1    
    25   12   13 ar   
    26   12  137 1    
    27   13   14 ar   
    28   13   15 1    
    29   14  138 1    
    30   15   16 1    
    31   15  139 1    
    32   15  140 1    
    33   16   17 1    
    34   17   18 1    
    35   17  141 1    
    36   17  142 1    
    37   18   19 1    
    38   18   67 1    
    39   18  143 1    
    40   19   20 am   BACKBONE|DICT|INTERRES
    41   19  144 1    
    42   20   21 2    
    43   20   22 1    
    44   22   23 1    
    45   22   24 1    
    46   22  145 1    
    47   23  146 1    
    48   23  147 1    
    49   23  148 1    
    50   24   25 am   BACKBONE|DICT|INTERRES
    51   24  149 1    
    52   25   26 2    
    53   25   27 1    
    54   27   28 1    
    55   27   29 1    
    56   27  150 1    
    57   28  151 1    
    58   28  152 1    
    59   28  153 1    
    60   29   30 am   BACKBONE|DICT|INTERRES
    61   29  154 1    
    62   30   31 2    
    63   30   32 1    
    64   32   33 1    
    65   32   34 1    
    66   32  155 1    
    67   33  156 1    
    68   33  157 1    
    69   33  158 1    
    70   34   35 am   BACKBONE|DICT|INTERRES
    71   34  159 1    
    72   35   36 2    
    73   35   37 1    
    74   37   38 1    
    75   37   39 1    
    76   37  160 1    
    77   38  161 1    
    78   38  162 1    
    79   38  163 1    
    80   39   40 am   BACKBONE|DICT|INTERRES
    81   39  164 1    
    82   40   41 2    
    83   40   42 1    
    84   42   43 1    
    85   42   44 1    
    86   42  165 1    
    87   43  166 1    
    88   43  167 1    
    89   43  168 1    
    90   44   45 am   BACKBONE|DICT|INTERRES
    91   44  169 1    
    92   45   46 2    
    93   45   47 1    
    94   47   48 1    
    95   47   49 1    
    96   47  170 1    
    97   48  171 1    
    98   48  172 1    
    99   48  173 1    
   100   49   50 am   BACKBONE|DICT|INTERRES
   101   49  174 1    
   102   50   51 2    
   103   50   52 1    
   104   52   53 1    
   105   52   54 1    
   106   52  175 1    
   107   53  176 1    
   108   53  177 1    
   109   53  178 1    
   110   54   55 am   BACKBONE|DICT|INTERRES
   111   54  179 1    
   112   55   56 2    
   113   55   57 1    
   114   57   58 1    
   115   57   59 1    
   116   57  180 1    
   117   58  181 1    
   118   58  182 1    
   119   58  183 1    
   120   59   60 am   BACKBONE|DICT|INTERRES
   121   59  184 1    
   122   60   61 2    
   123   60   62 1    
   124   62   63 1    
   125   62   64 1    
   126   62  185 1    
   127   63  186 1    
   128   63  187 1    
   129   63  188 1    
   130   64   65 am   BACKBONE|DICT|INTERRES
   131   64  189 1    
   132   65   66 2    
   133   67   68 2    
   134   67   69 am   BACKBONE|DICT|INTERRES
   135   69   70 1    
   136   69  190 1    
   137   70   71 1    
   138   70   72 1    
   139   70  191 1    
   140   71  192 1    
   141   71  193 1    
   142   71  194 1    
   143   72   73 2    
   144   72   74 am   BACKBONE|DICT|INTERRES
   145   74   75 1    
   146   74  195 1    
   147   75   76 1    
   148   75   77 1    
   149   75  196 1    
   150   76  197 1    
   151   76  198 1    
   152   76  199 1    
   153   77   78 2    
   154   77   79 am   BACKBONE|DICT|INTERRES
   155   79   80 1    
   156   79  200 1    
   157   80   81 1    
   158   80   82 1    
   159   80  201 1    
   160   81  202 1    
   161   81  203 1    
   162   81  204 1    
   163   82   83 2    
   164   82   84 am   BACKBONE|DICT|INTERRES
   165   84   85 1    
   166   84  205 1    
   167   85   86 1    
   168   85   87 1    
   169   85  206 1    
   170   86  207 1    
   171   86  208 1    
   172   86  209 1    
   173   87   88 2    
   174   87   89 am   BACKBONE|DICT|INTERRES
   175   89   90 1    
   176   89  210 1    
   177   90   91 1    
   178   90   92 1    
   179   90  211 1    
   180   91  212 1    
   181   91  213 1    
   182   91  214 1    
   183   92   93 2    
   184   92   94 am   BACKBONE|DICT|INTERRES
   185   94   95 1    
   186   94  215 1    
   187   95   96 1    
   188   95   97 1    
   189   95  216 1    
   190   96  217 1    
   191   96  218 1    
   192   96  219 1    
   193   97   98 2    
   194   97   99 am   BACKBONE|DICT|INTERRES
   195   99  100 1    
   196   99  220 1    
   197  100  101 1    
   198  100  102 1    
   199  100  221 1    
   200  101  222 1    
   201  101  223 1    
   202  101  224 1    
   203  102  103 2    
   204  102  104 am   BACKBONE|DICT|INTERRES
   205  104  105 1    
   206  104  225 1    
   207  105  106 1    
   208  105  107 1    
   209  105  226 1    
   210  106  227 1    
   211  106  228 1    
   212  106  229 1    
   213  107  108 2    
   214  107  109 am   BACKBONE|DICT|INTERRES
   215  109  110 1    
   216  109  230 1    
   217  110  111 1    
   218  110  112 1    
   219  110  231 1    
   220  111  232 1    
   221  111  233 1    
   222  111  234 1    
   223  112  113 2    
   224  112  114 am   BACKBONE|DICT|INTERRES
   225  114  115 1    
   226  114  235 1    
   227  115  116 1    
   228  115  117 1    
   229  115  236 1    
   230  116  237 1    
   231  116  238 1    
   232  116  239 1    
   233  117  118 2    
   234  117  119 am   BACKBONE|DICT|INTERRES
   235  119  120 1    
   236  119  240 1    
   237  120  121 1    
   238  120  124 1    
   239  120  241 1    
   240  121  122 am   BACKBONE|DICT|INTERRES
   241  121  123 2    
   242  122  242 1    
   243  122  243 1    
   244  124  125 1    
   245  124  244 1    
   246  124  245 1    
   247  125  126 1    
   248  126  246 1    
   249  126  247 1    
@<TRIPOS>SUBSTRUCTURE
     1 UNK         1 GROUP             0       ****    0 ROOT    
