@<TRIPOS>MOLECULE
3R540
247   249    1
SMALL
USER_CHARGES


@<TRIPOS>ATOM
      1 CA         -0.5705  -11.2145  -45.6885 C.3       0 UNK        -0.1800 
      2 C           0.2360  -11.6091  -46.9183 C.2       0 UNK         0.5000 
      3 O           0.2862  -10.8515  -47.8872 O.2       0 UNK        -0.5000 
      4 N           0.8692  -12.7850  -46.8703 N.am      1 UNK        -0.5000 
      5 CA          1.7256  -13.3443  -47.9244 C.3       1 UNK         0.1400 
      6 C6          1.2257  -14.7362  -48.3880 C.3       23 UNK        -0.0398 
      7 S7         -0.4506  -14.7047  -49.1131 S.3       23 UNK        -0.2404 
      8 C8         -1.0028  -16.4236  -48.8592 C.3       23 UNK        -0.0205 
      9 C9         -0.2200  -17.4139  -49.7067 C.ar      23 UNK        -0.0193 
     10 C10        -0.6818  -17.7956  -50.9698 C.ar      23 UNK        -0.1150 
     11 C11         0.0431  -18.7078  -51.7452 C.ar      23 UNK        -0.0193 
     12 C12         1.2379  -19.2365  -51.2429 C.ar      23 UNK        -0.1150 
     13 C13         1.7171  -18.8488  -49.9882 C.ar      23 UNK        -0.0193 
     14 C14         0.9766  -17.9461  -49.2236 C.ar      23 UNK        -0.1150 
     15 C15         3.0635  -19.3516  -49.4856 C.3       23 UNK        -0.0205 
     16 S16         2.9459  -20.9471  -48.6201 S.3       23 UNK        -0.2404 
     17 C17         2.1734  -20.4682  -47.0355 C.3       23 UNK        -0.0398 
     18 CA          1.0833  -21.4571  -46.5717 C.3       11 UNK         0.1400 
     19 N           0.7073  -21.2349  -45.1760 N.am      11 UNK        -0.5000 
     20 C           0.1389  -22.1680  -44.4025 C.2       10 UNK         0.5000 
     21 O          -0.1282  -23.3080  -44.7849 O.2       10 UNK        -0.5000 
     22 CA         -0.2181  -21.7364  -42.9702 C.3       10 UNK         0.1400 
     23 CB          1.0390  -21.6737  -42.0894 C.3       10 UNK        -0.1800 
     24 N          -0.9200  -20.4514  -42.9212 N.am      10 UNK        -0.5000 
     25 C          -2.1396  -20.2485  -43.4366 C.2       9 UNK         0.5000 
     26 O          -2.7701  -21.1015  -44.0596 O.2       9 UNK        -0.5000 
     27 CA         -2.7645  -18.8581  -43.2340 C.3       9 UNK         0.1400 
     28 CB         -3.3379  -18.7309  -41.8142 C.3       9 UNK        -0.1800 
     29 N          -1.8919  -17.7114  -43.4999 N.am      9 UNK        -0.5000 
     30 C          -1.1539  -17.5066  -44.6017 C.2       8 UNK         0.5000 
     31 O          -0.8946  -18.3677  -45.4419 O.2       8 UNK        -0.5000 
     32 CA         -0.6201  -16.0845  -44.8024 C.3       8 UNK         0.1400 
     33 CB         -1.7198  -15.1597  -45.3540 C.3       8 UNK        -0.1800 
     34 N          -0.0935  -15.5435  -43.5554 N.am      8 UNK        -0.5000 
     35 C           0.8659  -14.6250  -43.4523 C.2       7 UNK         0.5000 
     36 O           1.4218  -14.1198  -44.4276 O.2       7 UNK        -0.5000 
     37 CA          1.3039  -14.2130  -42.0356 C.3       7 UNK         0.1400 
     38 CB          0.3733  -13.1252  -41.4708 C.3       7 UNK        -0.1800 
     39 N           1.4650  -15.3242  -41.0883 N.am      7 UNK        -0.5000 
     40 C           0.5477  -16.1687  -40.5884 C.2       6 UNK         0.5000 
     41 O          -0.6415  -16.1580  -40.9118 O.2       6 UNK        -0.5000 
     42 CA          1.0346  -17.2312  -39.5828 C.3       6 UNK         0.1400 
     43 CB          0.9662  -18.6323  -40.2079 C.3       6 UNK        -0.1800 
     44 N           2.3980  -16.9890  -39.1082 N.am      6 UNK        -0.5000 
     45 C           2.7283  -16.0921  -38.1680 C.2       5 UNK         0.5000 
     46 O           1.9024  -15.4227  -37.5465 O.2       5 UNK        -0.5000 
     47 CA          4.2308  -15.8913  -37.8815 C.3       5 UNK         0.1400 
     48 CB          4.6369  -16.6358  -36.6003 C.3       5 UNK        -0.1800 
     49 N           5.1111  -16.3160  -38.9745 N.am      5 UNK        -0.5000 
     50 C           5.1689  -15.7522  -40.1888 C.2       4 UNK         0.5000 
     51 O           4.4673  -14.7943  -40.5228 O.2       4 UNK        -0.5000 
     52 CA          6.1638  -16.3605  -41.2038 C.3       4 UNK         0.1400 
     53 CB          6.6610  -17.7740  -40.8243 C.3       4 UNK        -0.1800 
     54 N           5.6346  -16.3656  -42.5708 N.am      4 UNK        -0.5000 
     55 C           4.5001  -16.9331  -43.0021 C.2       3 UNK         0.5000 
     56 O           3.7180  -17.5448  -42.2713 O.2       3 UNK        -0.5000 
     57 CA          4.1909  -16.7614  -44.5041 C.3       3 UNK         0.1400 
     58 CB          2.9153  -17.5078  -44.9331 C.3       3 UNK        -0.1800 
     59 N           4.0685  -15.3488  -44.8728 N.am      3 UNK        -0.5000 
     60 C           5.0904  -14.5130  -45.1079 C.2       2 UNK         0.5000 
     61 O           6.2719  -14.8543  -45.0218 O.2       2 UNK        -0.5000 
     62 CA          4.7268  -13.0563  -45.4707 C.3       2 UNK         0.1400 
     63 CB          5.8695  -12.3030  -46.1834 C.3       2 UNK        -0.1800 
     64 N           3.4690  -12.9536  -46.2191 N.am      2 UNK        -0.5000 
     65 C           3.1937  -13.4326  -47.4438 C.2       1 UNK         0.5000 
     66 O           4.0362  -13.9510  -48.1773 O.2       1 UNK        -0.5000 
     67 C          -0.1581  -21.4667  -47.4853 C.2       11 UNK         0.5000 
     68 O          -0.2270  -22.3008  -48.3854 O.2       11 UNK        -0.5000 
     69 N          -1.1453  -20.6032  -47.2026 N.am      12 UNK        -0.5000 
     70 CA         -2.4285  -20.5612  -47.9052 C.3       12 UNK         0.1400 
     71 CB         -3.2635  -19.3819  -47.3854 C.3       12 UNK        -0.1800 
     72 C          -3.2147  -21.8807  -47.7899 C.2       12 UNK         0.5000 
     73 O          -3.7605  -22.3481  -48.7890 O.2       12 UNK        -0.5000 
     74 N          -3.2223  -22.4819  -46.5915 N.am      13 UNK        -0.5000 
     75 CA         -3.8099  -23.7962  -46.3343 C.3       13 UNK         0.1400 
     76 CB         -3.8606  -24.0563  -44.8214 C.3       13 UNK        -0.1800 
     77 C          -3.0607  -24.9302  -47.0565 C.2       13 UNK         0.5000 
     78 O          -3.7061  -25.8007  -47.6406 O.2       13 UNK        -0.5000 
     79 N          -1.7204  -24.8884  -47.0270 N.am      14 UNK        -0.5000 
     80 CA         -0.8459  -25.8628  -47.6849 C.3       14 UNK         0.1400 
     81 CB          0.6036  -25.6453  -47.2252 C.3       14 UNK        -0.1800 
     82 C          -0.9438  -25.8206  -49.2220 C.2       14 UNK         0.5000 
     83 O          -0.9805  -26.8739  -49.8589 O.2       14 UNK        -0.5000 
     84 N          -1.0054  -24.6074  -49.7855 N.am      15 UNK        -0.5000 
     85 CA         -1.1616  -24.3520  -51.2181 C.3       15 UNK         0.1400 
     86 CB         -0.7226  -22.9090  -51.5131 C.3       15 UNK        -0.1800 
     87 C          -2.5959  -24.5880  -51.7316 C.2       15 UNK         0.5000 
     88 O          -2.7812  -24.6929  -52.9439 O.2       15 UNK        -0.5000 
     89 N          -3.5706  -24.6561  -50.8115 N.am      16 UNK        -0.5000 
     90 CA         -5.0159  -24.7405  -51.0414 C.3       16 UNK         0.1400 
     91 CB         -5.3988  -26.0640  -51.7364 C.3       16 UNK        -0.1800 
     92 C          -5.5428  -23.4889  -51.7707 C.2       16 UNK         0.5000 
     93 O          -6.2087  -23.5948  -52.8017 O.2       16 UNK        -0.5000 
     94 N          -5.2016  -22.3163  -51.2215 N.am      17 UNK        -0.5000 
     95 CA         -5.5395  -20.9964  -51.7481 C.3       17 UNK         0.1400 
     96 CB         -4.9812  -19.9228  -50.8026 C.3       17 UNK        -0.1800 
     97 C          -7.0526  -20.7919  -51.9490 C.2       17 UNK         0.5000 
     98 O          -7.8458  -21.1938  -51.0952 O.2       17 UNK        -0.5000 
     99 N          -7.4020  -20.1661  -53.0784 N.am      18 UNK        -0.5000 
    100 CA        -8.7413  -19.8482  -53.5848 C.3       18 UNK         0.1400 
    101 CB        -9.6245  -19.1439  -52.5352 C.3       18 UNK        -0.1800 
    102 C         -9.4632  -21.0361  -54.2491 C.2       18 UNK         0.5000 
    103 O        -10.4144  -20.8035  -54.9969 O.2       18 UNK        -0.5000 
    104 N         -8.9828  -22.2724  -54.0527 N.am      19 UNK        -0.5000 
    105 CA        -9.4095  -23.4552  -54.8021 C.3       19 UNK         0.1400 
    106 CB        -9.2947  -24.7028  -53.9082 C.3       19 UNK        -0.1800 
    107 C         -8.5661  -23.5494  -56.0872 C.2       19 UNK         0.5000 
    108 O         -7.7142  -24.4300  -56.2146 O.2       19 UNK        -0.5000 
    109 N         -8.7672  -22.5683  -56.9786 N.am      20 UNK        -0.5000 
    110 CA        -8.0319  -22.2611  -58.2139 C.3       20 UNK         0.1400 
    111 CB        -8.0467  -23.4437  -59.2014 C.3       20 UNK        -0.1800 
    112 C         -6.5986  -21.7368  -57.9835 C.2       20 UNK         0.5000 
    113 O         -6.1819  -20.8043  -58.6728 O.2       20 UNK        -0.5000 
    114 N         -5.8742  -22.3201  -57.0217 N.am      21 UNK        -0.5000 
    115 CA        -4.5396  -21.9027  -56.5987 C.3       21 UNK         0.1400 
    116 CB        -3.9460  -22.9845  -55.6856 C.3       21 UNK        -0.1800 
    117 C         -4.5551  -20.5435  -55.8755 C.2       21 UNK         0.5000 
    118 O         -5.5361  -20.2048  -55.2080 O.2       21 UNK        -0.5000 
    119 N         -3.4450  -19.8087  -56.0032 N.am      22 UNK        -0.5000 
    120 CA        -3.1749  -18.5087  -55.3588 C.3       22 UNK         0.1400 
    121 C         -4.0537  -17.3219  -55.8637 C.2       22 UNK         0.5000 
    122 N         -4.8064  -17.4634  -56.9480 N.am      22 UNK        -0.7600 
    123 O         -4.0290  -16.2395  -55.2842 O.2       22 UNK        -0.5000 
    124 C124       -3.1269  -18.5828  -53.8038 C.3       23 UNK        -0.0398 
    125 S125       -2.0401  -19.9106  -53.1717 S.3       23 UNK        -0.2404 
    126 C126       -0.4198  -19.0788  -53.1490 C.3       23 UNK        -0.0205 
    127 H127       -0.2524  -10.2363  -45.3281 H         1 UNK         0.0600 
    128 H128       -0.4484  -11.9302  -44.8750 H         1 UNK         0.0600 
    129 H129       -1.6302  -11.1601  -45.9375 H         1 UNK         0.0600 
    130 H130        0.8237  -13.3390  -46.0186 H         1 UNK         0.3000 
    131 H131        1.7334  -12.6852  -48.7946 H         1 UNK         0.0600 
    132 H132        1.8939  -15.1533  -49.1438 H         1 UNK         0.0800 
    133 H133        1.2378  -15.4291  -47.5466 H         1 UNK         0.0800 
    134 H134       -0.9101  -16.6912  -47.8071 H         1 UNK         0.0800 
    135 H135       -2.0652  -16.4901  -49.0977 H         1 UNK         0.0800 
    136 H136       -1.6000  -17.3744  -51.3524 H         1 UNK         0.1150 
    137 H137        1.8141  -19.9293  -51.8399 H         1 UNK         0.1150 
    138 H138        1.3436  -17.6348  -48.2578 H         1 UNK         0.1150 
    139 H139        3.7440  -19.4657  -50.3306 H         1 UNK         0.0800 
    140 H140        3.5258  -18.6138  -48.8277 H         1 UNK         0.0800 
    141 H141        1.7727  -19.4581  -47.0793 H         1 UNK         0.0800 
    142 H142        2.9751  -20.4397  -46.2969 H         1 UNK         0.0800 
    143 H143        1.5225  -22.4556  -46.6280 H         1 UNK         0.0600 
    144 H144        0.8229  -20.3018  -44.8085 H         1 UNK         0.3000 
    145 H145       -0.8827  -22.4972  -42.5550 H         1 UNK         0.0600 
    146 H146        0.7796  -21.4864  -41.0475 H         1 UNK         0.0600 
    147 H147        1.5843  -22.6180  -42.1200 H         1 UNK         0.0600 
    148 H148        1.7240  -20.8892  -42.4135 H         1 UNK         0.0600 
    149 H149       -0.4617  -19.6887  -42.4474 H         1 UNK         0.3000 
    150 H150       -3.5982  -18.7824  -43.9345 H         1 UNK         0.0600 
    151 H151       -3.9995  -19.5664  -41.5807 H         1 UNK         0.0600 
    152 H152       -3.9219  -17.8170  -41.7050 H         1 UNK         0.0600 
    153 H153       -2.5493  -18.7146  -41.0610 H         1 UNK         0.0600 
    154 H154       -2.0098  -16.9376  -42.8621 H         1 UNK         0.3000 
    155 H155        0.1837  -16.1483  -45.5374 H         1 UNK         0.0600 
    156 H156       -2.2216  -15.6017  -46.2148 H         1 UNK         0.0600 
    157 H157       -1.3089  -14.2047  -45.6768 H         1 UNK         0.0600 
    158 H158       -2.4846  -14.9553  -44.6041 H         1 UNK         0.0600 
    159 H159       -0.4593  -15.9201  -42.6837 H         1 UNK         0.3000 
    160 H160        2.2971  -13.7729  -42.1376 H         1 UNK         0.0600 
    161 H161       -0.6486  -13.4848  -41.3469 H         1 UNK         0.0600 
    162 H162        0.3356  -12.2617  -42.1362 H         1 UNK         0.0600 
    163 H163        0.7247  -12.7730  -40.5009 H         1 UNK         0.0600 
    164 H164        2.4208  -15.4578  -40.7784 H         1 UNK         0.3000 
    165 H165        0.3544  -17.2085  -38.7288 H         1 UNK         0.0600 
    166 H166        1.2966  -19.3955  -39.5033 H         1 UNK         0.0600 
    167 H167       -0.0558  -18.8800  -40.4952 H         1 UNK         0.0600 
    168 H168        1.5888  -18.7061  -41.0999 H         1 UNK         0.0600 
    169 H169        3.1373  -17.4817  -39.5899 H         1 UNK         0.3000 
    170 H170        4.3895  -14.8229  -37.7209 H         1 UNK         0.0600 
    171 H171        4.5203  -17.7149  -36.7082 H         1 UNK         0.0600 
    172 H172        5.6756  -16.4336  -36.3380 H         1 UNK         0.0600 
    173 H173        4.0235  -16.3225  -35.7543 H         1 UNK         0.0600 
    174 H174        5.7134  -17.1036  -38.7829 H         1 UNK         0.3000 
    175 H175        7.0282  -15.6954  -41.2146 H         1 UNK         0.0600 
    176 H176        7.3352  -18.1664  -41.5858 H         1 UNK         0.0600 
    177 H177        5.8376  -18.4816  -40.7186 H         1 UNK         0.0600 
    178 H178        7.2184  -17.7641  -39.8870 H         1 UNK         0.0600 
    179 H179        6.1691  -15.8394  -43.2545 H         1 UNK         0.3000 
    180 H180        5.0247  -17.1973  -45.0584 H         1 UNK         0.0600 
    181 H181        2.7042  -17.3604  -45.9921 H         1 UNK         0.0600 
    182 H182        2.0475  -17.1807  -44.3642 H         1 UNK         0.0600 
    183 H183        3.0226  -18.5789  -44.7632 H         1 UNK         0.0600 
    184 H184        3.1292  -14.9666  -44.8995 H         1 UNK         0.3000 
    185 H185        4.5496  -12.5516  -44.5200 H         1 UNK         0.0600 
    186 H186        6.7522  -12.2409  -45.5461 H         1 UNK         0.0600 
    187 H187        6.1708  -12.7980  -47.1068 H         1 UNK         0.0600 
    188 H188        5.5761  -11.2825  -46.4292 H         1 UNK         0.0600 
    189 H189        2.6903  -12.5772  -45.6956 H         1 UNK         0.3000 
    190 H190       -1.0175  -19.9237  -46.4567 H         1 UNK         0.3000 
    191 H191       -2.2163  -20.3912  -48.9628 H         1 UNK         0.0600 
    192 H192       -2.7510  -18.4348  -47.5478 H         1 UNK         0.0600 
    193 H193       -4.2244  -19.3219  -47.8953 H         1 UNK         0.0600 
    194 H194       -3.4657  -19.4738  -46.3185 H         1 UNK         0.0600 
    195 H195       -2.8021  -22.0093  -45.7965 H         1 UNK         0.3000 
    196 H196       -4.8355  -23.7844  -46.7093 H         1 UNK         0.0600 
    197 H197       -4.2904  -25.0353  -44.6060 H         1 UNK         0.0600 
    198 H198       -4.4767  -23.3129  -44.3156 H         1 UNK         0.0600 
    199 H199       -2.8664  -24.0264  -44.3737 H         1 UNK         0.0600 
    200 H200       -1.2657  -24.1488  -46.5051 H         1 UNK         0.3000 
    201 H201       -1.1558  -26.8585  -47.3609 H         1 UNK         0.0600 
    202 H202        0.6913  -25.7287  -46.1417 H         1 UNK         0.0600 
    203 H203        0.9757  -24.6632  -47.5168 H         1 UNK         0.0600 
    204 H204        1.2678  -26.3907  -47.6642 H         1 UNK         0.0600 
    205 H205       -0.8955  -23.7851  -49.1937 H         1 UNK         0.3000 
    206 H206       -0.5004  -25.0276  -51.7643 H         1 UNK         0.0600 
    207 H207        0.3049  -22.7321  -51.1944 H         1 UNK         0.0600 
    208 H208       -0.7728  -22.6947  -52.5812 H         1 UNK         0.0600 
    209 H209       -1.3589  -22.1843  -51.0025 H         1 UNK         0.0600 
    210 H210       -3.2974  -24.5260  -49.8466 H         1 UNK         0.3000 
    211 H211       -5.4813  -24.7417  -50.0546 H         1 UNK         0.0600 
    212 H212       -5.0136  -26.1179  -52.7549 H         1 UNK         0.0600 
    213 H213       -6.4825  -26.1707  -51.7944 H         1 UNK         0.0600 
    214 H214       -5.0155  -26.9228  -51.1856 H         1 UNK         0.0600 
    215 H215       -4.6614  -22.3305  -50.3584 H         1 UNK         0.3000 
    216 H216       -5.0366  -20.9074  -52.7115 H         1 UNK         0.0600 
    217 H217       -5.1960  -18.9200  -51.1732 H         1 UNK         0.0600 
    218 H218       -3.8995  -20.0078  -50.7021 H         1 UNK         0.0600 
    219 H219       -5.4216  -20.0065  -49.8089 H         1 UNK         0.0600 
    220 H220       -6.6608  -19.9823  -53.7538 H         1 UNK         0.3000 
    221 H221       -8.5673  -19.1283  -54.3860 H         1 UNK         0.0600 
    222 H222       -9.9425  -19.8229  -51.7441 H         1 UNK         0.0600 
    223 H223       -9.1011  -18.3065  -52.0738 H         1 UNK         0.0600 
    224 H224      -10.5289  -18.7465  -52.9974 H         1 UNK         0.0600 
    225 H225       -8.1681  -22.3911  -53.4634 H         1 UNK         0.3000 
    226 H226      -10.4575  -23.3581  -55.0934 H         1 UNK         0.0600 
    227 H227       -9.8864  -24.5920  -52.9995 H         1 UNK         0.0600 
    228 H228       -9.6619  -25.5869  -54.4305 H         1 UNK         0.0600 
    229 H229       -8.2656  -24.9050  -53.6137 H         1 UNK         0.0600 
    230 H230       -9.4630  -21.8768  -56.7248 H         1 UNK         0.3000 
    231 H231       -8.5852  -21.4451  -58.6812 H         1 UNK         0.0600 
    232 H232       -7.4716  -24.2935  -58.8333 H         1 UNK         0.0600 
    233 H233       -7.6137  -23.1522  -60.1590 H         1 UNK         0.0600 
    234 H234       -9.0639  -23.7839  -59.3947 H         1 UNK         0.0600 
    235 H235       -6.3016  -23.0847  -56.5099 H         1 UNK         0.3000 
    236 H236       -3.9141  -21.8190  -57.4898 H         1 UNK         0.0600 
    237 H237       -3.8862  -23.9463  -56.1950 H         1 UNK         0.0600 
    238 H238       -2.9366  -22.7220  -55.3658 H         1 UNK         0.0600 
    239 H239       -4.5448  -23.1205  -54.7855 H         1 UNK         0.0600 
    240 H240       -2.6921  -20.1671  -56.5727 H         1 UNK         0.3000 
    241 H241       -2.1692  -18.2453  -55.6875 H         1 UNK         0.0600 
    242 H242       -4.8474  -18.3458  -57.4338 H         1 UNK         0.3800 
    243 H243       -5.3602  -16.6863  -57.2722 H         1 UNK         0.3800 
    244 H244       -4.1289  -18.7451  -53.4082 H         1 UNK         0.0800 
    245 H245       -2.7955  -17.6322  -53.3842 H         1 UNK         0.0800 
    246 H246       -0.4416  -18.1810  -53.7676 H         1 UNK         0.0800 
    247 H247        0.3023  -19.7472  -53.6202 H         1 UNK         0.0800 
@<TRIPOS>BOND
     1    1    2 1    
     2    1  127 1    
     3    1  128 1    
     4    1  129 1    
     5    2    3 2    
     6    2    4 am   BACKBONE|DICT|INTERRES
     7    4    5 1    
     8    4  130 1    
     9    5    6 1    
    10    5   65 1    
    11    5  131 1    
    12    6    7 1    
    13    6  132 1    
    14    6  133 1    
    15    7    8 1    
    16    8    9 1    
    17    8  134 1    
    18    8  135 1    
    19    9   10 ar   
    20    9   14 ar   
    21   10   11 ar   
    22   10  136 1    
    23   11   12 ar   
    24   11  126 1    
    25   12   13 ar   
    26   12  137 1    
    27   13   14 ar   
    28   13   15 1    
    29   14  138 1    
    30   15   16 1    
    31   15  139 1    
    32   15  140 1    
    33   16   17 1    
    34   17   18 1    
    35   17  141 1    
    36   17  142 1    
    37   18   19 1    
    38   18   67 1    
    39   18  143 1    
    40   19   20 am   BACKBONE|DICT|INTERRES
    41   19  144 1    
    42   20   21 2    
    43   20   22 1    
    44   22   23 1    
    45   22   24 1    
    46   22  145 1    
    47   23  146 1    
    48   23  147 1    
    49   23  148 1    
    50   24   25 am   BACKBONE|DICT|INTERRES
    51   24  149 1    
    52   25   26 2    
    53   25   27 1    
    54   27   28 1    
    55   27   29 1    
    56   27  150 1    
    57   28  151 1    
    58   28  152 1    
    59   28  153 1    
    60   29   30 am   BACKBONE|DICT|INTERRES
    61   29  154 1    
    62   30   31 2    
    63   30   32 1    
    64   32   33 1    
    65   32   34 1    
    66   32  155 1    
    67   33  156 1    
    68   33  157 1    
    69   33  158 1    
    70   34   35 am   BACKBONE|DICT|INTERRES
    71   34  159 1    
    72   35   36 2    
    73   35   37 1    
    74   37   38 1    
    75   37   39 1    
    76   37  160 1    
    77   38  161 1    
    78   38  162 1    
    79   38  163 1    
    80   39   40 am   BACKBONE|DICT|INTERRES
    81   39  164 1    
    82   40   41 2    
    83   40   42 1    
    84   42   43 1    
    85   42   44 1    
    86   42  165 1    
    87   43  166 1    
    88   43  167 1    
    89   43  168 1    
    90   44   45 am   BACKBONE|DICT|INTERRES
    91   44  169 1    
    92   45   46 2    
    93   45   47 1    
    94   47   48 1    
    95   47   49 1    
    96   47  170 1    
    97   48  171 1    
    98   48  172 1    
    99   48  173 1    
   100   49   50 am   BACKBONE|DICT|INTERRES
   101   49  174 1    
   102   50   51 2    
   103   50   52 1    
   104   52   53 1    
   105   52   54 1    
   106   52  175 1    
   107   53  176 1    
   108   53  177 1    
   109   53  178 1    
   110   54   55 am   BACKBONE|DICT|INTERRES
   111   54  179 1    
   112   55   56 2    
   113   55   57 1    
   114   57   58 1    
   115   57   59 1    
   116   57  180 1    
   117   58  181 1    
   118   58  182 1    
   119   58  183 1    
   120   59   60 am   BACKBONE|DICT|INTERRES
   121   59  184 1    
   122   60   61 2    
   123   60   62 1    
   124   62   63 1    
   125   62   64 1    
   126   62  185 1    
   127   63  186 1    
   128   63  187 1    
   129   63  188 1    
   130   64   65 am   BACKBONE|DICT|INTERRES
   131   64  189 1    
   132   65   66 2    
   133   67   68 2    
   134   67   69 am   BACKBONE|DICT|INTERRES
   135   69   70 1    
   136   69  190 1    
   137   70   71 1    
   138   70   72 1    
   139   70  191 1    
   140   71  192 1    
   141   71  193 1    
   142   71  194 1    
   143   72   73 2    
   144   72   74 am   BACKBONE|DICT|INTERRES
   145   74   75 1    
   146   74  195 1    
   147   75   76 1    
   148   75   77 1    
   149   75  196 1    
   150   76  197 1    
   151   76  198 1    
   152   76  199 1    
   153   77   78 2    
   154   77   79 am   BACKBONE|DICT|INTERRES
   155   79   80 1    
   156   79  200 1    
   157   80   81 1    
   158   80   82 1    
   159   80  201 1    
   160   81  202 1    
   161   81  203 1    
   162   81  204 1    
   163   82   83 2    
   164   82   84 am   BACKBONE|DICT|INTERRES
   165   84   85 1    
   166   84  205 1    
   167   85   86 1    
   168   85   87 1    
   169   85  206 1    
   170   86  207 1    
   171   86  208 1    
   172   86  209 1    
   173   87   88 2    
   174   87   89 am   BACKBONE|DICT|INTERRES
   175   89   90 1    
   176   89  210 1    
   177   90   91 1    
   178   90   92 1    
   179   90  211 1    
   180   91  212 1    
   181   91  213 1    
   182   91  214 1    
   183   92   93 2    
   184   92   94 am   BACKBONE|DICT|INTERRES
   185   94   95 1    
   186   94  215 1    
   187   95   96 1    
   188   95   97 1    
   189   95  216 1    
   190   96  217 1    
   191   96  218 1    
   192   96  219 1    
   193   97   98 2    
   194   97   99 am   BACKBONE|DICT|INTERRES
   195   99  100 1    
   196   99  220 1    
   197  100  101 1    
   198  100  102 1    
   199  100  221 1    
   200  101  222 1    
   201  101  223 1    
   202  101  224 1    
   203  102  103 2    
   204  102  104 am   BACKBONE|DICT|INTERRES
   205  104  105 1    
   206  104  225 1    
   207  105  106 1    
   208  105  107 1    
   209  105  226 1    
   210  106  227 1    
   211  106  228 1    
   212  106  229 1    
   213  107  108 2    
   214  107  109 am   BACKBONE|DICT|INTERRES
   215  109  110 1    
   216  109  230 1    
   217  110  111 1    
   218  110  112 1    
   219  110  231 1    
   220  111  232 1    
   221  111  233 1    
   222  111  234 1    
   223  112  113 2    
   224  112  114 am   BACKBONE|DICT|INTERRES
   225  114  115 1    
   226  114  235 1    
   227  115  116 1    
   228  115  117 1    
   229  115  236 1    
   230  116  237 1    
   231  116  238 1    
   232  116  239 1    
   233  117  118 2    
   234  117  119 am   BACKBONE|DICT|INTERRES
   235  119  120 1    
   236  119  240 1    
   237  120  121 1    
   238  120  124 1    
   239  120  241 1    
   240  121  122 am   BACKBONE|DICT|INTERRES
   241  121  123 2    
   242  122  242 1    
   243  122  243 1    
   244  124  125 1    
   245  124  244 1    
   246  124  245 1    
   247  125  126 1    
   248  126  246 1    
   249  126  247 1    
@<TRIPOS>SUBSTRUCTURE
     1 UNK         1 GROUP             0       ****    0 ROOT    
