@<TRIPOS>MOLECULE
3R540
247   249    1
SMALL
USER_CHARGES


@<TRIPOS>ATOM
      1 CA          4.7332  -15.2180  -49.0607 C.3       0 UNK        -0.1800 
      2 C           4.0662  -15.2529  -47.6933 C.2       0 UNK         0.5000 
      3 O           4.6445  -15.7760  -46.7413 O.2       0 UNK        -0.5000 
      4 N           2.8519  -14.6978  -47.5945 N.am      1 UNK        -0.5000 
      5 CA          2.0460  -14.6493  -46.3686 C.3       1 UNK         0.1400 
      6 C6          0.5189  -14.5707  -46.6446 C.3       23 UNK        -0.0398 
      7 S7          0.0339  -13.4294  -47.9876 S.3       23 UNK        -0.2404 
      8 C8         -1.3854  -14.3222  -48.7260 C.3       23 UNK        -0.0205 
      9 C9         -1.0498  -15.4830  -49.6699 C.ar      23 UNK        -0.0193 
     10 C10        -2.0307  -15.9184  -50.5684 C.ar      23 UNK        -0.1150 
     11 C11        -1.7840  -16.9816  -51.4434 C.ar      23 UNK        -0.0193 
     12 C12        -0.5452  -17.6246  -51.4123 C.ar      23 UNK        -0.1150 
     13 C13         0.4432  -17.2098  -50.5199 C.ar      23 UNK        -0.0193 
     14 C14         0.1861  -16.1417  -49.6594 C.ar      23 UNK        -0.1150 
     15 C15         1.7978  -17.8971  -50.4833 C.3       23 UNK        -0.0205 
     16 S16         1.8723  -19.1591  -49.1757 S.3       23 UNK        -0.2404 
     17 C17         1.1569  -20.6156  -50.0204 C.3       23 UNK        -0.0398 
     18 CA          0.1218  -21.4070  -49.1824 C.3       11 UNK         0.1400 
     19 N           0.6129  -21.7525  -47.8441 N.am      11 UNK        -0.5000 
     20 C           1.2597  -22.8886  -47.5511 C.2       10 UNK         0.5000 
     21 O           1.4881  -23.7710  -48.3792 O.2       10 UNK        -0.5000 
     22 CA          1.7386  -23.0972  -46.0977 C.3       10 UNK         0.1400 
     23 CB          3.2470  -22.8265  -45.9916 C.3       10 UNK        -0.1800 
     24 N           1.0481  -22.2791  -45.1003 N.am      10 UNK        -0.5000 
     25 C          -0.2612  -22.3307  -44.8197 C.2       9 UNK         0.5000 
     26 O          -1.0469  -23.1001  -45.3692 O.2       9 UNK        -0.5000 
     27 CA         -0.8059  -21.3088  -43.8036 C.3       9 UNK         0.1400 
     28 CB         -0.9127  -21.9433  -42.4100 C.3       9 UNK        -0.1800 
     29 N          -0.0331  -20.0674  -43.7078 N.am      9 UNK        -0.5000 
     30 C           0.2669  -19.2538  -44.7301 C.2       8 UNK         0.5000 
     31 O          -0.0107  -19.4969  -45.9042 O.2       8 UNK        -0.5000 
     32 CA          1.0223  -17.9620  -44.3918 C.3       8 UNK         0.1400 
     33 CB          0.0088  -16.8424  -44.1130 C.3       8 UNK        -0.1800 
     34 N           1.9496  -18.0775  -43.2617 N.am      8 UNK        -0.5000 
     35 C           2.9952  -18.9200  -43.2044 C.2       7 UNK         0.5000 
     36 O           3.2445  -19.7500  -44.0797 O.2       7 UNK        -0.5000 
     37 CA          3.9336  -18.8302  -41.9821 C.3       7 UNK         0.1400 
     38 CB          5.2618  -18.1683  -42.3819 C.3       7 UNK        -0.1800 
     39 N           3.3734  -18.0942  -40.8489 N.am      7 UNK        -0.5000 
     40 C           2.3850  -18.5246  -40.0535 C.2       6 UNK         0.5000 
     41 O           1.8552  -19.6310  -40.1615 O.2       6 UNK        -0.5000 
     42 CA          1.8828  -17.5368  -38.9769 C.3       6 UNK         0.1400 
     43 CB          2.5430  -17.8393  -37.6231 C.3       6 UNK        -0.1800 
     44 N           2.0928  -16.1187  -39.3055 N.am      6 UNK        -0.5000 
     45 C           1.5861  -15.5029  -40.3822 C.2       5 UNK         0.5000 
     46 O           0.9166  -16.0896  -41.2347 O.2       5 UNK        -0.5000 
     47 CA          1.9339  -14.0115  -40.5614 C.3       5 UNK         0.1400 
     48 CB          3.4041  -13.8519  -40.9805 C.3       5 UNK        -0.1800 
     49 N           1.0936  -13.3964  -41.5872 N.am      5 UNK        -0.5000 
     50 C          -0.2011  -13.0946  -41.4365 C.2       4 UNK         0.5000 
     51 O          -0.7893  -13.1296  -40.3531 O.2       4 UNK        -0.5000 
     52 CA         -0.9527  -12.7110  -42.7276 C.3       4 UNK         0.1400 
     53 CB         -2.4276  -12.3240  -42.4881 C.3       4 UNK        -0.1800 
     54 N          -0.2576  -11.6829  -43.5092 N.am      4 UNK        -0.5000 
     55 C          -0.0011  -10.4158  -43.1520 C.2       3 UNK         0.5000 
     56 O          -0.3284   -9.9195  -42.0724 O.2       3 UNK        -0.5000 
     57 CA          0.7396   -9.5685  -44.2099 C.3       3 UNK         0.1400 
     58 CB          1.1676   -8.1776  -43.6942 C.3       3 UNK        -0.1800 
     59 N           1.8710  -10.2857  -44.8119 N.am      3 UNK        -0.5000 
     60 C           2.9786  -10.7131  -44.1862 C.2       2 UNK         0.5000 
     61 O           3.2226  -10.5079  -42.9960 O.2       2 UNK        -0.5000 
     62 CA          3.9596  -11.5341  -45.0527 C.3       2 UNK         0.1400 
     63 CB          5.1206  -12.1387  -44.2363 C.3       2 UNK        -0.1800 
     64 N           3.3036  -12.5871  -45.8407 N.am      2 UNK        -0.5000 
     65 C           2.5077  -13.5642  -45.3764 C.2       1 UNK         0.5000 
     66 O           2.1320  -13.6447  -44.2075 O.2       1 UNK        -0.5000 
     67 C          -1.2714  -20.7502  -49.1537 C.2       11 UNK         0.5000 
     68 O          -2.0170  -20.8998  -50.1207 O.2       11 UNK        -0.5000 
     69 N          -1.6393  -20.0884  -48.0494 N.am      12 UNK        -0.5000 
     70 CA         -2.9557  -19.4781  -47.8637 C.3       12 UNK         0.1400 
     71 CB         -2.8266  -18.2985  -46.8862 C.3       12 UNK        -0.1800 
     72 C          -4.0263  -20.4766  -47.3740 C.2       12 UNK         0.5000 
     73 O          -5.2055  -20.1219  -47.3799 O.2       12 UNK        -0.5000 
     74 N          -3.6233  -21.6843  -46.9475 N.am      13 UNK        -0.5000 
     75 CA         -4.5289  -22.7119  -46.4289 C.3       13 UNK         0.1400 
     76 CB         -4.5330  -22.6898  -44.8909 C.3       13 UNK        -0.1800 
     77 C          -4.1878  -24.1063  -46.9726 C.2       13 UNK         0.5000 
     78 O          -5.0616  -24.7578  -47.5455 O.2       13 UNK        -0.5000 
     79 N          -2.9339  -24.5471  -46.7983 N.am      14 UNK        -0.5000 
     80 CA         -2.4757  -25.9008  -47.1330 C.3       14 UNK         0.1400 
     81 CB         -1.0514  -26.1047  -46.5971 C.3       14 UNK        -0.1800 
     82 C          -2.5366  -26.2387  -48.6338 C.2       14 UNK         0.5000 
     83 O          -2.7297  -27.4030  -48.9864 O.2       14 UNK        -0.5000 
     84 N          -2.4153  -25.2192  -49.4932 N.am      15 UNK        -0.5000 
     85 CA         -2.5128  -25.3218  -50.9495 C.3       15 UNK         0.1400 
     86 CB         -1.7262  -24.1606  -51.5763 C.3       15 UNK        -0.1800 
     87 C          -3.9813  -25.3672  -51.4225 C.2       15 UNK         0.5000 
     88 O          -4.3914  -24.5429  -52.2426 O.2       15 UNK        -0.5000 
     89 N          -4.7468  -26.3235  -50.8784 N.am      16 UNK        -0.5000 
     90 CA         -6.1555  -26.6146  -51.1646 C.3       16 UNK         0.1400 
     91 CB         -6.2989  -27.1797  -52.5943 C.3       16 UNK        -0.1800 
     92 C          -7.0809  -25.4081  -50.9043 C.2       16 UNK         0.5000 
     93 O          -7.8608  -25.0311  -51.7780 O.2       16 UNK        -0.5000 
     94 N          -6.9439  -24.7867  -49.7227 N.am      17 UNK        -0.5000 
     95 CA         -7.6271  -23.5526  -49.3071 C.3       17 UNK         0.1400 
     96 CB         -9.1471  -23.7765  -49.1608 C.3       17 UNK        -0.1800 
     97 C          -7.2685  -22.3576  -50.2169 C.2       17 UNK         0.5000 
     98 O          -8.1310  -21.5426  -50.5459 O.2       17 UNK        -0.5000 
     99 N          -5.9920  -22.3194  -50.6265 N.am      18 UNK        -0.5000 
    100 CA        -5.3495  -21.3862  -51.5567 C.3       18 UNK         0.1400 
    101 CB        -5.5414  -19.9203  -51.1220 C.3       18 UNK        -0.1800 
    102 C         -5.7276  -21.5882  -53.0375 C.2       18 UNK         0.5000 
    103 O         -5.2091  -20.8541  -53.8812 O.2       18 UNK        -0.5000 
    104 N         -6.5746  -22.5767  -53.3621 N.am      19 UNK        -0.5000 
    105 CA        -7.0248  -22.8590  -54.7278 C.3       19 UNK         0.1400 
    106 CB        -8.1889  -23.8592  -54.7004 C.3       19 UNK        -0.1800 
    107 C         -5.9069  -23.3676  -55.6568 C.2       19 UNK         0.5000 
    108 O         -5.9828  -23.1313  -56.8629 O.2       19 UNK        -0.5000 
    109 N         -4.8916  -24.0378  -55.0941 N.am      20 UNK        -0.5000 
    110 CA        -3.7279  -24.5138  -55.8429 C.3       20 UNK         0.1400 
    111 CB        -3.1968  -25.8018  -55.1948 C.3       20 UNK        -0.1800 
    112 C         -2.6170  -23.4505  -55.9408 C.2       20 UNK         0.5000 
    113 O         -1.8166  -23.5097  -56.8751 O.2       20 UNK        -0.5000 
    114 N         -2.5718  -22.5127  -54.9834 N.am      21 UNK        -0.5000 
    115 CA        -1.5607  -21.4570  -54.9154 C.3       21 UNK         0.1400 
    116 CB        -1.2719  -21.1029  -53.4489 C.3       21 UNK        -0.1800 
    117 C         -1.9733  -20.2086  -55.7110 C.2       21 UNK         0.5000 
    118 O         -1.2294  -19.7818  -56.5953 O.2       21 UNK        -0.5000 
    119 N         -3.1413  -19.6494  -55.3775 N.am      22 UNK        -0.5000 
    120 CA        -3.7147  -18.4474  -56.0044 C.3       22 UNK         0.1400 
    121 C         -4.9673  -18.7741  -56.8602 C.2       22 UNK         0.5000 
    122 N         -5.7509  -19.7868  -56.5139 N.am      22 UNK        -0.7600 
    123 O         -5.2270  -18.1044  -57.8561 O.2       22 UNK        -0.5000 
    124 C124       -4.0648  -17.3611  -54.9554 C.3       23 UNK        -0.0398 
    125 S125       -2.6029  -16.7204  -54.0687 S.3       23 UNK        -0.2404 
    126 C126       -2.8534  -17.4419  -52.4191 C.3       23 UNK        -0.0205 
    127 H127        4.0936  -14.7547  -49.8125 H         1 UNK         0.0600 
    128 H128        4.9643  -16.2311  -49.3902 H         1 UNK         0.0600 
    129 H129        5.6644  -14.6537  -49.0102 H         1 UNK         0.0600 
    130 H130        2.4298  -14.2632  -48.4037 H         1 UNK         0.3000 
    131 H131        2.2161  -15.5876  -45.8403 H         1 UNK         0.0600 
    132 H132        0.1619  -15.5698  -46.8939 H         1 UNK         0.0800 
    133 H133       -0.0380  -14.2957  -45.7474 H         1 UNK         0.0800 
    134 H134       -1.9756  -13.5870  -49.2752 H         1 UNK         0.0800 
    135 H135       -2.0300  -14.6926  -47.9276 H         1 UNK         0.0800 
    136 H136       -2.9921  -15.4244  -50.5901 H         1 UNK         0.1150 
    137 H137       -0.3502  -18.4424  -52.0880 H         1 UNK         0.1150 
    138 H138        0.9665  -15.8424  -48.9834 H         1 UNK         0.1150 
    139 H139        2.0367  -18.3404  -51.4511 H         1 UNK         0.0800 
    140 H140        2.5747  -17.1550  -50.2942 H         1 UNK         0.0800 
    141 H141        1.9870  -21.2776  -50.2702 H         1 UNK         0.0800 
    142 H142        0.7246  -20.3246  -50.9786 H         1 UNK         0.0800 
    143 H143       -0.0543  -22.3395  -49.7218 H         1 UNK         0.0600 
    144 H144        0.4990  -21.0522  -47.1199 H         1 UNK         0.3000 
    145 H145        1.5594  -24.1442  -45.8455 H         1 UNK         0.0600 
    146 H146        3.6198  -23.0502  -44.9919 H         1 UNK         0.0600 
    147 H147        3.8079  -23.4455  -46.6931 H         1 UNK         0.0600 
    148 H148        3.4822  -21.7840  -46.2114 H         1 UNK         0.0600 
    149 H149        1.6083  -21.5804  -44.6300 H         1 UNK         0.3000 
    150 H150       -1.8104  -21.0361  -44.1333 H         1 UNK         0.0600 
    151 H151       -1.5014  -22.8613  -42.4414 H         1 UNK         0.0600 
    152 H152       -1.4015  -21.2698  -41.7058 H         1 UNK         0.0600 
    153 H153        0.0694  -22.1949  -42.0075 H         1 UNK         0.0600 
    154 H154        0.2652  -19.7920  -42.7828 H         1 UNK         0.3000 
    155 H155        1.6087  -17.6984  -45.2730 H         1 UNK         0.0600 
    156 H156       -0.6749  -16.7104  -44.9520 H         1 UNK         0.0600 
    157 H157        0.5070  -15.8901  -43.9354 H         1 UNK         0.0600 
    158 H158       -0.6003  -17.0649  -43.2361 H         1 UNK         0.0600 
    159 H159        1.7872  -17.4401  -42.4887 H         1 UNK         0.3000 
    160 H160        4.1431  -19.8514  -41.6570 H         1 UNK         0.0600 
    161 H161        5.9664  -18.1612  -41.5501 H         1 UNK         0.0600 
    162 H162        5.7369  -18.7074  -43.2027 H         1 UNK         0.0600 
    163 H163        5.1150  -17.1377  -42.7084 H         1 UNK         0.0600 
    164 H164        3.7434  -17.1700  -40.6845 H         1 UNK         0.3000 
    165 H165        0.8071  -17.6937  -38.8745 H         1 UNK         0.0600 
    166 H166        2.1255  -17.2166  -36.8317 H         1 UNK         0.0600 
    167 H167        2.3837  -18.8790  -37.3337 H         1 UNK         0.0600 
    168 H168        3.6198  -17.6685  -37.6539 H         1 UNK         0.0600 
    169 H169        2.6468  -15.5847  -38.6513 H         1 UNK         0.3000 
    170 H170        1.7732  -13.4955  -39.6128 H         1 UNK         0.0600 
    171 H171        4.0797  -14.2270  -40.2112 H         1 UNK         0.0600 
    172 H172        3.6190  -14.3954  -41.9017 H         1 UNK         0.0600 
    173 H173        3.6534  -12.8034  -41.1464 H         1 UNK         0.0600 
    174 H174        1.4846  -13.3835  -42.5274 H         1 UNK         0.3000 
    175 H175       -0.9539  -13.6097  -43.3462 H         1 UNK         0.0600 
    176 H176       -2.9325  -12.0957  -43.4267 H         1 UNK         0.0600 
    177 H177       -2.9728  -13.1435  -42.0184 H         1 UNK         0.0600 
    178 H178       -2.5214  -11.4553  -41.8361 H         1 UNK         0.0600 
    179 H179        0.1122  -11.9936  -44.3953 H         1 UNK         0.3000 
    180 H180        0.0225   -9.4044  -45.0157 H         1 UNK         0.0600 
    181 H181        1.8384   -8.2471  -42.8376 H         1 UNK         0.0600 
    182 H182        0.3001   -7.5960  -43.3801 H         1 UNK         0.0600 
    183 H183        1.6746   -7.6073  -44.4724 H         1 UNK         0.0600 
    184 H184        1.7695  -10.5177  -45.7902 H         1 UNK         0.3000 
    185 H185        4.3919  -10.8330  -45.7680 H         1 UNK         0.0600 
    186 H186        5.6812  -11.3623  -43.7144 H         1 UNK         0.0600 
    187 H187        4.7623  -12.8449  -43.4876 H         1 UNK         0.0600 
    188 H188        5.8225  -12.6661  -44.8822 H         1 UNK         0.0600 
    189 H189        3.5341  -12.6063  -46.8239 H         1 UNK         0.3000 
    190 H190       -0.9736  -19.9356  -47.2941 H         1 UNK         0.3000 
    191 H191       -3.2935  -19.0741  -48.8203 H         1 UNK         0.0600 
    192 H192       -2.5758  -18.6343  -45.8797 H         1 UNK         0.0600 
    193 H193       -3.7629  -17.7432  -46.8204 H         1 UNK         0.0600 
    194 H194       -2.0565  -17.5982  -47.2115 H         1 UNK         0.0600 
    195 H195       -2.6394  -21.9098  -46.9775 H         1 UNK         0.3000 
    196 H196       -5.5484  -22.5031  -46.7586 H         1 UNK         0.0600 
    197 H197       -5.2189  -23.4386  -44.4929 H         1 UNK         0.0600 
    198 H198       -4.8572  -21.7199  -44.5135 H         1 UNK         0.0600 
    199 H199       -3.5476  -22.8965  -44.4748 H         1 UNK         0.0600 
    200 H200       -2.2697  -23.9738  -46.2787 H         1 UNK         0.3000 
    201 H201       -3.1327  -26.6045  -46.6177 H         1 UNK         0.0600 
    202 H202       -1.0063  -25.9423  -45.5200 H         1 UNK         0.0600 
    203 H203       -0.3465  -25.4214  -47.0695 H         1 UNK         0.0600 
    204 H204       -0.7020  -27.1203  -46.7876 H         1 UNK         0.0600 
    205 H205       -2.2944  -24.2937  -49.1115 H         1 UNK         0.3000 
    206 H206       -2.0411  -26.2518  -51.2735 H         1 UNK         0.0600 
    207 H207       -0.6914  -24.1535  -51.2344 H         1 UNK         0.0600 
    208 H208       -1.7036  -24.2408  -52.6628 H         1 UNK         0.0600 
    209 H209       -2.1731  -23.1988  -51.3285 H         1 UNK         0.0600 
    210 H210       -4.3012  -26.9268  -50.1948 H         1 UNK         0.3000 
    211 H211       -6.4623  -27.3944  -50.4664 H         1 UNK         0.0600 
    212 H212       -6.0345  -26.4412  -53.3519 H         1 UNK         0.0600 
    213 H213       -7.3247  -27.4944  -52.7895 H         1 UNK         0.0600 
    214 H214       -5.6598  -28.0504  -52.7399 H         1 UNK         0.0600 
    215 H215       -6.2514  -25.1296  -49.0621 H         1 UNK         0.3000 
    216 H216       -7.2423  -23.3043  -48.3180 H         1 UNK         0.0600 
    217 H217       -9.6272  -22.9046  -48.7152 H         1 UNK         0.0600 
    218 H218       -9.3591  -24.6282  -48.5147 H         1 UNK         0.0600 
    219 H219       -9.6288  -23.9560  -50.1223 H         1 UNK         0.0600 
    220 H220       -5.4041  -23.0879  -50.3378 H         1 UNK         0.3000 
    221 H221       -4.2831  -21.6062  -51.4955 H         1 UNK         0.0600 
    222 H222       -6.5744  -19.5907  -51.2307 H         1 UNK         0.0600 
    223 H223       -5.2477  -19.7717  -50.0851 H         1 UNK         0.0600 
    224 H224       -4.9325  -19.2552  -51.7300 H         1 UNK         0.0600 
    225 H225       -6.9319  -23.1818  -52.6331 H         1 UNK         0.3000 
    226 H226       -7.4015  -21.9240  -55.1470 H         1 UNK         0.0600 
    227 H227       -8.6298  -23.9683  -55.6919 H         1 UNK         0.0600 
    228 H228       -7.8606  -24.8489  -54.3820 H         1 UNK         0.0600 
    229 H229       -8.9802  -23.5316  -54.0258 H         1 UNK         0.0600 
    230 H230       -4.8893  -24.1932  -54.0890 H         1 UNK         0.3000 
    231 H231       -4.0308  -24.7650  -56.8617 H         1 UNK         0.0600 
    232 H232       -3.9757  -26.5618  -55.1307 H         1 UNK         0.0600 
    233 H233       -2.8182  -25.6255  -54.1898 H         1 UNK         0.0600 
    234 H234       -2.3790  -26.2225  -55.7809 H         1 UNK         0.0600 
    235 H235       -3.2918  -22.5111  -54.2768 H         1 UNK         0.3000 
    236 H236       -0.6257  -21.8234  -55.3453 H         1 UNK         0.0600 
    237 H237       -2.1796  -20.8515  -52.9000 H         1 UNK         0.0600 
    238 H238       -0.7830  -21.9283  -52.9347 H         1 UNK         0.0600 
    239 H239       -0.5966  -20.2506  -53.3861 H         1 UNK         0.0600 
    240 H240       -3.7284  -20.1002  -54.6824 H         1 UNK         0.3000 
    241 H241       -2.9876  -18.0095  -56.6909 H         1 UNK         0.0600 
    242 H242       -5.5702  -20.3012  -55.6588 H         1 UNK         0.3800 
    243 H243       -6.5514  -20.0125  -57.0818 H         1 UNK         0.3800 
    244 H244       -4.5401  -16.5064  -55.4405 H         1 UNK         0.0800 
    245 H245       -4.7951  -17.7441  -54.2403 H         1 UNK         0.0800 
    246 H246       -3.8406  -17.1637  -52.0479 H         1 UNK         0.0800 
    247 H247       -2.8371  -18.5296  -52.4948 H         1 UNK         0.0800 
@<TRIPOS>BOND
     1    1    2 1    
     2    1  127 1    
     3    1  128 1    
     4    1  129 1    
     5    2    3 2    
     6    2    4 am   BACKBONE|DICT|INTERRES
     7    4    5 1    
     8    4  130 1    
     9    5    6 1    
    10    5   65 1    
    11    5  131 1    
    12    6    7 1    
    13    6  132 1    
    14    6  133 1    
    15    7    8 1    
    16    8    9 1    
    17    8  134 1    
    18    8  135 1    
    19    9   10 ar   
    20    9   14 ar   
    21   10   11 ar   
    22   10  136 1    
    23   11   12 ar   
    24   11  126 1    
    25   12   13 ar   
    26   12  137 1    
    27   13   14 ar   
    28   13   15 1    
    29   14  138 1    
    30   15   16 1    
    31   15  139 1    
    32   15  140 1    
    33   16   17 1    
    34   17   18 1    
    35   17  141 1    
    36   17  142 1    
    37   18   19 1    
    38   18   67 1    
    39   18  143 1    
    40   19   20 am   BACKBONE|DICT|INTERRES
    41   19  144 1    
    42   20   21 2    
    43   20   22 1    
    44   22   23 1    
    45   22   24 1    
    46   22  145 1    
    47   23  146 1    
    48   23  147 1    
    49   23  148 1    
    50   24   25 am   BACKBONE|DICT|INTERRES
    51   24  149 1    
    52   25   26 2    
    53   25   27 1    
    54   27   28 1    
    55   27   29 1    
    56   27  150 1    
    57   28  151 1    
    58   28  152 1    
    59   28  153 1    
    60   29   30 am   BACKBONE|DICT|INTERRES
    61   29  154 1    
    62   30   31 2    
    63   30   32 1    
    64   32   33 1    
    65   32   34 1    
    66   32  155 1    
    67   33  156 1    
    68   33  157 1    
    69   33  158 1    
    70   34   35 am   BACKBONE|DICT|INTERRES
    71   34  159 1    
    72   35   36 2    
    73   35   37 1    
    74   37   38 1    
    75   37   39 1    
    76   37  160 1    
    77   38  161 1    
    78   38  162 1    
    79   38  163 1    
    80   39   40 am   BACKBONE|DICT|INTERRES
    81   39  164 1    
    82   40   41 2    
    83   40   42 1    
    84   42   43 1    
    85   42   44 1    
    86   42  165 1    
    87   43  166 1    
    88   43  167 1    
    89   43  168 1    
    90   44   45 am   BACKBONE|DICT|INTERRES
    91   44  169 1    
    92   45   46 2    
    93   45   47 1    
    94   47   48 1    
    95   47   49 1    
    96   47  170 1    
    97   48  171 1    
    98   48  172 1    
    99   48  173 1    
   100   49   50 am   BACKBONE|DICT|INTERRES
   101   49  174 1    
   102   50   51 2    
   103   50   52 1    
   104   52   53 1    
   105   52   54 1    
   106   52  175 1    
   107   53  176 1    
   108   53  177 1    
   109   53  178 1    
   110   54   55 am   BACKBONE|DICT|INTERRES
   111   54  179 1    
   112   55   56 2    
   113   55   57 1    
   114   57   58 1    
   115   57   59 1    
   116   57  180 1    
   117   58  181 1    
   118   58  182 1    
   119   58  183 1    
   120   59   60 am   BACKBONE|DICT|INTERRES
   121   59  184 1    
   122   60   61 2    
   123   60   62 1    
   124   62   63 1    
   125   62   64 1    
   126   62  185 1    
   127   63  186 1    
   128   63  187 1    
   129   63  188 1    
   130   64   65 am   BACKBONE|DICT|INTERRES
   131   64  189 1    
   132   65   66 2    
   133   67   68 2    
   134   67   69 am   BACKBONE|DICT|INTERRES
   135   69   70 1    
   136   69  190 1    
   137   70   71 1    
   138   70   72 1    
   139   70  191 1    
   140   71  192 1    
   141   71  193 1    
   142   71  194 1    
   143   72   73 2    
   144   72   74 am   BACKBONE|DICT|INTERRES
   145   74   75 1    
   146   74  195 1    
   147   75   76 1    
   148   75   77 1    
   149   75  196 1    
   150   76  197 1    
   151   76  198 1    
   152   76  199 1    
   153   77   78 2    
   154   77   79 am   BACKBONE|DICT|INTERRES
   155   79   80 1    
   156   79  200 1    
   157   80   81 1    
   158   80   82 1    
   159   80  201 1    
   160   81  202 1    
   161   81  203 1    
   162   81  204 1    
   163   82   83 2    
   164   82   84 am   BACKBONE|DICT|INTERRES
   165   84   85 1    
   166   84  205 1    
   167   85   86 1    
   168   85   87 1    
   169   85  206 1    
   170   86  207 1    
   171   86  208 1    
   172   86  209 1    
   173   87   88 2    
   174   87   89 am   BACKBONE|DICT|INTERRES
   175   89   90 1    
   176   89  210 1    
   177   90   91 1    
   178   90   92 1    
   179   90  211 1    
   180   91  212 1    
   181   91  213 1    
   182   91  214 1    
   183   92   93 2    
   184   92   94 am   BACKBONE|DICT|INTERRES
   185   94   95 1    
   186   94  215 1    
   187   95   96 1    
   188   95   97 1    
   189   95  216 1    
   190   96  217 1    
   191   96  218 1    
   192   96  219 1    
   193   97   98 2    
   194   97   99 am   BACKBONE|DICT|INTERRES
   195   99  100 1    
   196   99  220 1    
   197  100  101 1    
   198  100  102 1    
   199  100  221 1    
   200  101  222 1    
   201  101  223 1    
   202  101  224 1    
   203  102  103 2    
   204  102  104 am   BACKBONE|DICT|INTERRES
   205  104  105 1    
   206  104  225 1    
   207  105  106 1    
   208  105  107 1    
   209  105  226 1    
   210  106  227 1    
   211  106  228 1    
   212  106  229 1    
   213  107  108 2    
   214  107  109 am   BACKBONE|DICT|INTERRES
   215  109  110 1    
   216  109  230 1    
   217  110  111 1    
   218  110  112 1    
   219  110  231 1    
   220  111  232 1    
   221  111  233 1    
   222  111  234 1    
   223  112  113 2    
   224  112  114 am   BACKBONE|DICT|INTERRES
   225  114  115 1    
   226  114  235 1    
   227  115  116 1    
   228  115  117 1    
   229  115  236 1    
   230  116  237 1    
   231  116  238 1    
   232  116  239 1    
   233  117  118 2    
   234  117  119 am   BACKBONE|DICT|INTERRES
   235  119  120 1    
   236  119  240 1    
   237  120  121 1    
   238  120  124 1    
   239  120  241 1    
   240  121  122 am   BACKBONE|DICT|INTERRES
   241  121  123 2    
   242  122  242 1    
   243  122  243 1    
   244  124  125 1    
   245  124  244 1    
   246  124  245 1    
   247  125  126 1    
   248  126  246 1    
   249  126  247 1    
@<TRIPOS>SUBSTRUCTURE
     1 UNK         1 GROUP             0       ****    0 ROOT    
