@<TRIPOS>MOLECULE
3R540
247   249    1
SMALL
USER_CHARGES


@<TRIPOS>ATOM
      1 CA          3.8372  -15.8815  -43.8608 C.3       0 UNK        -0.1800 
      2 C           3.0645  -14.6830  -44.3931 C.2       0 UNK         0.5000 
      3 O           2.4878  -13.9290  -43.6091 O.2       0 UNK        -0.5000 
      4 N           3.0686  -14.4960  -45.7198 N.am      1 UNK        -0.5000 
      5 CA          2.3107  -13.4837  -46.4723 C.3       1 UNK         0.1400 
      6 C6          2.1110  -13.9490  -47.9436 C.3       23 UNK        -0.0398 
      7 S7          0.5066  -13.4549  -48.6650 S.3       23 UNK        -0.2404 
      8 C8         -0.5463  -14.9102  -48.3394 C.3       23 UNK        -0.0205 
      9 C9         -0.0845  -16.1579  -49.0788 C.ar      23 UNK        -0.0193 
     10 C10        -0.3825  -16.3200  -50.4337 C.ar      23 UNK        -0.1150 
     11 C11         0.0504  -17.4540  -51.1271 C.ar      23 UNK        -0.0193 
     12 C12         0.7864  -18.4335  -50.4517 C.ar      23 UNK        -0.1150 
     13 C13         1.0774  -18.2900  -49.0928 C.ar      23 UNK        -0.0193 
     14 C14         0.6335  -17.1538  -48.4101 C.ar      23 UNK        -0.1150 
     15 C15         1.8894  -19.3462  -48.3619 C.3       23 UNK        -0.0205 
     16 S16         0.8138  -20.5177  -47.4813 S.3       23 UNK        -0.2404 
     17 C17         0.5297  -21.8300  -48.7163 C.3       23 UNK        -0.0398 
     18 CA          0.3420  -23.2368  -48.0932 C.3       11 UNK         0.1400 
     19 N           1.4797  -23.6546  -47.2652 N.am      11 UNK        -0.5000 
     20 C           1.7522  -24.9287  -46.9501 C.2       10 UNK         0.5000 
     21 O           1.0531  -25.8814  -47.2971 O.2       10 UNK        -0.5000 
     22 CA          3.0006  -25.1762  -46.0846 C.3       10 UNK         0.1400 
     23 CB          4.2859  -24.8928  -46.8779 C.3       10 UNK        -0.1800 
     24 N           3.0048  -24.3894  -44.8510 N.am      10 UNK        -0.5000 
     25 C           2.1347  -24.5536  -43.8450 C.2       9 UNK         0.5000 
     26 O           1.2150  -25.3696  -43.8616 O.2       9 UNK        -0.5000 
     27 CA          2.2900  -23.6210  -42.6275 C.3       9 UNK         0.1400 
     28 CB          3.3496  -24.1694  -41.6600 C.3       9 UNK        -0.1800 
     29 N           2.6103  -22.2288  -42.9622 N.am      9 UNK        -0.5000 
     30 C           1.8893  -21.4609  -43.7884 C.2       8 UNK         0.5000 
     31 O           0.9302  -21.8813  -44.4392 O.2       8 UNK        -0.5000 
     32 CA          2.3287  -19.9927  -43.9351 C.3       8 UNK         0.1400 
     33 CB          3.5798  -19.8899  -44.8220 C.3       8 UNK        -0.1800 
     34 N           1.2511  -19.2245  -44.5522 N.am      8 UNK        -0.5000 
     35 C           0.1903  -18.7443  -43.8976 C.2       7 UNK         0.5000 
     36 O           0.1052  -18.6841  -42.6681 O.2       7 UNK        -0.5000 
     37 CA         -0.9973  -18.3060  -44.7741 C.3       7 UNK         0.1400 
     38 CB         -2.0341  -19.4334  -44.8907 C.3       7 UNK        -0.1800 
     39 N          -1.6438  -17.1121  -44.2349 N.am      7 UNK        -0.5000 
     40 C          -1.1046  -15.8914  -44.3043 C.2       6 UNK         0.5000 
     41 O          -0.0403  -15.6517  -44.8745 O.2       6 UNK        -0.5000 
     42 CA         -1.8845  -14.7439  -43.6449 C.3       6 UNK         0.1400 
     43 CB         -1.0889  -14.1291  -42.4831 C.3       6 UNK        -0.1800 
     44 N          -2.1545  -13.7085  -44.6361 N.am      6 UNK        -0.5000 
     45 C          -3.1420  -13.7465  -45.5366 C.2       5 UNK         0.5000 
     46 O          -3.9982  -14.6324  -45.5540 O.2       5 UNK        -0.5000 
     47 CA         -3.1841  -12.6097  -46.5861 C.3       5 UNK         0.1400 
     48 CB         -4.5564  -12.4949  -47.2745 C.3       5 UNK        -0.1800 
     49 N          -2.8125  -11.2905  -46.0625 N.am      5 UNK        -0.5000 
     50 C          -1.5663  -10.8806  -45.8037 C.2       4 UNK         0.5000 
     51 O          -0.5765  -11.6132  -45.8785 O.2       4 UNK        -0.5000 
     52 CA         -1.3923   -9.4231  -45.3648 C.3       4 UNK         0.1400 
     53 CB         -1.5757   -9.2757  -43.8446 C.3       4 UNK        -0.1800 
     54 N          -0.0463   -9.0238  -45.7462 N.am      4 UNK        -0.5000 
     55 C           0.3913   -7.7840  -45.9774 C.2       3 UNK         0.5000 
     56 O          -0.3142   -6.7807  -45.8570 O.2       3 UNK        -0.5000 
     57 CA          1.8573   -7.6536  -46.4490 C.3       3 UNK         0.1400 
     58 CB          2.5043   -6.3181  -46.0252 C.3       3 UNK        -0.1800 
     59 N           2.7060   -8.7941  -46.0722 N.am      3 UNK        -0.5000 
     60 C           3.0454   -9.1868  -44.8362 C.2       2 UNK         0.5000 
     61 O           2.6591   -8.6315  -43.8061 O.2       2 UNK        -0.5000 
     62 CA          3.9551  -10.4281  -44.7531 C.3       2 UNK         0.1400 
     63 CB          4.5691  -10.6192  -43.3546 C.3       2 UNK        -0.1800 
     64 N           3.2459  -11.6540  -45.1155 N.am      2 UNK        -0.5000 
     65 C           2.9356  -12.0673  -46.3498 C.2       1 UNK         0.5000 
     66 O           3.1695  -11.3906  -47.3538 O.2       1 UNK        -0.5000 
     67 C          -1.0114  -23.3947  -47.3659 C.2       11 UNK         0.5000 
     68 O          -2.0266  -23.5909  -48.0365 O.2       11 UNK        -0.5000 
     69 N          -1.0029  -23.3484  -46.0250 N.am      12 UNK        -0.5000 
     70 CA         -2.1432  -23.6791  -45.1738 C.3       12 UNK         0.1400 
     71 CB         -1.8880  -23.1968  -43.7373 C.3       12 UNK        -0.1800 
     72 C          -2.4504  -25.1864  -45.1892 C.2       12 UNK         0.5000 
     73 O          -3.6013  -25.5600  -45.4124 O.2       12 UNK        -0.5000 
     74 N          -1.4239  -26.0264  -44.9789 N.am      13 UNK        -0.5000 
     75 CA         -1.5390  -27.4892  -44.9539 C.3       13 UNK         0.1400 
     76 CB         -0.2246  -28.1115  -44.4602 C.3       13 UNK        -0.1800 
     77 C          -1.9373  -28.0883  -46.3133 C.2       13 UNK         0.5000 
     78 O          -2.7396  -29.0216  -46.3555 O.2       13 UNK        -0.5000 
     79 N          -1.3997  -27.5181  -47.3998 N.am      14 UNK        -0.5000 
     80 CA         -1.7648  -27.8549  -48.7771 C.3       14 UNK         0.1400 
     81 CB         -0.6877  -27.2967  -49.7211 C.3       14 UNK        -0.1800 
     82 C          -3.1530  -27.3212  -49.1873 C.2       14 UNK         0.5000 
     83 O          -3.6832  -27.7565  -50.2094 O.2       14 UNK        -0.5000 
     84 N          -3.6861  -26.3602  -48.4152 N.am      15 UNK        -0.5000 
     85 CA         -4.9049  -25.5747  -48.6476 C.3       15 UNK         0.1400 
     86 CB         -6.1580  -26.4725  -48.6612 C.3       15 UNK        -0.1800 
     87 C          -4.8220  -24.6615  -49.8888 C.2       15 UNK         0.5000 
     88 O          -5.8417  -24.1322  -50.3305 O.2       15 UNK        -0.5000 
     89 N          -3.6069  -24.4591  -50.4129 N.am      16 UNK        -0.5000 
     90 CA         -3.3142  -23.6625  -51.5984 C.3       16 UNK         0.1400 
     91 CB         -1.8578  -23.9049  -52.0192 C.3       16 UNK        -0.1800 
     92 C          -3.5837  -22.1666  -51.3820 C.2       16 UNK         0.5000 
     93 O          -4.0624  -21.5075  -52.3042 O.2       16 UNK        -0.5000 
     94 N          -3.3095  -21.6676  -50.1677 N.am      17 UNK        -0.5000 
     95 CA         -3.6143  -20.2902  -49.7719 C.3       17 UNK         0.1400 
     96 CB         -2.8249  -19.9208  -48.5073 C.3       17 UNK        -0.1800 
     97 C          -5.1213  -20.0562  -49.5630 C.2       17 UNK         0.5000 
     98 O          -5.6105  -18.9654  -49.8550 O.2       17 UNK        -0.5000 
     99 N          -5.8318  -21.0862  -49.0814 N.am      18 UNK        -0.5000 
    100 CA        -7.2795  -21.0644  -48.8672 C.3       18 UNK         0.1400 
    101 CB        -7.6778  -22.2177  -47.9325 C.3       18 UNK        -0.1800 
    102 C         -8.0574  -21.1327  -50.1932 C.2       18 UNK         0.5000 
    103 O         -9.0247  -20.3924  -50.3734 O.2       18 UNK        -0.5000 
    104 N         -7.6030  -22.0029  -51.1047 N.am      19 UNK        -0.5000 
    105 CA        -8.1594  -22.1759  -52.4472 C.3       19 UNK         0.1400 
    106 CB        -7.6814  -23.5275  -53.0023 C.3       19 UNK        -0.1800 
    107 C         -7.7785  -21.0445  -53.4223 C.2       19 UNK         0.5000 
    108 O         -8.4253  -20.9101  -54.4615 O.2       19 UNK        -0.5000 
    109 N         -6.7205  -20.2872  -53.0911 N.am      20 UNK        -0.5000 
    110 CA        -6.0352  -19.2954  -53.9300 C.3       20 UNK         0.1400 
    111 CB        -6.9526  -18.0975  -54.2504 C.3       20 UNK        -0.1800 
    112 C         -5.4006  -19.9381  -55.1842 C.2       20 UNK         0.5000 
    113 O         -5.3701  -19.3315  -56.2562 O.2       20 UNK        -0.5000 
    114 N         -4.9100  -21.1708  -55.0100 N.am      21 UNK        -0.5000 
    115 CA        -4.2379  -21.9861  -56.0206 C.3       21 UNK         0.1400 
    116 CB        -4.6814  -23.4459  -55.8304 C.3       21 UNK        -0.1800 
    117 C         -2.7037  -21.8713  -55.9269 C.2       21 UNK         0.5000 
    118 O         -2.0052  -22.3758  -56.8072 O.2       21 UNK        -0.5000 
    119 N         -2.2097  -21.2348  -54.8579 N.am      22 UNK        -0.5000 
    120 CA        -0.7963  -20.9418  -54.5918 C.3       22 UNK         0.1400 
    121 C         -0.1040  -20.0596  -55.6740 C.2       22 UNK         0.5000 
    122 N          1.2125  -20.1570  -55.8051 N.am      22 UNK        -0.7600 
    123 O         -0.7347  -19.2680  -56.3719 O.2       22 UNK        -0.5000 
    124 C124       -0.6217  -20.3515  -53.1682 C.3       23 UNK        -0.0398 
    125 S125       -1.5899  -18.8245  -52.8822 S.3       23 UNK        -0.2404 
    126 C126       -0.2697  -17.6042  -52.6067 C.3       23 UNK        -0.0205 
    127 H127        4.4149  -16.3720  -44.6444 H         1 UNK         0.0600 
    128 H128        3.1457  -16.6116  -43.4392 H         1 UNK         0.0600 
    129 H129        4.5262  -15.5682  -43.0766 H         1 UNK         0.0600 
    130 H130        3.6122  -15.1286  -46.2882 H         1 UNK         0.3000 
    131 H131        1.3267  -13.4293  -46.0028 H         1 UNK         0.0600 
    132 H132        2.9111  -13.5915  -48.5938 H         1 UNK         0.0800 
    133 H133        2.1854  -15.0322  -48.0078 H         1 UNK         0.0800 
    134 H134       -0.5859  -15.0906  -47.2672 H         1 UNK         0.0800 
    135 H135       -1.5677  -14.6792  -48.6436 H         1 UNK         0.0800 
    136 H136       -0.9444  -15.5541  -50.9497 H         1 UNK         0.1150 
    137 H137        1.1343  -19.3086  -50.9793 H         1 UNK         0.1150 
    138 H138        0.8622  -17.0343  -47.3601 H         1 UNK         0.1150 
    139 H139        2.5520  -19.8739  -49.0492 H         1 UNK         0.0800 
    140 H140        2.5417  -18.8570  -47.6373 H         1 UNK         0.0800 
    141 H141        1.3809  -21.8612  -49.3970 H         1 UNK         0.0800 
    142 H142       -0.3270  -21.5618  -49.3357 H         1 UNK         0.0800 
    143 H143        0.2979  -23.9324  -48.9342 H         1 UNK         0.0600 
    144 H144        2.0588  -22.9160  -46.8935 H         1 UNK         0.3000 
    145 H145        3.0030  -26.2327  -45.8078 H         1 UNK         0.0600 
    146 H146        5.1706  -25.1705  -46.3046 H         1 UNK         0.0600 
    147 H147        4.3073  -25.4680  -47.8045 H         1 UNK         0.0600 
    148 H148        4.3765  -23.8387  -47.1432 H         1 UNK         0.0600 
    149 H149        3.7157  -23.6791  -44.7604 H         1 UNK         0.3000 
    150 H150        1.3306  -23.6123  -42.1062 H         1 UNK         0.0600 
    151 H151        4.3456  -24.1578  -42.1043 H         1 UNK         0.0600 
    152 H152        3.1268  -25.1999  -41.3798 H         1 UNK         0.0600 
    153 H153        3.3847  -23.5854  -40.7401 H         1 UNK         0.0600 
    154 H154        3.3965  -21.8213  -42.4771 H         1 UNK         0.3000 
    155 H155        2.5541  -19.5845  -42.9477 H         1 UNK         0.0600 
    156 H156        3.4301  -20.3670  -45.7911 H         1 UNK         0.0600 
    157 H157        4.4357  -20.3731  -44.3497 H         1 UNK         0.0600 
    158 H158        3.8537  -18.8501  -45.0000 H         1 UNK         0.0600 
    159 H159        1.1766  -19.3277  -45.5554 H         1 UNK         0.3000 
    160 H160       -0.6349  -18.0790  -45.7788 H         1 UNK         0.0600 
    161 H161       -1.5914  -20.3199  -45.3473 H         1 UNK         0.0600 
    162 H162       -2.8758  -19.1339  -45.5148 H         1 UNK         0.0600 
    163 H163       -2.4253  -19.7239  -43.9151 H         1 UNK         0.0600 
    164 H164       -2.5090  -17.2497  -43.7337 H         1 UNK         0.3000 
    165 H165       -2.8290  -15.1234  -43.2491 H         1 UNK         0.0600 
    166 H166       -1.6568  -13.3395  -41.9910 H         1 UNK         0.0600 
    167 H167       -0.8539  -14.8820  -41.7299 H         1 UNK         0.0600 
    168 H168       -0.1459  -13.6998  -42.8239 H         1 UNK         0.0600 
    169 H169       -1.4394  -12.9999  -44.7600 H         1 UNK         0.3000 
    170 H170       -2.4585  -12.8755  -47.3561 H         1 UNK         0.0600 
    171 H171       -4.5489  -11.7225  -48.0439 H         1 UNK         0.0600 
    172 H172       -4.8321  -13.4299  -47.7640 H         1 UNK         0.0600 
    173 H173       -5.3440  -12.2513  -46.5605 H         1 UNK         0.0600 
    174 H174       -3.5740  -10.6412  -45.9264 H         1 UNK         0.3000 
    175 H175       -2.1208   -8.8038  -45.8922 H         1 UNK         0.0600 
    176 H176       -2.5738   -9.5902  -43.5375 H         1 UNK         0.0600 
    177 H177       -0.8545   -9.8813  -43.2939 H         1 UNK         0.0600 
    178 H178       -1.4504   -8.2396  -43.5298 H         1 UNK         0.0600 
    179 H179        0.5796   -9.8045  -45.9013 H         1 UNK         0.3000 
    180 H180        1.8168   -7.6624  -47.5390 H         1 UNK         0.0600 
    181 H181        2.5107   -6.1955  -44.9419 H         1 UNK         0.0600 
    182 H182        1.9623   -5.4699  -46.4449 H         1 UNK         0.0600 
    183 H183        3.5334   -6.2488  -46.3776 H         1 UNK         0.0600 
    184 H184        3.0169   -9.3830  -46.8385 H         1 UNK         0.3000 
    185 H185        4.7774  -10.2796  -45.4561 H         1 UNK         0.0600 
    186 H186        5.1182   -9.7298  -43.0428 H         1 UNK         0.0600 
    187 H187        3.8046  -10.8166  -42.6020 H         1 UNK         0.0600 
    188 H188        5.2706  -11.4536  -43.3439 H         1 UNK         0.0600 
    189 H189        2.9946  -12.2765  -44.3516 H         1 UNK         0.3000 
    190 H190       -0.1460  -23.0810  -45.5487 H         1 UNK         0.3000 
    191 H191       -3.0188  -23.1505  -45.5572 H         1 UNK         0.0600 
    192 H192       -1.7304  -22.1200  -43.7019 H         1 UNK         0.0600 
    193 H193       -2.7386  -23.4213  -43.0928 H         1 UNK         0.0600 
    194 H194       -1.0099  -23.6733  -43.3007 H         1 UNK         0.0600 
    195 H195       -0.5029  -25.6482  -44.7757 H         1 UNK         0.3000 
    196 H196       -2.3232  -27.7478  -44.2393 H         1 UNK         0.0600 
    197 H197       -0.2871  -29.2003  -44.4442 H         1 UNK         0.0600 
    198 H198        0.0077  -27.7865  -43.4461 H         1 UNK         0.0600 
    199 H199        0.6146  -27.8388  -45.1016 H         1 UNK         0.0600 
    200 H200       -0.6867  -26.8040  -47.2769 H         1 UNK         0.3000 
    201 H201       -1.7832  -28.9420  -48.8787 H         1 UNK         0.0600 
    202 H202       -0.9013  -27.5554  -50.7591 H         1 UNK         0.0600 
    203 H203        0.2952  -27.7028  -49.4813 H         1 UNK         0.0600 
    204 H204       -0.6237  -26.2097  -49.6597 H         1 UNK         0.0600 
    205 H205       -3.1722  -26.0952  -47.5849 H         1 UNK         0.3000 
    206 H206       -4.9922  -24.9030  -47.7927 H         1 UNK         0.0600 
    207 H207       -6.1985  -27.1045  -47.7740 H         1 UNK         0.0600 
    208 H208       -7.0685  -25.8722  -48.6726 H         1 UNK         0.0600 
    209 H209       -6.1856  -27.1197  -49.5380 H         1 UNK         0.0600 
    210 H210       -2.8200  -24.8632  -49.9270 H         1 UNK         0.3000 
    211 H211       -3.9675  -24.0073  -52.4021 H         1 UNK         0.0600 
    212 H212       -1.1534  -23.5453  -51.2681 H         1 UNK         0.0600 
    213 H213       -1.6343  -23.3965  -52.9569 H         1 UNK         0.0600 
    214 H214       -1.6655  -24.9663  -52.1775 H         1 UNK         0.0600 
    215 H215       -2.9333  -22.2867  -49.4582 H         1 UNK         0.3000 
    216 H216       -3.2936  -19.6190  -50.5707 H         1 UNK         0.0600 
    217 H217       -3.1421  -18.9549  -48.1119 H         1 UNK         0.0600 
    218 H218       -1.7630  -19.8319  -48.7277 H         1 UNK         0.0600 
    219 H219       -2.9507  -20.6607  -47.7160 H         1 UNK         0.0600 
    220 H220       -5.3575  -21.9577  -48.9015 H         1 UNK         0.3000 
    221 H221       -7.5407  -20.1258  -48.3736 H         1 UNK         0.0600 
    222 H222       -7.4444  -23.1915  -48.3633 H         1 UNK         0.0600 
    223 H223       -7.1642  -22.1436  -46.9739 H         1 UNK         0.0600 
    224 H224       -8.7492  -22.1997  -47.7289 H         1 UNK         0.0600 
    225 H225       -6.8467  -22.6327  -50.8468 H         1 UNK         0.3000 
    226 H226       -9.2486  -22.1991  -52.3740 H         1 UNK         0.0600 
    227 H227       -8.0978  -23.7163  -53.9926 H         1 UNK         0.0600 
    228 H228       -6.5946  -23.5628  -53.0905 H         1 UNK         0.0600 
    229 H229       -7.9904  -24.3503  -52.3573 H         1 UNK         0.0600 
    230 H230       -6.2497  -20.5119  -52.2252 H         1 UNK         0.3000 
    231 H231       -5.2036  -18.9201  -53.3314 H         1 UNK         0.0600 
    232 H232       -7.7702  -18.3755  -54.9157 H         1 UNK         0.0600 
    233 H233       -6.3929  -17.2994  -54.7393 H         1 UNK         0.0600 
    234 H234       -7.3856  -17.6798  -53.3415 H         1 UNK         0.0600 
    235 H235       -4.9132  -21.5390  -54.0641 H         1 UNK         0.3000 
    236 H236       -4.5355  -21.6612  -57.0196 H         1 UNK         0.0600 
    237 H237       -5.7643  -23.5421  -55.9131 H         1 UNK         0.0600 
    238 H238       -4.2393  -24.0920  -56.5898 H         1 UNK         0.0600 
    239 H239       -4.3844  -23.8334  -54.8555 H         1 UNK         0.0600 
    240 H240       -2.8644  -20.8483  -54.1918 H         1 UNK         0.3000 
    241 H241       -0.2847  -21.9060  -54.6093 H         1 UNK         0.0600 
    242 H242        1.7586  -20.7983  -55.2509 H         1 UNK         0.3800 
    243 H243        1.6764  -19.5850  -56.4939 H         1 UNK         0.3800 
    244 H244       -0.9400  -21.0815  -52.4247 H         1 UNK         0.0800 
    245 H245        0.4349  -20.1805  -52.9629 H         1 UNK         0.0800 
    246 H246        0.6295  -17.8728  -53.1628 H         1 UNK         0.0800 
    247 H247       -0.5981  -16.6489  -53.0188 H         1 UNK         0.0800 
@<TRIPOS>BOND
     1    1    2 1    
     2    1  127 1    
     3    1  128 1    
     4    1  129 1    
     5    2    3 2    
     6    2    4 am   BACKBONE|DICT|INTERRES
     7    4    5 1    
     8    4  130 1    
     9    5    6 1    
    10    5   65 1    
    11    5  131 1    
    12    6    7 1    
    13    6  132 1    
    14    6  133 1    
    15    7    8 1    
    16    8    9 1    
    17    8  134 1    
    18    8  135 1    
    19    9   10 ar   
    20    9   14 ar   
    21   10   11 ar   
    22   10  136 1    
    23   11   12 ar   
    24   11  126 1    
    25   12   13 ar   
    26   12  137 1    
    27   13   14 ar   
    28   13   15 1    
    29   14  138 1    
    30   15   16 1    
    31   15  139 1    
    32   15  140 1    
    33   16   17 1    
    34   17   18 1    
    35   17  141 1    
    36   17  142 1    
    37   18   19 1    
    38   18   67 1    
    39   18  143 1    
    40   19   20 am   BACKBONE|DICT|INTERRES
    41   19  144 1    
    42   20   21 2    
    43   20   22 1    
    44   22   23 1    
    45   22   24 1    
    46   22  145 1    
    47   23  146 1    
    48   23  147 1    
    49   23  148 1    
    50   24   25 am   BACKBONE|DICT|INTERRES
    51   24  149 1    
    52   25   26 2    
    53   25   27 1    
    54   27   28 1    
    55   27   29 1    
    56   27  150 1    
    57   28  151 1    
    58   28  152 1    
    59   28  153 1    
    60   29   30 am   BACKBONE|DICT|INTERRES
    61   29  154 1    
    62   30   31 2    
    63   30   32 1    
    64   32   33 1    
    65   32   34 1    
    66   32  155 1    
    67   33  156 1    
    68   33  157 1    
    69   33  158 1    
    70   34   35 am   BACKBONE|DICT|INTERRES
    71   34  159 1    
    72   35   36 2    
    73   35   37 1    
    74   37   38 1    
    75   37   39 1    
    76   37  160 1    
    77   38  161 1    
    78   38  162 1    
    79   38  163 1    
    80   39   40 am   BACKBONE|DICT|INTERRES
    81   39  164 1    
    82   40   41 2    
    83   40   42 1    
    84   42   43 1    
    85   42   44 1    
    86   42  165 1    
    87   43  166 1    
    88   43  167 1    
    89   43  168 1    
    90   44   45 am   BACKBONE|DICT|INTERRES
    91   44  169 1    
    92   45   46 2    
    93   45   47 1    
    94   47   48 1    
    95   47   49 1    
    96   47  170 1    
    97   48  171 1    
    98   48  172 1    
    99   48  173 1    
   100   49   50 am   BACKBONE|DICT|INTERRES
   101   49  174 1    
   102   50   51 2    
   103   50   52 1    
   104   52   53 1    
   105   52   54 1    
   106   52  175 1    
   107   53  176 1    
   108   53  177 1    
   109   53  178 1    
   110   54   55 am   BACKBONE|DICT|INTERRES
   111   54  179 1    
   112   55   56 2    
   113   55   57 1    
   114   57   58 1    
   115   57   59 1    
   116   57  180 1    
   117   58  181 1    
   118   58  182 1    
   119   58  183 1    
   120   59   60 am   BACKBONE|DICT|INTERRES
   121   59  184 1    
   122   60   61 2    
   123   60   62 1    
   124   62   63 1    
   125   62   64 1    
   126   62  185 1    
   127   63  186 1    
   128   63  187 1    
   129   63  188 1    
   130   64   65 am   BACKBONE|DICT|INTERRES
   131   64  189 1    
   132   65   66 2    
   133   67   68 2    
   134   67   69 am   BACKBONE|DICT|INTERRES
   135   69   70 1    
   136   69  190 1    
   137   70   71 1    
   138   70   72 1    
   139   70  191 1    
   140   71  192 1    
   141   71  193 1    
   142   71  194 1    
   143   72   73 2    
   144   72   74 am   BACKBONE|DICT|INTERRES
   145   74   75 1    
   146   74  195 1    
   147   75   76 1    
   148   75   77 1    
   149   75  196 1    
   150   76  197 1    
   151   76  198 1    
   152   76  199 1    
   153   77   78 2    
   154   77   79 am   BACKBONE|DICT|INTERRES
   155   79   80 1    
   156   79  200 1    
   157   80   81 1    
   158   80   82 1    
   159   80  201 1    
   160   81  202 1    
   161   81  203 1    
   162   81  204 1    
   163   82   83 2    
   164   82   84 am   BACKBONE|DICT|INTERRES
   165   84   85 1    
   166   84  205 1    
   167   85   86 1    
   168   85   87 1    
   169   85  206 1    
   170   86  207 1    
   171   86  208 1    
   172   86  209 1    
   173   87   88 2    
   174   87   89 am   BACKBONE|DICT|INTERRES
   175   89   90 1    
   176   89  210 1    
   177   90   91 1    
   178   90   92 1    
   179   90  211 1    
   180   91  212 1    
   181   91  213 1    
   182   91  214 1    
   183   92   93 2    
   184   92   94 am   BACKBONE|DICT|INTERRES
   185   94   95 1    
   186   94  215 1    
   187   95   96 1    
   188   95   97 1    
   189   95  216 1    
   190   96  217 1    
   191   96  218 1    
   192   96  219 1    
   193   97   98 2    
   194   97   99 am   BACKBONE|DICT|INTERRES
   195   99  100 1    
   196   99  220 1    
   197  100  101 1    
   198  100  102 1    
   199  100  221 1    
   200  101  222 1    
   201  101  223 1    
   202  101  224 1    
   203  102  103 2    
   204  102  104 am   BACKBONE|DICT|INTERRES
   205  104  105 1    
   206  104  225 1    
   207  105  106 1    
   208  105  107 1    
   209  105  226 1    
   210  106  227 1    
   211  106  228 1    
   212  106  229 1    
   213  107  108 2    
   214  107  109 am   BACKBONE|DICT|INTERRES
   215  109  110 1    
   216  109  230 1    
   217  110  111 1    
   218  110  112 1    
   219  110  231 1    
   220  111  232 1    
   221  111  233 1    
   222  111  234 1    
   223  112  113 2    
   224  112  114 am   BACKBONE|DICT|INTERRES
   225  114  115 1    
   226  114  235 1    
   227  115  116 1    
   228  115  117 1    
   229  115  236 1    
   230  116  237 1    
   231  116  238 1    
   232  116  239 1    
   233  117  118 2    
   234  117  119 am   BACKBONE|DICT|INTERRES
   235  119  120 1    
   236  119  240 1    
   237  120  121 1    
   238  120  124 1    
   239  120  241 1    
   240  121  122 am   BACKBONE|DICT|INTERRES
   241  121  123 2    
   242  122  242 1    
   243  122  243 1    
   244  124  125 1    
   245  124  244 1    
   246  124  245 1    
   247  125  126 1    
   248  126  246 1    
   249  126  247 1    
@<TRIPOS>SUBSTRUCTURE
     1 UNK         1 GROUP             0       ****    0 ROOT    
