@<TRIPOS>MOLECULE
3R540
247   249    1
SMALL
USER_CHARGES


@<TRIPOS>ATOM
      1 CA          0.3161  -14.1742  -52.3155 C.3       0 UNK        -0.1800 
      2 C           0.3135  -14.3910  -50.8096 C.2       0 UNK         0.5000 
      3 O          -0.7514  -14.5463  -50.2135 O.2       0 UNK        -0.5000 
      4 N           1.5013  -14.3774  -50.1890 N.am      1 UNK        -0.5000 
      5 CA          1.7770  -14.6413  -48.7624 C.3       1 UNK         0.1400 
      6 C6          1.3182  -16.0504  -48.2819 C.3       23 UNK        -0.0398 
      7 S7          1.8909  -17.4307  -49.3250 S.3       23 UNK        -0.2404 
      8 C8          0.3032  -18.0501  -49.9632 C.3       23 UNK        -0.0205 
      9 C9          0.5316  -19.1342  -51.0003 C.ar      23 UNK        -0.0193 
     10 C10         0.6590  -18.8002  -52.3507 C.ar      23 UNK        -0.1150 
     11 C11         0.9036  -19.7916  -53.3045 C.ar      23 UNK        -0.0193 
     12 C12         1.0431  -21.1211  -52.8970 C.ar      23 UNK        -0.1150 
     13 C13         0.9034  -21.4684  -51.5512 C.ar      23 UNK        -0.0193 
     14 C14         0.6309  -20.4712  -50.6100 C.ar      23 UNK        -0.1150 
     15 C15         0.9983  -22.9255  -51.1283 C.3       23 UNK        -0.0205 
     16 S16         2.6833  -23.4377  -50.6494 S.3       23 UNK        -0.2404 
     17 C17         2.9979  -22.5550  -49.0788 C.3       23 UNK        -0.0398 
     18 CA          2.4154  -23.2735  -47.8320 C.3       11 UNK         0.1400 
     19 N           3.2205  -23.0512  -46.6273 N.am      11 UNK        -0.5000 
     20 C           3.0530  -23.7225  -45.4780 C.2       10 UNK         0.5000 
     21 O           2.2433  -24.6386  -45.3311 O.2       10 UNK        -0.5000 
     22 CA          3.9006  -23.2605  -44.2795 C.3       10 UNK         0.1400 
     23 CB          5.2788  -23.9383  -44.2986 C.3       10 UNK        -0.1800 
     24 N           4.0731  -21.8055  -44.2102 N.am      10 UNK        -0.5000 
     25 C           3.0753  -20.9326  -44.0218 C.2       9 UNK         0.5000 
     26 O           1.8846  -21.2515  -43.9656 O.2       9 UNK        -0.5000 
     27 CA          3.4629  -19.4553  -43.8870 C.3       9 UNK         0.1400 
     28 CB          3.3419  -18.7251  -45.2349 C.3       9 UNK        -0.1800 
     29 N           2.5531  -18.8531  -42.9215 N.am      9 UNK        -0.5000 
     30 C           2.8946  -18.0199  -41.9323 C.2       8 UNK         0.5000 
     31 O           4.0279  -17.5592  -41.7894 O.2       8 UNK        -0.5000 
     32 CA          1.7950  -17.6450  -40.9169 C.3       8 UNK         0.1400 
     33 CB          1.3723  -16.1747  -41.0668 C.3       8 UNK        -0.1800 
     34 N           0.6059  -18.4955  -41.0135 N.am      8 UNK        -0.5000 
     35 C           0.4974  -19.7211  -40.4811 C.2       7 UNK         0.5000 
     36 O           1.3992  -20.2750  -39.8507 O.2       7 UNK        -0.5000 
     37 CA         -0.8546  -20.4262  -40.7012 C.3       7 UNK         0.1400 
     38 CB         -1.0610  -21.6732  -39.8133 C.3       7 UNK        -0.1800 
     39 N          -1.9748  -19.4860  -40.5966 N.am      7 UNK        -0.5000 
     40 C          -2.4387  -18.8642  -39.5000 C.2       6 UNK         0.5000 
     41 O          -2.0112  -19.0729  -38.3642 O.2       6 UNK        -0.5000 
     42 CA         -3.5505  -17.8048  -39.6962 C.3       6 UNK         0.1400 
     43 CB         -3.1741  -16.4791  -39.0121 C.3       6 UNK        -0.1800 
     44 N          -3.8506  -17.5224  -41.1018 N.am      6 UNK        -0.5000 
     45 C          -4.5506  -18.3079  -41.9300 C.2       5 UNK         0.5000 
     46 O          -5.1355  -19.3283  -41.5676 O.2       5 UNK        -0.5000 
     47 CA         -4.5591  -17.9168  -43.4219 C.3       5 UNK         0.1400 
     48 CB         -5.9223  -17.3255  -43.8140 C.3       5 UNK        -0.1800 
     49 N          -3.5062  -16.9741  -43.8223 N.am      5 UNK        -0.5000 
     50 C          -2.1806  -17.1779  -43.7638 C.2       4 UNK         0.5000 
     51 O          -1.6676  -18.1818  -43.2640 O.2       4 UNK        -0.5000 
     52 CA         -1.2895  -16.0392  -44.3096 C.3       4 UNK         0.1400 
     53 CB          0.1120  -16.5152  -44.7437 C.3       4 UNK        -0.1800 
     54 N          -1.9223  -15.2436  -45.3699 N.am      4 UNK        -0.5000 
     55 C          -2.3435  -15.6742  -46.5684 C.2       3 UNK         0.5000 
     56 O          -2.2378  -16.8344  -46.9624 O.2       3 UNK        -0.5000 
     57 CA         -2.9753  -14.6237  -47.4963 C.3       3 UNK         0.1400 
     58 CB         -4.3376  -14.1292  -46.9725 C.3       3 UNK        -0.1800 
     59 N          -2.0552  -13.5274  -47.8098 N.am      3 UNK        -0.5000 
     60 C          -1.5892  -12.5523  -47.0124 C.2       2 UNK         0.5000 
     61 O          -1.9791  -12.3614  -45.8586 O.2       2 UNK        -0.5000 
     62 CA         -0.4431  -11.7000  -47.6072 C.3       2 UNK         0.1400 
     63 CB          0.2502  -10.7889  -46.5725 C.3       2 UNK        -0.1800 
     64 N           0.5234  -12.5490  -48.3173 N.am      2 UNK        -0.5000 
     65 C           1.2264  -13.5662  -47.7929 C.2       1 UNK         0.5000 
     66 O           1.4093  -13.7093  -46.5843 O.2       1 UNK        -0.5000 
     67 C           0.9497  -22.8725  -47.5803 C.2       11 UNK         0.5000 
     68 O           0.0444  -23.6477  -47.8831 O.2       11 UNK        -0.5000 
     69 N           0.7439  -21.6848  -46.9916 N.am      12 UNK        -0.5000 
     70 CA         -0.5766  -21.1419  -46.6735 C.3       12 UNK         0.1400 
     71 CB         -0.4410  -19.6983  -46.1827 C.3       12 UNK        -0.1800 
     72 C          -1.3398  -21.9896  -45.6458 C.2       12 UNK         0.5000 
     73 O          -2.5465  -22.1687  -45.8005 O.2       12 UNK        -0.5000 
     74 N          -0.6183  -22.5298  -44.6553 N.am      13 UNK        -0.5000 
     75 CA         -1.1320  -23.4733  -43.6647 C.3       13 UNK         0.1400 
     76 CB         -0.0364  -23.7551  -42.6247 C.3       13 UNK        -0.1800 
     77 C          -1.6209  -24.7903  -44.2978 C.2       13 UNK         0.5000 
     78 O          -2.6763  -25.2939  -43.9129 O.2       13 UNK        -0.5000 
     79 N          -0.8489  -25.3156  -45.2589 N.am      14 UNK        -0.5000 
     80 CA         -1.1438  -26.5571  -45.9715 C.3       14 UNK         0.1400 
     81 CB          0.1390  -27.0717  -46.6437 C.3       14 UNK        -0.1800 
     82 C          -2.2748  -26.3996  -47.0036 C.2       14 UNK         0.5000 
     83 O          -3.1807  -27.2328  -47.0449 O.2       14 UNK        -0.5000 
     84 N          -2.1957  -25.3455  -47.8257 N.am      15 UNK        -0.5000 
     85 CA         -3.1062  -25.0967  -48.9463 C.3       15 UNK         0.1400 
     86 CB         -2.3572  -24.2916  -50.0189 C.3       15 UNK        -0.1800 
     87 C          -4.4057  -24.3723  -48.5492 C.2       15 UNK         0.5000 
     88 O          -5.3061  -24.2744  -49.3835 O.2       15 UNK        -0.5000 
     89 N          -4.4734  -23.8629  -47.3107 N.am      16 UNK        -0.5000 
     90 CA         -5.5395  -23.0240  -46.7533 C.3       16 UNK         0.1400 
     91 CB         -6.8794  -23.7871  -46.6790 C.3       16 UNK        -0.1800 
     92 C          -5.6352  -21.6691  -47.4864 C.2       16 UNK         0.5000 
     93 O          -6.7125  -21.2822  -47.9419 O.2       16 UNK        -0.5000 
     94 N          -4.4820  -20.9876  -47.5721 N.am      17 UNK        -0.5000 
     95 CA         -4.2527  -19.6666  -48.1685 C.3       17 UNK         0.1400 
     96 CB         -4.9319  -18.5723  -47.3210 C.3       17 UNK        -0.1800 
     97 C          -4.6545  -19.5961  -49.6562 C.2       17 UNK         0.5000 
     98 O          -5.6519  -18.9570  -49.9963 O.2       17 UNK        -0.5000 
     99 N          -3.8686  -20.2646  -50.5158 N.am      18 UNK        -0.5000 
    100 CA        -4.0435  -20.2717  -51.9742 C.3       18 UNK         0.1400 
    101 CB        -3.0136  -21.2147  -52.6174 C.3       18 UNK        -0.1800 
    102 C         -3.9535  -18.8619  -52.5892 C.2       18 UNK         0.5000 
    103 O         -4.8777  -18.4398  -53.2855 O.2       18 UNK        -0.5000 
    104 N         -2.8614  -18.1531  -52.2661 N.am      19 UNK        -0.5000 
    105 CA        -2.5994  -16.7433  -52.5658 C.3       19 UNK         0.1400 
    106 CB        -3.4227  -15.8580  -51.6056 C.3       19 UNK        -0.1800 
    107 C         -2.7901  -16.3944  -54.0578 C.2       19 UNK         0.5000 
    108 O         -1.9778  -16.8072  -54.8863 O.2       19 UNK        -0.5000 
    109 N         -3.8651  -15.6593  -54.3737 N.am      20 UNK        -0.5000 
    110 CA        -4.2411  -15.2212  -55.7184 C.3       20 UNK         0.1400 
    111 CB        -5.4127  -14.2338  -55.6072 C.3       20 UNK        -0.1800 
    112 C         -4.5933  -16.3659  -56.6893 C.2       20 UNK         0.5000 
    113 O         -4.5077  -16.1635  -57.9021 O.2       20 UNK        -0.5000 
    114 N         -4.9466  -17.5512  -56.1645 N.am      21 UNK        -0.5000 
    115 CA        -5.2465  -18.7551  -56.9505 C.3       21 UNK         0.1400 
    116 CB        -5.7711  -19.8597  -56.0206 C.3       21 UNK        -0.1800 
    117 C         -4.0492  -19.2737  -57.7735 C.2       21 UNK         0.5000 
    118 O         -4.2546  -19.9929  -58.7521 O.2       21 UNK        -0.5000 
    119 N         -2.8307  -18.8837  -57.3796 N.am      22 UNK        -0.5000 
    120 CA        -1.5815  -19.1423  -58.1088 C.3       22 UNK         0.1400 
    121 C         -1.4061  -18.2862  -59.3995 C.2       22 UNK         0.5000 
    122 N         -2.2281  -17.2734  -59.6552 N.am      22 UNK        -0.7600 
    123 O         -0.5058  -18.5515  -60.1912 O.2       22 UNK        -0.5000 
    124 C124       -0.3447  -18.9945  -57.1876 C.3       23 UNK        -0.0398 
    125 S125       -0.4645  -20.0100  -55.6782 S.3       23 UNK        -0.2404 
    126 C126        1.0022  -19.4294  -54.7757 C.3       23 UNK        -0.0205 
    127 H127        1.1871  -13.6006  -52.6331 H         1 UNK         0.0600 
    128 H128       -0.5772  -13.6302  -52.6226 H         1 UNK         0.0600 
    129 H129        0.3297  -15.1321  -52.8345 H         1 UNK         0.0600 
    130 H130        2.3287  -14.2218  -50.7482 H         1 UNK         0.3000 
    131 H131        2.8626  -14.5998  -48.6631 H         1 UNK         0.0600 
    132 H132        1.7026  -16.2436  -47.2793 H         1 UNK         0.0800 
    133 H133        0.2313  -16.0913  -48.1955 H         1 UNK         0.0800 
    134 H134       -0.3015  -18.4328  -49.1403 H         1 UNK         0.0800 
    135 H135       -0.2638  -17.2294  -50.4004 H         1 UNK         0.0800 
    136 H136        0.5727  -17.7680  -52.6590 H         1 UNK         0.1150 
    137 H137        1.2345  -21.8882  -53.6342 H         1 UNK         0.1150 
    138 H138        0.5107  -20.7292  -49.5694 H         1 UNK         0.1150 
    139 H139        0.2973  -23.1221  -50.3228 H         1 UNK         0.0800 
    140 H140        0.6724  -23.5620  -51.9523 H         1 UNK         0.0800 
    141 H141        4.0844  -22.5135  -48.9908 H         1 UNK         0.0800 
    142 H142        2.6872  -21.5126  -49.1474 H         1 UNK         0.0800 
    143 H143        2.4303  -24.3497  -48.0200 H         1 UNK         0.0600 
    144 H144        3.9091  -22.3141  -46.6591 H         1 UNK         0.3000 
    145 H145        3.3803  -23.5758  -43.3725 H         1 UNK         0.0600 
    146 H146        5.8511  -23.6937  -43.4036 H         1 UNK         0.0600 
    147 H147        5.1793  -25.0242  -44.3317 H         1 UNK         0.0600 
    148 H148        5.8660  -23.6359  -45.1666 H         1 UNK         0.0600 
    149 H149        5.0227  -21.4642  -44.2533 H         1 UNK         0.3000 
    150 H150        4.4932  -19.3939  -43.5301 H         1 UNK         0.0600 
    151 H151        4.0060  -19.1634  -45.9806 H         1 UNK         0.0600 
    152 H152        3.6132  -17.6739  -45.1359 H         1 UNK         0.0600 
    153 H153        2.3277  -18.7673  -45.6311 H         1 UNK         0.0600 
    154 H154        1.6193  -19.2410  -42.9307 H         1 UNK         0.3000 
    155 H155        2.2267  -17.7646  -39.9208 H         1 UNK         0.0600 
    156 H156        0.6426  -15.8961  -40.3062 H         1 UNK         0.0600 
    157 H157        0.9324  -15.9723  -42.0417 H         1 UNK         0.0600 
    158 H158        2.2287  -15.5092  -40.9516 H         1 UNK         0.0600 
    159 H159       -0.1751  -18.1369  -41.5476 H         1 UNK         0.3000 
    160 H160       -0.8471  -20.7632  -41.7389 H         1 UNK         0.0600 
    161 H161       -1.0442  -21.4303  -38.7512 H         1 UNK         0.0600 
    162 H162       -0.2741  -22.4086  -39.9792 H         1 UNK         0.0600 
    163 H163       -2.0113  -22.1593  -40.0332 H         1 UNK         0.0600 
    164 H164       -2.3562  -19.1908  -41.4870 H         1 UNK         0.3000 
    165 H165       -4.4525  -18.1922  -39.2184 H         1 UNK         0.0600 
    166 H166       -2.2581  -16.0582  -39.4288 H         1 UNK         0.0600 
    167 H167       -3.9662  -15.7383  -39.1235 H         1 UNK         0.0600 
    168 H168       -3.0142  -16.6183  -37.9421 H         1 UNK         0.0600 
    169 H169       -3.4107  -16.7044  -41.4959 H         1 UNK         0.3000 
    170 H170       -4.4057  -18.8380  -43.9870 H         1 UNK         0.0600 
    171 H171       -6.7309  -18.0219  -43.5878 H         1 UNK         0.0600 
    172 H172       -6.1268  -16.3990  -43.2761 H         1 UNK         0.0600 
    173 H173       -5.9717  -17.1102  -44.8813 H         1 UNK         0.0600 
    174 H174       -3.8223  -16.1067  -44.2297 H         1 UNK         0.3000 
    175 H175       -1.1500  -15.3614  -43.4667 H         1 UNK         0.0600 
    176 H176        0.5678  -17.1748  -44.0073 H         1 UNK         0.0600 
    177 H177        0.0826  -17.0579  -45.6849 H         1 UNK         0.0600 
    178 H178        0.7855  -15.6690  -44.8723 H         1 UNK         0.0600 
    179 H179       -2.0155  -14.2487  -45.1865 H         1 UNK         0.3000 
    180 H180       -3.1625  -15.1231  -48.4470 H         1 UNK         0.0600 
    181 H181       -4.2587  -13.6370  -46.0033 H         1 UNK         0.0600 
    182 H182       -5.0306  -14.9633  -46.8553 H         1 UNK         0.0600 
    183 H183       -4.7927  -13.4251  -47.6690 H         1 UNK         0.0600 
    184 H184       -1.6061  -13.6370  -48.7154 H         1 UNK         0.3000 
    185 H185       -0.8997  -11.0551  -48.3593 H         1 UNK         0.0600 
    186 H186        1.0636  -10.2239  -47.0275 H         1 UNK         0.0600 
    187 H187       -0.4551  -10.0673  -46.1589 H         1 UNK         0.0600 
    188 H188        0.6609  -11.3546  -45.7362 H         1 UNK         0.0600 
    189 H189        0.4605  -12.5227  -49.3252 H         1 UNK         0.3000 
    190 H190        1.5397  -21.1338  -46.7087 H         1 UNK         0.3000 
    191 H191       -1.1599  -21.1336  -47.5964 H         1 UNK         0.0600 
    192 H192        0.0950  -19.0832  -46.9042 H         1 UNK         0.0600 
    193 H193       -1.4231  -19.2480  -46.0346 H         1 UNK         0.0600 
    194 H194        0.0862  -19.6412  -45.2302 H         1 UNK         0.0600 
    195 H195        0.3593  -22.2663  -44.5705 H         1 UNK         0.3000 
    196 H196       -1.9769  -23.0000  -43.1601 H         1 UNK         0.0600 
    197 H197       -0.4306  -24.3402  -41.7931 H         1 UNK         0.0600 
    198 H198        0.3723  -22.8323  -42.2155 H         1 UNK         0.0600 
    199 H199        0.7945  -24.3150  -43.0540 H         1 UNK         0.0600 
    200 H200        0.0143  -24.8452  -45.5036 H         1 UNK         0.3000 
    201 H201       -1.4610  -27.3046  -45.2413 H         1 UNK         0.0600 
    202 H202        0.9187  -27.2638  -45.9064 H         1 UNK         0.0600 
    203 H203        0.5339  -26.3551  -47.3650 H         1 UNK         0.0600 
    204 H204       -0.0450  -28.0063  -47.1748 H         1 UNK         0.0600 
    205 H205       -1.3983  -24.7160  -47.7434 H         1 UNK         0.3000 
    206 H206       -3.3915  -26.0542  -49.3873 H         1 UNK         0.0600 
    207 H207       -1.4465  -24.8042  -50.3285 H         1 UNK         0.0600 
    208 H208       -2.9728  -24.1636  -50.9093 H         1 UNK         0.0600 
    209 H209       -2.0839  -23.2990  -49.6592 H         1 UNK         0.0600 
    210 H210       -3.6546  -23.9596  -46.7241 H         1 UNK         0.3000 
    211 H211       -5.2433  -22.7967  -45.7281 H         1 UNK         0.0600 
    212 H212       -7.2847  -24.0048  -47.6672 H         1 UNK         0.0600 
    213 H213       -7.6281  -23.2021  -46.1438 H         1 UNK         0.0600 
    214 H214       -6.7649  -24.7318  -46.1475 H         1 UNK         0.0600 
    215 H215       -3.6820  -21.4102  -47.1091 H         1 UNK         0.3000 
    216 H216       -3.1780  -19.4823  -48.1257 H         1 UNK         0.0600 
    217 H217       -4.5066  -18.5451  -46.3197 H         1 UNK         0.0600 
    218 H218       -6.0073  -18.7263  -47.2300 H         1 UNK         0.0600 
    219 H219       -4.7798  -17.5861  -47.7608 H         1 UNK         0.0600 
    220 H220       -3.0885  -20.7911  -50.1541 H         1 UNK         0.3000 
    221 H221       -5.0408  -20.6617  -52.1880 H         1 UNK         0.0600 
    222 H222       -1.9902  -20.9302  -52.3716 H         1 UNK         0.0600 
    223 H223       -3.1636  -22.2428  -52.2908 H         1 UNK         0.0600 
    224 H224       -3.1005  -21.2063  -53.7049 H         1 UNK         0.0600 
    225 H225       -2.1476  -18.6222  -51.7294 H         1 UNK         0.3000 
    226 H226       -1.5465  -16.5703  -52.3485 H         1 UNK         0.0600 
    227 H227       -3.1627  -16.0794  -50.5712 H         1 UNK         0.0600 
    228 H228       -3.2167  -14.7989  -51.7667 H         1 UNK         0.0600 
    229 H229       -4.4965  -16.0164  -51.7113 H         1 UNK         0.0600 
    230 H230       -4.4950  -15.4007  -53.6284 H         1 UNK         0.3000 
    231 H231       -3.3865  -14.6909  -56.1434 H         1 UNK         0.0600 
    232 H232       -5.7023  -13.8574  -56.5893 H         1 UNK         0.0600 
    233 H233       -5.1459  -13.3708  -54.9968 H         1 UNK         0.0600 
    234 H234       -6.2918  -14.7023  -55.1629 H         1 UNK         0.0600 
    235 H235       -4.9686  -17.6558  -55.1542 H         1 UNK         0.3000 
    236 H236       -6.0400  -18.4980  -57.6550 H         1 UNK         0.0600 
    237 H237       -4.9992  -20.2036  -55.3315 H         1 UNK         0.0600 
    238 H238       -6.6203  -19.5136  -55.4312 H         1 UNK         0.0600 
    239 H239       -6.1041  -20.7255  -56.5941 H         1 UNK         0.0600 
    240 H240       -2.7468  -18.3016  -56.5561 H         1 UNK         0.3000 
    241 H241       -1.6124  -20.1810  -58.4434 H         1 UNK         0.0600 
    242 H242       -2.9805  -17.0322  -59.0204 H         1 UNK         0.3800 
    243 H243       -2.0999  -16.7358  -60.4979 H         1 UNK         0.3800 
    244 H244       -0.2212  -17.9504  -56.8938 H         1 UNK         0.0800 
    245 H245        0.5660  -19.2795  -57.7174 H         1 UNK         0.0800 
    246 H246        1.8988  -19.8743  -55.2094 H         1 UNK         0.0800 
    247 H247        1.1004  -18.3489  -54.8920 H         1 UNK         0.0800 
@<TRIPOS>BOND
     1    1    2 1    
     2    1  127 1    
     3    1  128 1    
     4    1  129 1    
     5    2    3 2    
     6    2    4 am   BACKBONE|DICT|INTERRES
     7    4    5 1    
     8    4  130 1    
     9    5    6 1    
    10    5   65 1    
    11    5  131 1    
    12    6    7 1    
    13    6  132 1    
    14    6  133 1    
    15    7    8 1    
    16    8    9 1    
    17    8  134 1    
    18    8  135 1    
    19    9   10 ar   
    20    9   14 ar   
    21   10   11 ar   
    22   10  136 1    
    23   11   12 ar   
    24   11  126 1    
    25   12   13 ar   
    26   12  137 1    
    27   13   14 ar   
    28   13   15 1    
    29   14  138 1    
    30   15   16 1    
    31   15  139 1    
    32   15  140 1    
    33   16   17 1    
    34   17   18 1    
    35   17  141 1    
    36   17  142 1    
    37   18   19 1    
    38   18   67 1    
    39   18  143 1    
    40   19   20 am   BACKBONE|DICT|INTERRES
    41   19  144 1    
    42   20   21 2    
    43   20   22 1    
    44   22   23 1    
    45   22   24 1    
    46   22  145 1    
    47   23  146 1    
    48   23  147 1    
    49   23  148 1    
    50   24   25 am   BACKBONE|DICT|INTERRES
    51   24  149 1    
    52   25   26 2    
    53   25   27 1    
    54   27   28 1    
    55   27   29 1    
    56   27  150 1    
    57   28  151 1    
    58   28  152 1    
    59   28  153 1    
    60   29   30 am   BACKBONE|DICT|INTERRES
    61   29  154 1    
    62   30   31 2    
    63   30   32 1    
    64   32   33 1    
    65   32   34 1    
    66   32  155 1    
    67   33  156 1    
    68   33  157 1    
    69   33  158 1    
    70   34   35 am   BACKBONE|DICT|INTERRES
    71   34  159 1    
    72   35   36 2    
    73   35   37 1    
    74   37   38 1    
    75   37   39 1    
    76   37  160 1    
    77   38  161 1    
    78   38  162 1    
    79   38  163 1    
    80   39   40 am   BACKBONE|DICT|INTERRES
    81   39  164 1    
    82   40   41 2    
    83   40   42 1    
    84   42   43 1    
    85   42   44 1    
    86   42  165 1    
    87   43  166 1    
    88   43  167 1    
    89   43  168 1    
    90   44   45 am   BACKBONE|DICT|INTERRES
    91   44  169 1    
    92   45   46 2    
    93   45   47 1    
    94   47   48 1    
    95   47   49 1    
    96   47  170 1    
    97   48  171 1    
    98   48  172 1    
    99   48  173 1    
   100   49   50 am   BACKBONE|DICT|INTERRES
   101   49  174 1    
   102   50   51 2    
   103   50   52 1    
   104   52   53 1    
   105   52   54 1    
   106   52  175 1    
   107   53  176 1    
   108   53  177 1    
   109   53  178 1    
   110   54   55 am   BACKBONE|DICT|INTERRES
   111   54  179 1    
   112   55   56 2    
   113   55   57 1    
   114   57   58 1    
   115   57   59 1    
   116   57  180 1    
   117   58  181 1    
   118   58  182 1    
   119   58  183 1    
   120   59   60 am   BACKBONE|DICT|INTERRES
   121   59  184 1    
   122   60   61 2    
   123   60   62 1    
   124   62   63 1    
   125   62   64 1    
   126   62  185 1    
   127   63  186 1    
   128   63  187 1    
   129   63  188 1    
   130   64   65 am   BACKBONE|DICT|INTERRES
   131   64  189 1    
   132   65   66 2    
   133   67   68 2    
   134   67   69 am   BACKBONE|DICT|INTERRES
   135   69   70 1    
   136   69  190 1    
   137   70   71 1    
   138   70   72 1    
   139   70  191 1    
   140   71  192 1    
   141   71  193 1    
   142   71  194 1    
   143   72   73 2    
   144   72   74 am   BACKBONE|DICT|INTERRES
   145   74   75 1    
   146   74  195 1    
   147   75   76 1    
   148   75   77 1    
   149   75  196 1    
   150   76  197 1    
   151   76  198 1    
   152   76  199 1    
   153   77   78 2    
   154   77   79 am   BACKBONE|DICT|INTERRES
   155   79   80 1    
   156   79  200 1    
   157   80   81 1    
   158   80   82 1    
   159   80  201 1    
   160   81  202 1    
   161   81  203 1    
   162   81  204 1    
   163   82   83 2    
   164   82   84 am   BACKBONE|DICT|INTERRES
   165   84   85 1    
   166   84  205 1    
   167   85   86 1    
   168   85   87 1    
   169   85  206 1    
   170   86  207 1    
   171   86  208 1    
   172   86  209 1    
   173   87   88 2    
   174   87   89 am   BACKBONE|DICT|INTERRES
   175   89   90 1    
   176   89  210 1    
   177   90   91 1    
   178   90   92 1    
   179   90  211 1    
   180   91  212 1    
   181   91  213 1    
   182   91  214 1    
   183   92   93 2    
   184   92   94 am   BACKBONE|DICT|INTERRES
   185   94   95 1    
   186   94  215 1    
   187   95   96 1    
   188   95   97 1    
   189   95  216 1    
   190   96  217 1    
   191   96  218 1    
   192   96  219 1    
   193   97   98 2    
   194   97   99 am   BACKBONE|DICT|INTERRES
   195   99  100 1    
   196   99  220 1    
   197  100  101 1    
   198  100  102 1    
   199  100  221 1    
   200  101  222 1    
   201  101  223 1    
   202  101  224 1    
   203  102  103 2    
   204  102  104 am   BACKBONE|DICT|INTERRES
   205  104  105 1    
   206  104  225 1    
   207  105  106 1    
   208  105  107 1    
   209  105  226 1    
   210  106  227 1    
   211  106  228 1    
   212  106  229 1    
   213  107  108 2    
   214  107  109 am   BACKBONE|DICT|INTERRES
   215  109  110 1    
   216  109  230 1    
   217  110  111 1    
   218  110  112 1    
   219  110  231 1    
   220  111  232 1    
   221  111  233 1    
   222  111  234 1    
   223  112  113 2    
   224  112  114 am   BACKBONE|DICT|INTERRES
   225  114  115 1    
   226  114  235 1    
   227  115  116 1    
   228  115  117 1    
   229  115  236 1    
   230  116  237 1    
   231  116  238 1    
   232  116  239 1    
   233  117  118 2    
   234  117  119 am   BACKBONE|DICT|INTERRES
   235  119  120 1    
   236  119  240 1    
   237  120  121 1    
   238  120  124 1    
   239  120  241 1    
   240  121  122 am   BACKBONE|DICT|INTERRES
   241  121  123 2    
   242  122  242 1    
   243  122  243 1    
   244  124  125 1    
   245  124  244 1    
   246  124  245 1    
   247  125  126 1    
   248  126  246 1    
   249  126  247 1    
@<TRIPOS>SUBSTRUCTURE
     1 UNK         1 GROUP             0       ****    0 ROOT    
