@<TRIPOS>MOLECULE
3R540
247   249    1
SMALL
USER_CHARGES


@<TRIPOS>ATOM
      1 CA         -4.5903  -15.5919  -44.9419 C.3       0 UNK        -0.1800 
      2 C          -3.7749  -14.6102  -45.7715 C.2       0 UNK         0.5000 
      3 O          -4.3475  -13.7450  -46.4340 O.2       0 UNK        -0.5000 
      4 N          -2.4439  -14.7502  -45.7456 N.am      1 UNK        -0.5000 
      5 CA         -1.5081  -13.8850  -46.4659 C.3       1 UNK         0.1400 
      6 C6         -0.1168  -14.5490  -46.6372 C.3       23 UNK        -0.0398 
      7 S7          0.6403  -14.1220  -48.2413 S.3       23 UNK        -0.2404 
      8 C8          0.4715  -15.6808  -49.1707 C.3       23 UNK        -0.0205 
      9 C9         -0.9775  -16.0215  -49.4842 C.ar      23 UNK        -0.0193 
     10 C10        -1.5582  -15.6205  -50.6908 C.ar      23 UNK        -0.1150 
     11 C11        -2.8681  -15.9991  -51.0035 C.ar      23 UNK        -0.0193 
     12 C12        -3.6112  -16.7438  -50.0835 C.ar      23 UNK        -0.1150 
     13 C13        -3.0413  -17.1456  -48.8751 C.ar      23 UNK        -0.0193 
     14 C14        -1.7244  -16.7872  -48.5862 C.ar      23 UNK        -0.1150 
     15 C15        -3.8300  -18.0029  -47.9004 C.3       23 UNK        -0.0205 
     16 S16        -3.6445  -19.7696  -48.2835 S.3       23 UNK        -0.2404 
     17 C17        -1.8650  -20.0246  -47.9275 C.3       23 UNK        -0.0398 
     18 CA         -1.3474  -21.4818  -47.7666 C.3       11 UNK         0.1400 
     19 N          -0.1134  -21.5153  -46.9773 N.am      11 UNK        -0.5000 
     20 C           0.6826  -22.5822  -46.8222 C.2       10 UNK         0.5000 
     21 O           0.5184  -23.6524  -47.4056 O.2       10 UNK        -0.5000 
     22 CA          1.8291  -22.4446  -45.8026 C.3       10 UNK         0.1400 
     23 CB          3.0515  -21.7730  -46.4452 C.3       10 UNK        -0.1800 
     24 N           1.4347  -21.7077  -44.5988 N.am      10 UNK        -0.5000 
     25 C           0.4839  -22.1093  -43.7420 C.2       9 UNK         0.5000 
     26 O          -0.1300  -23.1689  -43.8540 O.2       9 UNK        -0.5000 
     27 CA          0.1182  -21.1494  -42.5963 C.3       9 UNK         0.1400 
     28 CB          1.1200  -21.2691  -41.4385 C.3       9 UNK        -0.1800 
     29 N           0.0284  -19.7561  -43.0323 N.am      9 UNK        -0.5000 
     30 C          -0.8587  -19.2896  -43.9224 C.2       8 UNK         0.5000 
     31 O          -1.7279  -19.9824  -44.4519 O.2       8 UNK        -0.5000 
     32 CA         -0.7115  -17.8117  -44.3317 C.3       8 UNK         0.1400 
     33 CB         -1.2861  -16.8792  -43.2537 C.3       8 UNK        -0.1800 
     34 N           0.6814  -17.4517  -44.6052 N.am      8 UNK        -0.5000 
     35 C           1.4195  -17.9763  -45.5956 C.2       7 UNK         0.5000 
     36 O           0.9678  -18.7429  -46.4462 O.2       7 UNK        -0.5000 
     37 CA          2.9200  -17.6287  -45.6037 C.3       7 UNK         0.1400 
     38 CB          3.1986  -16.3203  -46.3581 C.3       7 UNK        -0.1800 
     39 N           3.4621  -17.5308  -44.2492 N.am      7 UNK        -0.5000 
     40 C           3.6714  -18.5816  -43.4439 C.2       6 UNK         0.5000 
     41 O           3.4607  -19.7475  -43.7754 O.2       6 UNK        -0.5000 
     42 CA          4.1512  -18.2696  -42.0142 C.3       6 UNK         0.1400 
     43 CB          5.6762  -18.0904  -41.9823 C.3       6 UNK        -0.1800 
     44 N           3.5109  -17.0754  -41.4595 N.am      6 UNK        -0.5000 
     45 C           2.2019  -16.9756  -41.1865 C.2       5 UNK         0.5000 
     46 O           1.4109  -17.9085  -41.3126 O.2       5 UNK        -0.5000 
     47 CA          1.6808  -15.5918  -40.7526 C.3       5 UNK         0.1400 
     48 CB          1.7001  -15.4647  -39.2225 C.3       5 UNK        -0.1800 
     49 N           2.4421  -14.4872  -41.3422 N.am      5 UNK        -0.5000 
     50 C           2.4774  -14.2014  -42.6499 C.2       4 UNK         0.5000 
     51 O           1.8320  -14.8121  -43.5071 O.2       4 UNK        -0.5000 
     52 CA          3.4701  -13.1122  -43.0704 C.3       4 UNK         0.1400 
     53 CB          4.8807  -13.7252  -43.1984 C.3       4 UNK        -0.1800 
     54 N           3.0518  -12.5303  -44.3423 N.am      4 UNK        -0.5000 
     55 C           3.5741  -11.4267  -44.8917 C.2       3 UNK         0.5000 
     56 O           4.4390  -10.7346  -44.3526 O.2       3 UNK        -0.5000 
     57 CA          3.0505  -11.0292  -46.2823 C.3       3 UNK         0.1400 
     58 CB          3.6077  -11.9738  -47.3596 C.3       3 UNK        -0.1800 
     59 N           1.5905  -10.9997  -46.3674 N.am      3 UNK        -0.5000 
     60 C           0.8040  -10.0957  -45.7617 C.2       2 UNK         0.5000 
     61 O           1.2271   -9.2175  -45.0094 O.2       2 UNK        -0.5000 
     62 CA         -0.7072  -10.1590  -46.0676 C.3       2 UNK         0.1400 
     63 CB         -1.0858   -9.1011  -47.1159 C.3       2 UNK        -0.1800 
     64 N          -1.1199  -11.4753  -46.5555 N.am      2 UNK        -0.5000 
     65 C          -1.3537  -12.5251  -45.7608 C.2       1 UNK         0.5000 
     66 O          -1.3714  -12.4649  -44.5290 O.2       1 UNK        -0.5000 
     67 C          -2.3886  -22.4694  -47.1991 C.2       11 UNK         0.5000 
     68 O          -2.8922  -23.3116  -47.9442 O.2       11 UNK        -0.5000 
     69 N          -2.6634  -22.3679  -45.8907 N.am      12 UNK        -0.5000 
     70 CA         -3.6227  -23.2069  -45.1691 C.3       12 UNK         0.1400 
     71 CB         -3.7736  -22.6814  -43.7341 C.3       12 UNK        -0.1800 
     72 C          -3.2586  -24.7044  -45.1675 C.2       12 UNK         0.5000 
     73 O          -4.1550  -25.5453  -45.2348 O.2       12 UNK        -0.5000 
     74 N          -1.9549  -25.0082  -45.1125 N.am      13 UNK        -0.5000 
     75 CA         -1.4013  -26.3588  -45.2218 C.3       13 UNK         0.1400 
     76 CB          0.0564  -26.3405  -44.7360 C.3       13 UNK        -0.1800 
     77 C          -1.4850  -26.9434  -46.6468 C.2       13 UNK         0.5000 
     78 O          -1.4288  -28.1652  -46.7968 O.2       13 UNK        -0.5000 
     79 N          -1.6074  -26.0743  -47.6579 N.am      14 UNK        -0.5000 
     80 CA         -1.7986  -26.4227  -49.0615 C.3       14 UNK         0.1400 
     81 CB         -0.9961  -25.4336  -49.9322 C.3       14 UNK        -0.1800 
     82 C          -3.3070  -26.4691  -49.3858 C.2       14 UNK         0.5000 
     83 O          -4.0748  -27.0818  -48.6414 O.2       14 UNK        -0.5000 
     84 N          -3.7139  -25.8488  -50.5007 N.am      15 UNK        -0.5000 
     85 CA         -5.0940  -25.8390  -50.9906 C.3       15 UNK         0.1400 
     86 CB         -5.0772  -25.5219  -52.4954 C.3       15 UNK        -0.1800 
     87 C          -6.0283  -24.8717  -50.2331 C.2       15 UNK         0.5000 
     88 O          -7.2433  -24.9677  -50.4057 O.2       15 UNK        -0.5000 
     89 N          -5.4604  -23.9486  -49.4394 N.am      16 UNK        -0.5000 
     90 CA         -6.1246  -22.8981  -48.6513 C.3       16 UNK         0.1400 
     91 CB         -7.0353  -23.5161  -47.5711 C.3       16 UNK        -0.1800 
     92 C          -6.8514  -21.8087  -49.4745 C.2       16 UNK         0.5000 
     93 O          -7.4660  -20.9198  -48.8832 O.2       16 UNK        -0.5000 
     94 N          -6.7532  -21.8663  -50.8065 N.am      17 UNK        -0.5000 
     95 CA         -7.3110  -20.9290  -51.7726 C.3       17 UNK         0.1400 
     96 CB         -8.8417  -21.0893  -51.8528 C.3       17 UNK        -0.1800 
     97 C          -6.6648  -21.2030  -53.1390 C.2       17 UNK         0.5000 
     98 O          -6.1263  -22.2939  -53.3499 O.2       17 UNK        -0.5000 
     99 N          -6.7595  -20.2142  -54.0391 N.am      18 UNK        -0.5000 
    100 CA        -6.2410  -20.1996  -55.4137 C.3       18 UNK         0.1400 
    101 CB        -6.8874  -21.3238  -56.2529 C.3       18 UNK        -0.1800 
    102 C         -4.6997  -20.2312  -55.4947 C.2       18 UNK         0.5000 
    103 O         -4.0139  -20.2624  -54.4707 O.2       18 UNK        -0.5000 
    104 N         -4.1707  -20.2174  -56.7271 N.am      19 UNK        -0.5000 
    105 CA        -2.7369  -20.1803  -57.0453 C.3       19 UNK         0.1400 
    106 CB        -2.5614  -20.1657  -58.5710 C.3       19 UNK        -0.1800 
    107 C         -1.9125  -21.3233  -56.4206 C.2       19 UNK         0.5000 
    108 O         -0.7412  -21.1210  -56.0986 O.2       19 UNK        -0.5000 
    109 N         -2.5564  -22.4799  -56.2122 N.am      20 UNK        -0.5000 
    110 CA        -2.0093  -23.6434  -55.5140 C.3       20 UNK         0.1400 
    111 CB        -3.0100  -24.8034  -55.6315 C.3       20 UNK        -0.1800 
    112 C         -1.6655  -23.3798  -54.0333 C.2       20 UNK         0.5000 
    113 O         -0.8021  -24.0704  -53.4912 O.2       20 UNK        -0.5000 
    114 N         -2.3340  -22.3996  -53.4112 N.am      21 UNK        -0.5000 
    115 CA        -2.0733  -21.9566  -52.0454 C.3       21 UNK         0.1400 
    116 CB        -3.4044  -21.8409  -51.2983 C.3       21 UNK        -0.1800 
    117 C         -1.3211  -20.6168  -52.0259 C.2       21 UNK         0.5000 
    118 O         -0.4239  -20.4547  -51.1987 O.2       21 UNK        -0.5000 
    119 N         -1.6819  -19.6898  -52.9271 N.am      22 UNK        -0.5000 
    120 CA        -1.0415  -18.3682  -53.0444 C.3       22 UNK         0.1400 
    121 C          0.4354  -18.4108  -53.5321 C.2       22 UNK         0.5000 
    122 N          0.8438  -19.3898  -54.3310 N.am      22 UNK        -0.7600 
    123 O          1.2231  -17.5367  -53.1816 O.2       22 UNK        -0.5000 
    124 C124       -1.8471  -17.3693  -53.9188 C.3       23 UNK        -0.0398 
    125 S125       -3.5856  -17.1272  -53.4152 S.3       23 UNK        -0.2404 
    126 C126       -3.4757  -15.6520  -52.3515 C.3       23 UNK        -0.0205 
    127 H127       -4.0281  -16.4992  -44.7239 H         1 UNK         0.0600 
    128 H128       -5.4926  -15.8822  -45.4808 H         1 UNK         0.0600 
    129 H129       -4.8873  -15.1325  -43.9991 H         1 UNK         0.0600 
    130 H130       -2.0300  -15.4235  -45.1208 H         1 UNK         0.3000 
    131 H131       -1.9410  -13.7135  -47.4547 H         1 UNK         0.0600 
    132 H132        0.5711  -14.2718  -45.8368 H         1 UNK         0.0800 
    133 H133       -0.1871  -15.6302  -46.5641 H         1 UNK         0.0800 
    134 H134        1.0389  -15.5980  -50.0989 H         1 UNK         0.0800 
    135 H135        0.9287  -16.4984  -48.6126 H         1 UNK         0.0800 
    136 H136       -0.9775  -15.0487  -51.4010 H         1 UNK         0.1150 
    137 H137       -4.6203  -17.0451  -50.3273 H         1 UNK         0.1150 
    138 H138       -1.2739  -17.1352  -47.6699 H         1 UNK         0.1150 
    139 H139       -3.5097  -17.8143  -46.8750 H         1 UNK         0.0800 
    140 H140       -4.8876  -17.7388  -47.9448 H         1 UNK         0.0800 
    141 H141       -1.6532  -19.4655  -47.0173 H         1 UNK         0.0800 
    142 H142       -1.2855  -19.5356  -48.7112 H         1 UNK         0.0800 
    143 H143       -1.0961  -21.8450  -48.7654 H         1 UNK         0.0600 
    144 H144        0.1356  -20.6590  -46.4948 H         1 UNK         0.3000 
    145 H145        2.1189  -23.4509  -45.4935 H         1 UNK         0.0600 
    146 H146        3.8901  -21.7313  -45.7499 H         1 UNK         0.0600 
    147 H147        3.3841  -22.3277  -47.3233 H         1 UNK         0.0600 
    148 H148        2.8300  -20.7550  -46.7652 H         1 UNK         0.0600 
    149 H149        1.9448  -20.8529  -44.3989 H         1 UNK         0.3000 
    150 H150       -0.8650  -21.4413  -42.2220 H         1 UNK         0.0600 
    151 H151        1.1782  -22.2968  -41.0779 H         1 UNK         0.0600 
    152 H152        0.8238  -20.6446  -40.5955 H         1 UNK         0.0600 
    153 H153        2.1236  -20.9694  -41.7395 H         1 UNK         0.0600 
    154 H154        0.6718  -19.1023  -42.5945 H         1 UNK         0.3000 
    155 H155       -1.2813  -17.6621  -45.2503 H         1 UNK         0.0600 
    156 H156       -1.1229  -15.8294  -43.4970 H         1 UNK         0.0600 
    157 H157       -2.3588  -17.0334  -43.1375 H         1 UNK         0.0600 
    158 H158       -0.8364  -17.0610  -42.2790 H         1 UNK         0.0600 
    159 H159        1.1216  -16.7954  -43.9713 H         1 UNK         0.3000 
    160 H160        3.4448  -18.4325  -46.1242 H         1 UNK         0.0600 
    161 H161        2.6717  -15.4739  -45.9203 H         1 UNK         0.0600 
    162 H162        2.8918  -16.3984  -47.4003 H         1 UNK         0.0600 
    163 H163        4.2628  -16.0844  -46.3565 H         1 UNK         0.0600 
    164 H164        3.6153  -16.6018  -43.8877 H         1 UNK         0.3000 
    165 H165        3.8921  -19.1209  -41.3812 H         1 UNK         0.0600 
    166 H166        6.0342  -17.9421  -40.9634 H         1 UNK         0.0600 
    167 H167        6.1806  -18.9733  -42.3774 H         1 UNK         0.0600 
    168 H168        5.9958  -17.2349  -42.5788 H         1 UNK         0.0600 
    169 H169        4.0974  -16.2681  -41.3118 H         1 UNK         0.3000 
    170 H170        0.6460  -15.5058  -41.0898 H         1 UNK         0.0600 
    171 H171        1.2649  -14.5187  -38.8998 H         1 UNK         0.0600 
    172 H172        2.7143  -15.5217  -38.8251 H         1 UNK         0.0600 
    173 H173        1.1198  -16.2630  -38.7577 H         1 UNK         0.0600 
    174 H174        3.0059  -13.9422  -40.7055 H         1 UNK         0.3000 
    175 H175        3.4728  -12.3301  -42.3084 H         1 UNK         0.0600 
    176 H176        5.1893  -14.2092  -42.2712 H         1 UNK         0.0600 
    177 H177        4.9215  -14.4742  -43.9904 H         1 UNK         0.0600 
    178 H178        5.6309  -12.9668  -43.4211 H         1 UNK         0.0600 
    179 H179        2.3166  -13.0374  -44.8156 H         1 UNK         0.3000 
    180 H180        3.4167  -10.0234  -46.4993 H         1 UNK         0.0600 
    181 H181        3.2859  -13.0040  -47.2033 H         1 UNK         0.0600 
    182 H182        4.6984  -11.9695  -47.3537 H         1 UNK         0.0600 
    183 H183        3.2878  -11.6703  -48.3565 H         1 UNK         0.0600 
    184 H184        1.1611  -11.6804  -46.9759 H         1 UNK         0.3000 
    185 H185       -1.2444   -9.9301  -45.1446 H         1 UNK         0.0600 
    186 H186       -0.8174   -8.1002  -46.7753 H         1 UNK         0.0600 
    187 H187       -0.5761   -9.2724  -48.0649 H         1 UNK         0.0600 
    188 H188       -2.1593   -9.1011  -47.3059 H         1 UNK         0.0600 
    189 H189       -1.1311  -11.6018  -47.5579 H         1 UNK         0.3000 
    190 H190       -2.2190  -21.6267  -45.3553 H         1 UNK         0.3000 
    191 H191       -4.5867  -23.1047  -45.6708 H         1 UNK         0.0600 
    192 H192       -2.8334  -22.7388  -43.1852 H         1 UNK         0.0600 
    193 H193       -4.5139  -23.2609  -43.1812 H         1 UNK         0.0600 
    194 H194       -4.1016  -21.6417  -43.7273 H         1 UNK         0.0600 
    195 H195       -1.2877  -24.2561  -44.9638 H         1 UNK         0.3000 
    196 H196       -1.9720  -27.0165  -44.5630 H         1 UNK         0.0600 
    197 H197        0.4979  -27.3368  -44.7805 H         1 UNK         0.0600 
    198 H198        0.1234  -26.0013  -43.7022 H         1 UNK         0.0600 
    199 H199        0.6728  -25.6792  -45.3461 H         1 UNK         0.0600 
    200 H200       -1.6836  -25.0890  -47.4378 H         1 UNK         0.3000 
    201 H201       -1.4030  -27.4224  -49.2504 H         1 UNK         0.0600 
    202 H202        0.0572  -25.4379  -49.6510 H         1 UNK         0.0600 
    203 H203       -1.3555  -24.4105  -49.8237 H         1 UNK         0.0600 
    204 H204       -1.0408  -25.6985  -50.9893 H         1 UNK         0.0600 
    205 H205       -3.0278  -25.3708  -51.0661 H         1 UNK         0.3000 
    206 H206       -5.5108  -26.8410  -50.8682 H         1 UNK         0.0600 
    207 H207       -4.5243  -26.2798  -53.0505 H         1 UNK         0.0600 
    208 H208       -6.0880  -25.4960  -52.9048 H         1 UNK         0.0600 
    209 H209       -4.6181  -24.5564  -52.7043 H         1 UNK         0.0600 
    210 H210       -4.4531  -23.9725  -49.3300 H         1 UNK         0.3000 
    211 H211       -5.3264  -22.3715  -48.1297 H         1 UNK         0.0600 
    212 H212       -7.9129  -23.9953  -48.0052 H         1 UNK         0.0600 
    213 H213       -7.3908  -22.7542  -46.8767 H         1 UNK         0.0600 
    214 H214       -6.4993  -24.2630  -46.9849 H         1 UNK         0.0600 
    215 H215       -6.2284  -22.6190  -51.2334 H         1 UNK         0.3000 
    216 H216       -7.0573  -19.9130  -51.4637 H         1 UNK         0.0600 
    217 H217       -9.1213  -22.1076  -52.1259 H         1 UNK         0.0600 
    218 H218       -9.2700  -20.4194  -52.5991 H         1 UNK         0.0600 
    219 H219       -9.3200  -20.8557  -50.9018 H         1 UNK         0.0600 
    220 H220       -7.1963  -19.3523  -53.7452 H         1 UNK         0.3000 
    221 H221       -6.5514  -19.2435  -55.8375 H         1 UNK         0.0600 
    222 H222       -7.9710  -21.3295  -56.1341 H         1 UNK         0.0600 
    223 H223       -6.5163  -22.3092  -55.9696 H         1 UNK         0.0600 
    224 H224       -6.6859  -21.1942  -57.3165 H         1 UNK         0.0600 
    225 H225       -4.7970  -20.1915  -57.5185 H         1 UNK         0.3000 
    226 H226       -2.3403  -19.2442  -56.6506 H         1 UNK         0.0600 
    227 H227       -3.0516  -19.3002  -59.0171 H         1 UNK         0.0600 
    228 H228       -1.5061  -20.1145  -58.8428 H         1 UNK         0.0600 
    229 H229       -2.9761  -21.0629  -59.0321 H         1 UNK         0.0600 
    230 H230       -3.5216  -22.5412  -56.5003 H         1 UNK         0.3000 
    231 H231       -1.0847  -23.9322  -56.0177 H         1 UNK         0.0600 
    232 H232       -3.9748  -24.5465  -55.1921 H         1 UNK         0.0600 
    233 H233       -2.6419  -25.6935  -55.1195 H         1 UNK         0.0600 
    234 H234       -3.1778  -25.0757  -56.6736 H         1 UNK         0.0600 
    235 H235       -3.0196  -21.8593  -53.9300 H         1 UNK         0.3000 
    236 H236       -1.4608  -22.6917  -51.5204 H         1 UNK         0.0600 
    237 H237       -3.9820  -20.9740  -51.6217 H         1 UNK         0.0600 
    238 H238       -4.0159  -22.7261  -51.4513 H         1 UNK         0.0600 
    239 H239       -3.2346  -21.7508  -50.2286 H         1 UNK         0.0600 
    240 H240       -2.4778  -19.8654  -53.5351 H         1 UNK         0.3000 
    241 H241       -1.0082  -17.9597  -52.0341 H         1 UNK         0.0600 
    242 H242        1.8039  -19.4052  -54.6352 H         1 UNK         0.3800 
    243 H243        0.1982  -20.0824  -54.6961 H         1 UNK         0.3800 
    244 H244       -1.8545  -17.7079  -54.9548 H         1 UNK         0.0800 
    245 H245       -1.3548  -16.3953  -53.9312 H         1 UNK         0.0800 
    246 H246       -2.9056  -14.8689  -52.8535 H         1 UNK         0.0800 
    247 H247       -4.4787  -15.2510  -52.1993 H         1 UNK         0.0800 
@<TRIPOS>BOND
     1    1    2 1    
     2    1  127 1    
     3    1  128 1    
     4    1  129 1    
     5    2    3 2    
     6    2    4 am   BACKBONE|DICT|INTERRES
     7    4    5 1    
     8    4  130 1    
     9    5    6 1    
    10    5   65 1    
    11    5  131 1    
    12    6    7 1    
    13    6  132 1    
    14    6  133 1    
    15    7    8 1    
    16    8    9 1    
    17    8  134 1    
    18    8  135 1    
    19    9   10 ar   
    20    9   14 ar   
    21   10   11 ar   
    22   10  136 1    
    23   11   12 ar   
    24   11  126 1    
    25   12   13 ar   
    26   12  137 1    
    27   13   14 ar   
    28   13   15 1    
    29   14  138 1    
    30   15   16 1    
    31   15  139 1    
    32   15  140 1    
    33   16   17 1    
    34   17   18 1    
    35   17  141 1    
    36   17  142 1    
    37   18   19 1    
    38   18   67 1    
    39   18  143 1    
    40   19   20 am   BACKBONE|DICT|INTERRES
    41   19  144 1    
    42   20   21 2    
    43   20   22 1    
    44   22   23 1    
    45   22   24 1    
    46   22  145 1    
    47   23  146 1    
    48   23  147 1    
    49   23  148 1    
    50   24   25 am   BACKBONE|DICT|INTERRES
    51   24  149 1    
    52   25   26 2    
    53   25   27 1    
    54   27   28 1    
    55   27   29 1    
    56   27  150 1    
    57   28  151 1    
    58   28  152 1    
    59   28  153 1    
    60   29   30 am   BACKBONE|DICT|INTERRES
    61   29  154 1    
    62   30   31 2    
    63   30   32 1    
    64   32   33 1    
    65   32   34 1    
    66   32  155 1    
    67   33  156 1    
    68   33  157 1    
    69   33  158 1    
    70   34   35 am   BACKBONE|DICT|INTERRES
    71   34  159 1    
    72   35   36 2    
    73   35   37 1    
    74   37   38 1    
    75   37   39 1    
    76   37  160 1    
    77   38  161 1    
    78   38  162 1    
    79   38  163 1    
    80   39   40 am   BACKBONE|DICT|INTERRES
    81   39  164 1    
    82   40   41 2    
    83   40   42 1    
    84   42   43 1    
    85   42   44 1    
    86   42  165 1    
    87   43  166 1    
    88   43  167 1    
    89   43  168 1    
    90   44   45 am   BACKBONE|DICT|INTERRES
    91   44  169 1    
    92   45   46 2    
    93   45   47 1    
    94   47   48 1    
    95   47   49 1    
    96   47  170 1    
    97   48  171 1    
    98   48  172 1    
    99   48  173 1    
   100   49   50 am   BACKBONE|DICT|INTERRES
   101   49  174 1    
   102   50   51 2    
   103   50   52 1    
   104   52   53 1    
   105   52   54 1    
   106   52  175 1    
   107   53  176 1    
   108   53  177 1    
   109   53  178 1    
   110   54   55 am   BACKBONE|DICT|INTERRES
   111   54  179 1    
   112   55   56 2    
   113   55   57 1    
   114   57   58 1    
   115   57   59 1    
   116   57  180 1    
   117   58  181 1    
   118   58  182 1    
   119   58  183 1    
   120   59   60 am   BACKBONE|DICT|INTERRES
   121   59  184 1    
   122   60   61 2    
   123   60   62 1    
   124   62   63 1    
   125   62   64 1    
   126   62  185 1    
   127   63  186 1    
   128   63  187 1    
   129   63  188 1    
   130   64   65 am   BACKBONE|DICT|INTERRES
   131   64  189 1    
   132   65   66 2    
   133   67   68 2    
   134   67   69 am   BACKBONE|DICT|INTERRES
   135   69   70 1    
   136   69  190 1    
   137   70   71 1    
   138   70   72 1    
   139   70  191 1    
   140   71  192 1    
   141   71  193 1    
   142   71  194 1    
   143   72   73 2    
   144   72   74 am   BACKBONE|DICT|INTERRES
   145   74   75 1    
   146   74  195 1    
   147   75   76 1    
   148   75   77 1    
   149   75  196 1    
   150   76  197 1    
   151   76  198 1    
   152   76  199 1    
   153   77   78 2    
   154   77   79 am   BACKBONE|DICT|INTERRES
   155   79   80 1    
   156   79  200 1    
   157   80   81 1    
   158   80   82 1    
   159   80  201 1    
   160   81  202 1    
   161   81  203 1    
   162   81  204 1    
   163   82   83 2    
   164   82   84 am   BACKBONE|DICT|INTERRES
   165   84   85 1    
   166   84  205 1    
   167   85   86 1    
   168   85   87 1    
   169   85  206 1    
   170   86  207 1    
   171   86  208 1    
   172   86  209 1    
   173   87   88 2    
   174   87   89 am   BACKBONE|DICT|INTERRES
   175   89   90 1    
   176   89  210 1    
   177   90   91 1    
   178   90   92 1    
   179   90  211 1    
   180   91  212 1    
   181   91  213 1    
   182   91  214 1    
   183   92   93 2    
   184   92   94 am   BACKBONE|DICT|INTERRES
   185   94   95 1    
   186   94  215 1    
   187   95   96 1    
   188   95   97 1    
   189   95  216 1    
   190   96  217 1    
   191   96  218 1    
   192   96  219 1    
   193   97   98 2    
   194   97   99 am   BACKBONE|DICT|INTERRES
   195   99  100 1    
   196   99  220 1    
   197  100  101 1    
   198  100  102 1    
   199  100  221 1    
   200  101  222 1    
   201  101  223 1    
   202  101  224 1    
   203  102  103 2    
   204  102  104 am   BACKBONE|DICT|INTERRES
   205  104  105 1    
   206  104  225 1    
   207  105  106 1    
   208  105  107 1    
   209  105  226 1    
   210  106  227 1    
   211  106  228 1    
   212  106  229 1    
   213  107  108 2    
   214  107  109 am   BACKBONE|DICT|INTERRES
   215  109  110 1    
   216  109  230 1    
   217  110  111 1    
   218  110  112 1    
   219  110  231 1    
   220  111  232 1    
   221  111  233 1    
   222  111  234 1    
   223  112  113 2    
   224  112  114 am   BACKBONE|DICT|INTERRES
   225  114  115 1    
   226  114  235 1    
   227  115  116 1    
   228  115  117 1    
   229  115  236 1    
   230  116  237 1    
   231  116  238 1    
   232  116  239 1    
   233  117  118 2    
   234  117  119 am   BACKBONE|DICT|INTERRES
   235  119  120 1    
   236  119  240 1    
   237  120  121 1    
   238  120  124 1    
   239  120  241 1    
   240  121  122 am   BACKBONE|DICT|INTERRES
   241  121  123 2    
   242  122  242 1    
   243  122  243 1    
   244  124  125 1    
   245  124  244 1    
   246  124  245 1    
   247  125  126 1    
   248  126  246 1    
   249  126  247 1    
@<TRIPOS>SUBSTRUCTURE
     1 UNK         1 GROUP             0       ****    0 ROOT    
