@<TRIPOS>MOLECULE
3R540
247   249    1
SMALL
USER_CHARGES


@<TRIPOS>ATOM
      1 CA          4.1849  -11.4646  -49.8168 C.3       0 UNK        -0.1800 
      2 C           2.8942  -11.1043  -50.5518 C.2       0 UNK         0.5000 
      3 O           2.8875  -10.1460  -51.3216 O.2       0 UNK        -0.5000 
      4 N           1.7820  -11.8285  -50.3563 N.am      1 UNK        -0.5000 
      5 CA          1.6145  -12.9812  -49.4576 C.3       1 UNK         0.1400 
      6 C6          0.3263  -13.7818  -49.7630 C.3       23 UNK        -0.0398 
      7 S7          0.2225  -14.3649  -51.4899 S.3       23 UNK        -0.2404 
      8 C8          0.9761  -16.0231  -51.3580 C.3       23 UNK        -0.0205 
      9 C9          0.1033  -17.1264  -50.7534 C.ar      23 UNK        -0.0193 
     10 C10        -1.1030  -16.8791  -50.0819 C.ar      23 UNK        -0.1150 
     11 C11        -1.8432  -17.9280  -49.5315 C.ar      23 UNK        -0.0193 
     12 C12        -1.3857  -19.2396  -49.6695 C.ar      23 UNK        -0.1150 
     13 C13        -0.1942  -19.5065  -50.3474 C.ar      23 UNK        -0.0193 
     14 C14         0.5432  -18.4474  -50.8812 C.ar      23 UNK        -0.1150 
     15 C15         0.2974  -20.9373  -50.5058 C.3       23 UNK        -0.0205 
     16 S16         1.7757  -21.2876  -49.4964 S.3       23 UNK        -0.2404 
     17 C17         1.1865  -20.9712  -47.7968 C.3       23 UNK        -0.0398 
     18 CA          0.7137  -22.2461  -47.0605 C.3       11 UNK         0.1400 
     19 N           0.6818  -22.0534  -45.6100 N.am      11 UNK        -0.5000 
     20 C           0.4531  -23.0224  -44.7128 C.2       10 UNK         0.5000 
     21 O           0.3072  -24.2082  -45.0068 O.2       10 UNK        -0.5000 
     22 CA          0.3089  -22.5862  -43.2451 C.3       10 UNK         0.1400 
     23 CB          1.6872  -22.4054  -42.5928 C.3       10 UNK        -0.1800 
     24 N          -0.4794  -21.3607  -43.1002 N.am      10 UNK        -0.5000 
     25 C          -1.7722  -21.2496  -43.4398 C.2       9 UNK         0.5000 
     26 O          -2.4464  -22.1865  -43.8660 O.2       9 UNK        -0.5000 
     27 CA         -2.4123  -19.8547  -43.3259 C.3       9 UNK         0.1400 
     28 CB         -2.7984  -19.5500  -41.8712 C.3       9 UNK        -0.1800 
     29 N          -1.5542  -18.7893  -43.8462 N.am      9 UNK        -0.5000 
     30 C          -1.1633  -18.6822  -45.1248 C.2       8 UNK         0.5000 
     31 O          -1.5129  -19.4591  -46.0134 O.2       8 UNK        -0.5000 
     32 CA         -0.1664  -17.5543  -45.4542 C.3       8 UNK         0.1400 
     33 CB         -0.8766  -16.1986  -45.5822 C.3       8 UNK        -0.1800 
     34 N           0.9062  -17.4543  -44.4634 N.am      8 UNK        -0.5000 
     35 C           1.8003  -18.4238  -44.2213 C.2       7 UNK         0.5000 
     36 O           1.8464  -19.4855  -44.8423 O.2       7 UNK        -0.5000 
     37 CA          2.7686  -18.1917  -43.0506 C.3       7 UNK         0.1400 
     38 CB          3.9246  -17.2681  -43.4639 C.3       7 UNK        -0.1800 
     39 N           2.0835  -17.6479  -41.8772 N.am      7 UNK        -0.5000 
     40 C           1.2036  -18.3370  -41.1354 C.2       6 UNK         0.5000 
     41 O           0.8999  -19.5090  -41.3501 O.2       6 UNK        -0.5000 
     42 CA          0.5187  -17.5829  -39.9819 C.3       6 UNK         0.1400 
     43 CB          1.3955  -17.6127  -38.7213 C.3       6 UNK        -0.1800 
     44 N           0.2050  -16.1958  -40.3207 N.am      6 UNK        -0.5000 
     45 C          -0.6691  -15.8183  -41.2647 C.2       5 UNK         0.5000 
     46 O          -1.3353  -16.6033  -41.9380 O.2       5 UNK        -0.5000 
     47 CA         -0.7652  -14.3067  -41.5381 C.3       5 UNK         0.1400 
     48 CB         -1.7624  -13.6426  -40.5773 C.3       5 UNK        -0.1800 
     49 N           0.5349  -13.6365  -41.4369 N.am      5 UNK        -0.5000 
     50 C           1.5629  -13.8764  -42.2597 C.2       4 UNK         0.5000 
     51 O           1.5163  -14.6777  -43.1979 O.2       4 UNK        -0.5000 
     52 CA          2.8699  -13.1308  -41.9707 C.3       4 UNK         0.1400 
     53 CB          3.8285  -14.0051  -41.1417 C.3       4 UNK        -0.1800 
     54 N           3.4569  -12.7843  -43.2559 N.am      4 UNK        -0.5000 
     55 C           4.4250  -11.8888  -43.4795 C.2       3 UNK         0.5000 
     56 O           5.0461  -11.3034  -42.5917 O.2       3 UNK        -0.5000 
     57 CA          4.6993  -11.5556  -44.9579 C.3       3 UNK         0.1400 
     58 CB          5.6242  -12.6033  -45.5962 C.3       3 UNK        -0.1800 
     59 N           3.4519  -11.4843  -45.7202 N.am      3 UNK        -0.5000 
     60 C           2.5429  -10.5071  -45.6137 C.2       2 UNK         0.5000 
     61 O           2.7363   -9.4771  -44.9655 O.2       2 UNK        -0.5000 
     62 CA          1.1919  -10.7264  -46.3348 C.3       2 UNK         0.1400 
     63 CB          0.3620   -9.4340  -46.4403 C.3       2 UNK        -0.1800 
     64 N           1.3143  -11.3094  -47.6739 N.am      2 UNK        -0.5000 
     65 C           1.6145  -12.5821  -47.9673 C.2       1 UNK         0.5000 
     66 O           1.8989  -13.4244  -47.1158 O.2       1 UNK        -0.5000 
     67 C          -0.6441  -22.7489  -47.5918 C.2       11 UNK         0.5000 
     68 O          -0.6754  -23.7344  -48.3282 O.2       11 UNK        -0.5000 
     69 N          -1.7419  -22.0982  -47.1778 N.am      12 UNK        -0.5000 
     70 CA         -3.1102  -22.4848  -47.5260 C.3       12 UNK         0.1400 
     71 CB         -4.1003  -21.4320  -47.0101 C.3       12 UNK        -0.1800 
     72 C          -3.4901  -23.8895  -47.0270 C.2       12 UNK         0.5000 
     73 O          -4.1329  -24.6341  -47.7652 O.2       12 UNK        -0.5000 
     74 N          -3.0583  -24.2399  -45.8080 N.am      13 UNK        -0.5000 
     75 CA         -3.2264  -25.5682  -45.2208 C.3       13 UNK         0.1400 
     76 CB         -2.8398  -25.5312  -43.7346 C.3       13 UNK        -0.1800 
     77 C          -2.4293  -26.6507  -45.9716 C.2       13 UNK         0.5000 
     78 O          -2.9789  -27.7155  -46.2535 O.2       13 UNK        -0.5000 
     79 N          -1.1660  -26.3527  -46.3085 N.am      14 UNK        -0.5000 
     80 CA         -0.2716  -27.2362  -47.0610 C.3       14 UNK         0.1400 
     81 CB          1.1531  -26.6617  -47.0436 C.3       14 UNK        -0.1800 
     82 C          -0.7422  -27.4787  -48.5070 C.2       14 UNK         0.5000 
     83 O          -0.6789  -28.6112  -48.9867 O.2       14 UNK        -0.5000 
     84 N          -1.2298  -26.4184  -49.1639 N.am      15 UNK        -0.5000 
     85 CA         -1.8045  -26.4586  -50.5099 C.3       15 UNK         0.1400 
     86 CB         -1.8413  -25.0275  -51.0685 C.3       15 UNK        -0.1800 
     87 C          -3.2189  -27.0694  -50.5555 C.2       15 UNK         0.5000 
     88 O          -3.7061  -27.3688  -51.6459 O.2       15 UNK        -0.5000 
     89 N          -3.8741  -27.1837  -49.3914 N.am      16 UNK        -0.5000 
     90 CA         -5.2645  -27.5796  -49.1284 C.3       16 UNK         0.1400 
     91 CB         -5.5737  -28.9883  -49.6690 C.3       16 UNK        -0.1800 
     92 C          -6.3068  -26.5471  -49.6054 C.2       16 UNK         0.5000 
     93 O          -7.2719  -26.2847  -48.8862 O.2       16 UNK        -0.5000 
     94 N          -6.0863  -25.9641  -50.7863 N.am      17 UNK        -0.5000 
     95 CA         -6.8512  -24.8735  -51.3686 C.3       17 UNK         0.1400 
     96 CB         -8.0923  -25.4224  -52.0969 C.3       17 UNK        -0.1800 
     97 C          -5.9055  -24.1156  -52.3076 C.2       17 UNK         0.5000 
     98 O          -5.7401  -24.5124  -53.4628 O.2       17 UNK        -0.5000 
     99 N          -5.2718  -23.0528  -51.7958 N.am      18 UNK        -0.5000 
    100 CA        -4.3187  -22.1988  -52.5145 C.3       18 UNK         0.1400 
    101 CB        -3.4470  -21.4512  -51.4902 C.3       18 UNK        -0.1800 
    102 C         -5.0053  -21.2378  -53.5112 C.2       18 UNK         0.5000 
    103 O         -4.7595  -20.0305  -53.4835 O.2       18 UNK        -0.5000 
    104 N         -5.8585  -21.7861  -54.3853 N.am      19 UNK        -0.5000 
    105 CA        -6.6684  -21.0642  -55.3725 C.3       19 UNK         0.1400 
    106 CB        -7.6301  -22.0566  -56.0434 C.3       19 UNK        -0.1800 
    107 C         -5.8452  -20.3059  -56.4329 C.2       19 UNK         0.5000 
    108 O         -6.3326  -19.3239  -56.9930 O.2       19 UNK        -0.5000 
    109 N         -4.6083  -20.7609  -56.6724 N.am      20 UNK        -0.5000 
    110 CA        -3.6278  -20.1087  -57.5409 C.3       20 UNK         0.1400 
    111 CB        -2.5524  -21.1383  -57.9229 C.3       20 UNK        -0.1800 
    112 C         -2.9776  -18.8623  -56.9028 C.2       20 UNK         0.5000 
    113 O         -2.3580  -18.0796  -57.6249 O.2       20 UNK        -0.5000 
    114 N         -3.1089  -18.7068  -55.5788 N.am      21 UNK        -0.5000 
    115 CA        -2.5736  -17.5992  -54.7976 C.3       21 UNK         0.1400 
    116 CB        -1.5731  -18.1505  -53.7658 C.3       21 UNK        -0.1800 
    117 C         -3.7487  -16.8219  -54.1808 C.2       21 UNK         0.5000 
    118 O         -4.4223  -16.0893  -54.9076 O.2       21 UNK        -0.5000 
    119 N         -3.9737  -16.9725  -52.8691 N.am      22 UNK        -0.5000 
    120 CA        -5.0483  -16.2991  -52.1238 C.3       22 UNK         0.1400 
    121 C         -6.4898  -16.8147  -52.4103 C.2       22 UNK         0.5000 
    122 N         -6.6753  -17.9961  -52.9840 N.am      22 UNK        -0.7600 
    123 O         -7.4588  -16.1192  -52.1169 O.2       22 UNK        -0.5000 
    124 C124       -4.7471  -16.2393  -50.6049 C.3       23 UNK        -0.0398 
    125 S125       -4.6019  -17.8754  -49.7981 S.3       23 UNK        -0.2404 
    126 C126       -3.1239  -17.6486  -48.7626 C.3       23 UNK        -0.0205 
    127 H127        4.1142  -11.2094  -48.7598 H         1 UNK         0.0600 
    128 H128        4.4172  -12.5248  -49.9106 H         1 UNK         0.0600 
    129 H129        5.0253  -10.9099  -50.2345 H         1 UNK         0.0600 
    130 H130        0.9567  -11.5835  -50.8849 H         1 UNK         0.3000 
    131 H131        2.4578  -13.6570  -49.6083 H         1 UNK         0.0600 
    132 H132       -0.5583  -13.1725  -49.5680 H         1 UNK         0.0800 
    133 H133        0.2550  -14.6395  -49.0920 H         1 UNK         0.0800 
    134 H134        1.2656  -16.3267  -52.3652 H         1 UNK         0.0800 
    135 H135        1.9012  -15.9500  -50.7847 H         1 UNK         0.0800 
    136 H136       -1.4776  -15.8738  -49.9721 H         1 UNK         0.1150 
    137 H137       -1.9581  -20.0506  -49.2425 H         1 UNK         0.1150 
    138 H138        1.4692  -18.6566  -51.3987 H         1 UNK         0.1150 
    139 H139       -0.4913  -21.6485  -50.2601 H         1 UNK         0.0800 
    140 H140        0.5407  -21.1135  -51.5545 H         1 UNK         0.0800 
    141 H141        0.4234  -20.1935  -47.7814 H         1 UNK         0.0800 
    142 H142        2.0382  -20.5456  -47.2655 H         1 UNK         0.0800 
    143 H143        1.4470  -23.0333  -47.2488 H         1 UNK         0.0600 
    144 H144        0.8372  -21.1067  -45.2754 H         1 UNK         0.3000 
    145 H145       -0.2147  -23.3831  -42.7131 H         1 UNK         0.0600 
    146 H146        1.5934  -22.1950  -41.5274 H         1 UNK         0.0600 
    147 H147        2.2890  -23.3094  -42.6932 H         1 UNK         0.0600 
    148 H148        2.2447  -21.5863  -43.0478 H         1 UNK         0.0600 
    149 H149       -0.0009  -20.5587  -42.7000 H         1 UNK         0.3000 
    150 H150       -3.3266  -19.8618  -43.9226 H         1 UNK         0.0600 
    151 H151       -3.4534  -20.3246  -41.4703 H         1 UNK         0.0600 
    152 H152       -3.3315  -18.6022  -41.7955 H         1 UNK         0.0600 
    153 H153       -1.9221  -19.4935  -41.2253 H         1 UNK         0.0600 
    154 H154       -1.2598  -18.0798  -43.1810 H         1 UNK         0.3000 
    155 H155        0.2896  -17.7885  -46.4187 H         1 UNK         0.0600 
    156 H156       -1.3342  -15.8917  -44.6414 H         1 UNK         0.0600 
    157 H157       -1.6647  -16.2408  -46.3342 H         1 UNK         0.0600 
    158 H158       -0.1791  -15.4168  -45.8849 H         1 UNK         0.0600 
    159 H159        0.9554  -16.5978  -43.9227 H         1 UNK         0.3000 
    160 H160        3.1949  -19.1589  -42.7753 H         1 UNK         0.0600 
    161 H161        4.6439  -17.1506  -42.6535 H         1 UNK         0.0600 
    162 H162        3.5735  -16.2769  -43.7510 H         1 UNK         0.0600 
    163 H163        4.4639  -17.6813  -44.3171 H         1 UNK         0.0600 
    164 H164        2.2404  -16.6742  -41.6671 H         1 UNK         0.3000 
    165 H165       -0.4189  -18.0960  -39.7585 H         1 UNK         0.0600 
    166 H166        0.8864  -17.1496  -37.8759 H         1 UNK         0.0600 
    167 H167        1.6312  -18.6386  -38.4347 H         1 UNK         0.0600 
    168 H168        2.3401  -17.0889  -38.8733 H         1 UNK         0.0600 
    169 H169        0.7067  -15.4793  -39.8177 H         1 UNK         0.3000 
    170 H170       -1.1351  -14.1778  -42.5577 H         1 UNK         0.0600 
    171 H171       -2.7435  -14.1146  -40.6467 H         1 UNK         0.0600 
    172 H172       -1.4351  -13.7167  -39.5395 H         1 UNK         0.0600 
    173 H173       -1.8940  -12.5866  -40.8138 H         1 UNK         0.0600 
    174 H174        0.6428  -12.9660  -40.6891 H         1 UNK         0.3000 
    175 H175        2.6448  -12.2121  -41.4252 H         1 UNK         0.0600 
    176 H176        4.1220  -14.9044  -41.6824 H         1 UNK         0.0600 
    177 H177        4.7377  -13.4628  -40.8827 H         1 UNK         0.0600 
    178 H178        3.3640  -14.3187  -40.2061 H         1 UNK         0.0600 
    179 H179        2.9961  -13.2225  -44.0439 H         1 UNK         0.3000 
    180 H180        5.1953  -10.5837  -45.0033 H         1 UNK         0.0600 
    181 H181        5.1726  -13.5963  -45.5945 H         1 UNK         0.0600 
    182 H182        6.5688  -12.6703  -45.0550 H         1 UNK         0.0600 
    183 H183        5.8584  -12.3439  -46.6289 H         1 UNK         0.0600 
    184 H184        3.1825  -12.3097  -46.2468 H         1 UNK         0.3000 
    185 H185        0.6270  -11.4271  -45.7164 H         1 UNK         0.0600 
    186 H186        0.1672   -9.0078  -45.4553 H         1 UNK         0.0600 
    187 H187        0.8751   -8.6754  -47.0326 H         1 UNK         0.0600 
    188 H188       -0.6067   -9.6234  -46.9031 H         1 UNK         0.0600 
    189 H189        1.1312  -10.6836  -48.4453 H         1 UNK         0.3000 
    190 H190       -1.6371  -21.2722  -46.5935 H         1 UNK         0.3000 
    191 H191       -3.1782  -22.5020  -48.6137 H         1 UNK         0.0600 
    192 H192       -4.0392  -21.3160  -45.9281 H         1 UNK         0.0600 
    193 H193       -5.1270  -21.7065  -47.2552 H         1 UNK         0.0600 
    194 H194       -3.9097  -20.4605  -47.4627 H         1 UNK         0.0600 
    195 H195       -2.5938  -23.5410  -45.2347 H         1 UNK         0.3000 
    196 H196       -4.2846  -25.8299  -45.2865 H         1 UNK         0.0600 
    197 H197       -1.7965  -25.2481  -43.5950 H         1 UNK         0.0600 
    198 H198       -2.9806  -26.5077  -43.2699 H         1 UNK         0.0600 
    199 H199       -3.4547  -24.8176  -43.1859 H         1 UNK         0.0600 
    200 H200       -0.7723  -25.4669  -46.0020 H         1 UNK         0.3000 
    201 H201       -0.2528  -28.2025  -46.5529 H         1 UNK         0.0600 
    202 H202        1.1942  -25.6730  -47.5019 H         1 UNK         0.0600 
    203 H203        1.8426  -27.3069  -47.5893 H         1 UNK         0.0600 
    204 H204        1.5288  -26.5726  -46.0242 H         1 UNK         0.0600 
    205 H205       -1.1808  -25.5032  -48.7207 H         1 UNK         0.3000 
    206 H206       -1.1592  -27.0639  -51.1497 H         1 UNK         0.0600 
    207 H207       -0.8462  -24.5825  -51.0887 H         1 UNK         0.0600 
    208 H208       -2.2285  -25.0091  -52.0881 H         1 UNK         0.0600 
    209 H209       -2.4825  -24.3883  -50.4612 H         1 UNK         0.0600 
    210 H210       -3.3860  -26.8446  -48.5729 H         1 UNK         0.3000 
    211 H211       -5.3473  -27.6226  -48.0412 H         1 UNK         0.0600 
    212 H212       -5.5580  -29.0230  -50.7585 H         1 UNK         0.0600 
    213 H213       -6.5640  -29.3150  -49.3499 H         1 UNK         0.0600 
    214 H214       -4.8546  -29.7187  -49.2981 H         1 UNK         0.0600 
    215 H215       -5.2750  -26.2691  -51.3175 H         1 UNK         0.3000 
    216 H216       -7.1793  -24.1923  -50.5805 H         1 UNK         0.0600 
    217 H217       -8.6411  -24.6195  -52.5905 H         1 UNK         0.0600 
    218 H218       -8.7778  -25.9041  -51.3995 H         1 UNK         0.0600 
    219 H219       -7.8231  -26.1553  -52.8585 H         1 UNK         0.0600 
    220 H220       -5.4716  -22.7853  -50.8430 H         1 UNK         0.3000 
    221 H221       -3.6563  -22.8384  -53.1013 H         1 UNK         0.0600 
    222 H222       -4.0433  -20.8047  -50.8453 H         1 UNK         0.0600 
    223 H223       -2.8971  -22.1453  -50.8590 H         1 UNK         0.0600 
    224 H224       -2.7047  -20.8268  -51.9867 H         1 UNK         0.0600 
    225 H225       -5.9844  -22.7930  -54.3378 H         1 UNK         0.3000 
    226 H226       -7.2630  -20.3237  -54.8344 H         1 UNK         0.0600 
    227 H227       -8.2794  -22.5341  -55.3093 H         1 UNK         0.0600 
    228 H228       -8.2732  -21.5520  -56.7657 H         1 UNK         0.0600 
    229 H229       -7.0902  -22.8414  -56.5748 H         1 UNK         0.0600 
    230 H230       -4.2990  -21.5827  -56.1749 H         1 UNK         0.3000 
    231 H231       -4.1309  -19.7853  -58.4546 H         1 UNK         0.0600 
    232 H232       -2.9912  -21.9984  -58.4291 H         1 UNK         0.0600 
    233 H233       -2.0138  -21.5015  -57.0466 H         1 UNK         0.0600 
    234 H234       -1.8180  -20.7037  -58.6024 H         1 UNK         0.0600 
    235 H235       -3.6927  -19.3553  -55.0621 H         1 UNK         0.3000 
    236 H236       -2.0355  -16.8963  -55.4367 H         1 UNK         0.0600 
    237 H237       -1.1593  -17.3387  -53.1694 H         1 UNK         0.0600 
    238 H238       -2.0286  -18.8712  -53.0871 H         1 UNK         0.0600 
    239 H239       -0.7361  -18.6455  -54.2581 H         1 UNK         0.0600 
    240 H240       -3.4124  -17.6256  -52.3419 H         1 UNK         0.3000 
    241 H241       -5.0522  -15.2628  -52.4677 H         1 UNK         0.0600 
    242 H242       -7.6136  -18.3120  -53.1641 H         1 UNK         0.3800 
    243 H243       -5.8851  -18.6049  -53.1832 H         1 UNK         0.3800 
    244 H244       -3.8261  -15.6769  -50.4524 H         1 UNK         0.0800 
    245 H245       -5.5204  -15.6708  -50.0856 H         1 UNK         0.0800 
    246 H246       -3.1140  -16.6414  -48.3439 H         1 UNK         0.0800 
    247 H247       -3.1840  -18.3214  -47.9074 H         1 UNK         0.0800 
@<TRIPOS>BOND
     1    1    2 1    
     2    1  127 1    
     3    1  128 1    
     4    1  129 1    
     5    2    3 2    
     6    2    4 am   BACKBONE|DICT|INTERRES
     7    4    5 1    
     8    4  130 1    
     9    5    6 1    
    10    5   65 1    
    11    5  131 1    
    12    6    7 1    
    13    6  132 1    
    14    6  133 1    
    15    7    8 1    
    16    8    9 1    
    17    8  134 1    
    18    8  135 1    
    19    9   10 ar   
    20    9   14 ar   
    21   10   11 ar   
    22   10  136 1    
    23   11   12 ar   
    24   11  126 1    
    25   12   13 ar   
    26   12  137 1    
    27   13   14 ar   
    28   13   15 1    
    29   14  138 1    
    30   15   16 1    
    31   15  139 1    
    32   15  140 1    
    33   16   17 1    
    34   17   18 1    
    35   17  141 1    
    36   17  142 1    
    37   18   19 1    
    38   18   67 1    
    39   18  143 1    
    40   19   20 am   BACKBONE|DICT|INTERRES
    41   19  144 1    
    42   20   21 2    
    43   20   22 1    
    44   22   23 1    
    45   22   24 1    
    46   22  145 1    
    47   23  146 1    
    48   23  147 1    
    49   23  148 1    
    50   24   25 am   BACKBONE|DICT|INTERRES
    51   24  149 1    
    52   25   26 2    
    53   25   27 1    
    54   27   28 1    
    55   27   29 1    
    56   27  150 1    
    57   28  151 1    
    58   28  152 1    
    59   28  153 1    
    60   29   30 am   BACKBONE|DICT|INTERRES
    61   29  154 1    
    62   30   31 2    
    63   30   32 1    
    64   32   33 1    
    65   32   34 1    
    66   32  155 1    
    67   33  156 1    
    68   33  157 1    
    69   33  158 1    
    70   34   35 am   BACKBONE|DICT|INTERRES
    71   34  159 1    
    72   35   36 2    
    73   35   37 1    
    74   37   38 1    
    75   37   39 1    
    76   37  160 1    
    77   38  161 1    
    78   38  162 1    
    79   38  163 1    
    80   39   40 am   BACKBONE|DICT|INTERRES
    81   39  164 1    
    82   40   41 2    
    83   40   42 1    
    84   42   43 1    
    85   42   44 1    
    86   42  165 1    
    87   43  166 1    
    88   43  167 1    
    89   43  168 1    
    90   44   45 am   BACKBONE|DICT|INTERRES
    91   44  169 1    
    92   45   46 2    
    93   45   47 1    
    94   47   48 1    
    95   47   49 1    
    96   47  170 1    
    97   48  171 1    
    98   48  172 1    
    99   48  173 1    
   100   49   50 am   BACKBONE|DICT|INTERRES
   101   49  174 1    
   102   50   51 2    
   103   50   52 1    
   104   52   53 1    
   105   52   54 1    
   106   52  175 1    
   107   53  176 1    
   108   53  177 1    
   109   53  178 1    
   110   54   55 am   BACKBONE|DICT|INTERRES
   111   54  179 1    
   112   55   56 2    
   113   55   57 1    
   114   57   58 1    
   115   57   59 1    
   116   57  180 1    
   117   58  181 1    
   118   58  182 1    
   119   58  183 1    
   120   59   60 am   BACKBONE|DICT|INTERRES
   121   59  184 1    
   122   60   61 2    
   123   60   62 1    
   124   62   63 1    
   125   62   64 1    
   126   62  185 1    
   127   63  186 1    
   128   63  187 1    
   129   63  188 1    
   130   64   65 am   BACKBONE|DICT|INTERRES
   131   64  189 1    
   132   65   66 2    
   133   67   68 2    
   134   67   69 am   BACKBONE|DICT|INTERRES
   135   69   70 1    
   136   69  190 1    
   137   70   71 1    
   138   70   72 1    
   139   70  191 1    
   140   71  192 1    
   141   71  193 1    
   142   71  194 1    
   143   72   73 2    
   144   72   74 am   BACKBONE|DICT|INTERRES
   145   74   75 1    
   146   74  195 1    
   147   75   76 1    
   148   75   77 1    
   149   75  196 1    
   150   76  197 1    
   151   76  198 1    
   152   76  199 1    
   153   77   78 2    
   154   77   79 am   BACKBONE|DICT|INTERRES
   155   79   80 1    
   156   79  200 1    
   157   80   81 1    
   158   80   82 1    
   159   80  201 1    
   160   81  202 1    
   161   81  203 1    
   162   81  204 1    
   163   82   83 2    
   164   82   84 am   BACKBONE|DICT|INTERRES
   165   84   85 1    
   166   84  205 1    
   167   85   86 1    
   168   85   87 1    
   169   85  206 1    
   170   86  207 1    
   171   86  208 1    
   172   86  209 1    
   173   87   88 2    
   174   87   89 am   BACKBONE|DICT|INTERRES
   175   89   90 1    
   176   89  210 1    
   177   90   91 1    
   178   90   92 1    
   179   90  211 1    
   180   91  212 1    
   181   91  213 1    
   182   91  214 1    
   183   92   93 2    
   184   92   94 am   BACKBONE|DICT|INTERRES
   185   94   95 1    
   186   94  215 1    
   187   95   96 1    
   188   95   97 1    
   189   95  216 1    
   190   96  217 1    
   191   96  218 1    
   192   96  219 1    
   193   97   98 2    
   194   97   99 am   BACKBONE|DICT|INTERRES
   195   99  100 1    
   196   99  220 1    
   197  100  101 1    
   198  100  102 1    
   199  100  221 1    
   200  101  222 1    
   201  101  223 1    
   202  101  224 1    
   203  102  103 2    
   204  102  104 am   BACKBONE|DICT|INTERRES
   205  104  105 1    
   206  104  225 1    
   207  105  106 1    
   208  105  107 1    
   209  105  226 1    
   210  106  227 1    
   211  106  228 1    
   212  106  229 1    
   213  107  108 2    
   214  107  109 am   BACKBONE|DICT|INTERRES
   215  109  110 1    
   216  109  230 1    
   217  110  111 1    
   218  110  112 1    
   219  110  231 1    
   220  111  232 1    
   221  111  233 1    
   222  111  234 1    
   223  112  113 2    
   224  112  114 am   BACKBONE|DICT|INTERRES
   225  114  115 1    
   226  114  235 1    
   227  115  116 1    
   228  115  117 1    
   229  115  236 1    
   230  116  237 1    
   231  116  238 1    
   232  116  239 1    
   233  117  118 2    
   234  117  119 am   BACKBONE|DICT|INTERRES
   235  119  120 1    
   236  119  240 1    
   237  120  121 1    
   238  120  124 1    
   239  120  241 1    
   240  121  122 am   BACKBONE|DICT|INTERRES
   241  121  123 2    
   242  122  242 1    
   243  122  243 1    
   244  124  125 1    
   245  124  244 1    
   246  124  245 1    
   247  125  126 1    
   248  126  246 1    
   249  126  247 1    
@<TRIPOS>SUBSTRUCTURE
     1 UNK         1 GROUP             0       ****    0 ROOT    
