@<TRIPOS>MOLECULE
3R540
247   249    1
SMALL
USER_CHARGES


@<TRIPOS>ATOM
      1 CA          4.1055  -18.2087  -50.9525 C.3       0 UNK        -0.1800 
      2 C           3.3807  -17.2334  -50.0382 C.2       0 UNK         0.5000 
      3 O           3.9794  -16.7119  -49.0967 O.2       0 UNK        -0.5000 
      4 N           2.0966  -16.9709  -50.3154 N.am      1 UNK        -0.5000 
      5 CA          1.1780  -16.1536  -49.5048 C.3       1 UNK         0.1400 
      6 C6         -0.2833  -16.2702  -49.9907 C.3       23 UNK        -0.0398 
      7 S7         -0.8887  -17.9824  -49.8342 S.3       23 UNK        -0.2404 
      8 C8         -2.6483  -17.7959  -50.2397 C.3       23 UNK        -0.0205 
      9 C9         -3.3778  -16.9213  -49.2315 C.ar      23 UNK        -0.0193 
     10 C10        -3.7751  -15.6277  -49.5807 C.ar      23 UNK        -0.1150 
     11 C11        -4.4198  -14.8132  -48.6482 C.ar      23 UNK        -0.0193 
     12 C12        -4.6515  -15.2964  -47.3584 C.ar      23 UNK        -0.1150 
     13 C13        -4.2619  -16.5866  -46.9887 C.ar      23 UNK        -0.0193 
     14 C14        -3.6447  -17.4038  -47.9468 C.ar      23 UNK        -0.1150 
     15 C15        -4.5237  -17.0166  -45.5418 C.3       23 UNK        -0.0205 
     16 S16        -3.9482  -18.6777  -45.0484 S.3       23 UNK        -0.2404 
     17 C17        -2.1248  -18.4994  -45.1317 C.3       23 UNK        -0.0398 
     18 CA         -1.2735  -19.7286  -45.5829 C.3       11 UNK         0.1400 
     19 N          -0.4001  -20.2246  -44.5173 N.am      11 UNK        -0.5000 
     20 C           0.6070  -21.0915  -44.6932 C.2       10 UNK         0.5000 
     21 O           0.9263  -21.5582  -45.7860 O.2       10 UNK        -0.5000 
     22 CA          1.3492  -21.5571  -43.4307 C.3       10 UNK         0.1400 
     23 CB          2.3985  -20.5286  -42.9828 C.3       10 UNK        -0.1800 
     24 N           0.4210  -21.8291  -42.3355 N.am      10 UNK        -0.5000 
     25 C          -0.4221  -22.8705  -42.3066 C.2       9 UNK         0.5000 
     26 O          -0.4681  -23.7395  -43.1784 O.2       9 UNK        -0.5000 
     27 CA         -1.4031  -22.9243  -41.1209 C.3       9 UNK         0.1400 
     28 CB         -0.7299  -23.5420  -39.8861 C.3       9 UNK        -0.1800 
     29 N          -1.9381  -21.6055  -40.7747 N.am      9 UNK        -0.5000 
     30 C          -2.7566  -20.8967  -41.5648 C.2       8 UNK         0.5000 
     31 O          -3.1663  -21.2974  -42.6526 O.2       8 UNK        -0.5000 
     32 CA         -3.1538  -19.4901  -41.0783 C.3       8 UNK         0.1400 
     33 CB         -4.4036  -19.5600  -40.1886 C.3       8 UNK        -0.1800 
     34 N          -2.0873  -18.7777  -40.3651 N.am      8 UNK        -0.5000 
     35 C          -0.9039  -18.4550  -40.9021 C.2       7 UNK         0.5000 
     36 O          -0.5474  -18.8142  -42.0230 O.2       7 UNK        -0.5000 
     37 CA          0.0539  -17.6240  -40.0437 C.3       7 UNK         0.1400 
     38 CB          1.1679  -18.5053  -39.4552 C.3       7 UNK        -0.1800 
     39 N           0.6398  -16.5742  -40.8742 N.am      7 UNK        -0.5000 
     40 C           0.9294  -15.3383  -40.4439 C.2       6 UNK         0.5000 
     41 O           0.7820  -14.9788  -39.2746 O.2       6 UNK        -0.5000 
     42 CA          1.4735  -14.3166  -41.4670 C.3       6 UNK         0.1400 
     43 CB          2.9989  -14.1898  -41.3336 C.3       6 UNK        -0.1800 
     44 N           1.1515  -14.6174  -42.8619 N.am      6 UNK        -0.5000 
     45 C          -0.0794  -14.6497  -43.3930 C.2       5 UNK         0.5000 
     46 O          -1.0960  -14.3594  -42.7617 O.2       5 UNK        -0.5000 
     47 CA         -0.2103  -15.0958  -44.8672 C.3       5 UNK         0.1400 
     48 CB         -0.7096  -13.9450  -45.7530 C.3       5 UNK        -0.1800 
     49 N           1.0132  -15.6657  -45.4485 N.am      5 UNK        -0.5000 
     50 C           1.5934  -16.8018  -45.0326 C.2       4 UNK         0.5000 
     51 O           1.1193  -17.5036  -44.1445 O.2       4 UNK        -0.5000 
     52 CA          2.9450  -17.2069  -45.6497 C.3       4 UNK         0.1400 
     53 CB          2.7898  -18.4344  -46.5601 C.3       4 UNK        -0.1800 
     54 N           3.6357  -16.1385  -46.3770 N.am      4 UNK        -0.5000 
     55 C           4.1830  -15.0558  -45.8031 C.2       3 UNK         0.5000 
     56 O           4.0446  -14.7814  -44.6106 O.2       3 UNK        -0.5000 
     57 CA          5.0164  -14.1243  -46.7003 C.3       3 UNK         0.1400 
     58 CB          6.4487  -14.6614  -46.8449 C.3       3 UNK        -0.1800 
     59 N           4.4198  -13.9879  -48.0284 N.am      3 UNK        -0.5000 
     60 C           4.0001  -12.8358  -48.5712 C.2       2 UNK         0.5000 
     61 O           4.1543  -11.7325  -48.0459 O.2       2 UNK        -0.5000 
     62 CA          3.2587  -12.9267  -49.9243 C.3       2 UNK         0.1400 
     63 CB          4.2342  -12.6974  -51.0885 C.3       2 UNK        -0.1800 
     64 N           2.5715  -14.2052  -50.1240 N.am      2 UNK        -0.5000 
     65 C           1.5955  -14.6771  -49.3358 C.2       1 UNK         0.5000 
     66 O           1.0696  -14.0105  -48.4460 O.2       1 UNK        -0.5000 
     67 C          -2.0567  -20.8804  -46.2493 C.2       11 UNK         0.5000 
     68 O          -2.1311  -20.9225  -47.4748 O.2       11 UNK        -0.5000 
     69 N          -2.5765  -21.8180  -45.4423 N.am      12 UNK        -0.5000 
     70 CA         -3.2625  -23.0222  -45.9073 C.3       12 UNK         0.1400 
     71 CB         -3.8750  -23.7680  -44.7129 C.3       12 UNK        -0.1800 
     72 C          -2.3414  -23.9492  -46.7182 C.2       12 UNK         0.5000 
     73 O          -2.7532  -24.4358  -47.7705 O.2       12 UNK        -0.5000 
     74 N          -1.1025  -24.1413  -46.2434 N.am      13 UNK        -0.5000 
     75 CA         -0.0695  -24.9178  -46.9311 C.3       13 UNK         0.1400 
     76 CB          1.1322  -25.1176  -45.9953 C.3       13 UNK        -0.1800 
     77 C           0.3685  -24.2845  -48.2664 C.2       13 UNK         0.5000 
     78 O           0.5781  -25.0094  -49.2387 O.2       13 UNK        -0.5000 
     79 N           0.4776  -22.9494  -48.2961 N.am      14 UNK        -0.5000 
     80 CA          0.7782  -22.1674  -49.4957 C.3       14 UNK         0.1400 
     81 CB          1.2301  -20.7604  -49.0798 C.3       14 UNK        -0.1800 
     82 C          -0.4010  -22.1055  -50.4874 C.2       14 UNK         0.5000 
     83 O          -0.1707  -22.0224  -51.6939 O.2       14 UNK        -0.5000 
     84 N          -1.6392  -22.1515  -49.9786 N.am      15 UNK        -0.5000 
     85 CA         -2.8604  -22.2072  -50.7758 C.3       15 UNK         0.1400 
     86 CB         -4.0791  -21.8504  -49.9104 C.3       15 UNK        -0.1800 
     87 C          -3.0561  -23.5721  -51.4551 C.2       15 UNK         0.5000 
     88 O          -3.3361  -23.6058  -52.6554 O.2       15 UNK        -0.5000 
     89 N          -2.9207  -24.6523  -50.6716 N.am      16 UNK        -0.5000 
     90 CA         -3.1714  -26.0468  -51.0435 C.3       16 UNK         0.1400 
     91 CB         -2.8159  -26.9570  -49.8559 C.3       16 UNK        -0.1800 
     92 C          -2.4345  -26.4917  -52.3209 C.2       16 UNK         0.5000 
     93 O          -1.2236  -26.7173  -52.2851 O.2       16 UNK        -0.5000 
     94 N          -3.1946  -26.5920  -53.4220 N.am      17 UNK        -0.5000 
     95 CA         -2.7615  -26.9629  -54.7750 C.3       17 UNK         0.1400 
     96 CB         -2.3230  -28.4421  -54.8170 C.3       17 UNK        -0.1800 
     97 C          -1.7049  -26.0081  -55.3758 C.2       17 UNK         0.5000 
     98 O          -0.9065  -26.4292  -56.2156 O.2       17 UNK        -0.5000 
     99 N          -1.7175  -24.7424  -54.9410 N.am      18 UNK        -0.5000 
    100 CA        -0.7636  -23.7162  -55.3400 C.3       18 UNK         0.1400 
    101 CB         0.4596  -23.7474  -54.4045 C.3       18 UNK        -0.1800 
    102 C         -1.4824  -22.3628  -55.4324 C.2       18 UNK         0.5000 
    103 O         -2.1199  -22.1061  -56.4549 O.2       18 UNK        -0.5000 
    104 N         -1.3740  -21.5134  -54.3994 N.am      19 UNK        -0.5000 
    105 CA        -1.8989  -20.1419  -54.4180 C.3       19 UNK         0.1400 
    106 CB        -1.2532  -19.3304  -53.2844 C.3       19 UNK        -0.1800 
    107 C         -3.4386  -20.0375  -54.3677 C.2       19 UNK         0.5000 
    108 O         -3.9729  -18.9854  -54.7159 O.2       19 UNK        -0.5000 
    109 N         -4.1197  -21.1095  -53.9329 N.am      20 UNK        -0.5000 
    110 CA        -5.5763  -21.3180  -53.9020 C.3       20 UNK         0.1400 
    111 CB        -6.1496  -21.3012  -55.3338 C.3       20 UNK        -0.1800 
    112 C         -6.3807  -20.3991  -52.9523 C.2       20 UNK         0.5000 
    113 O         -7.6066  -20.5164  -52.9181 O.2       20 UNK        -0.5000 
    114 N         -5.6867  -19.5442  -52.1864 N.am      21 UNK        -0.5000 
    115 CA        -6.1856  -18.4964  -51.2852 C.3       21 UNK         0.1400 
    116 CB        -7.1529  -19.0507  -50.2213 C.3       21 UNK        -0.1800 
    117 C         -6.7796  -17.2852  -52.0322 C.2       21 UNK         0.5000 
    118 O         -7.3213  -17.4223  -53.1315 O.2       21 UNK        -0.5000 
    119 N         -6.6457  -16.1016  -51.4220 N.am      22 UNK        -0.5000 
    120 CA        -7.1752  -14.8366  -51.9507 C.3       22 UNK         0.1400 
    121 C         -8.7208  -14.7028  -51.8128 C.2       22 UNK         0.5000 
    122 N         -9.3418  -13.8233  -52.5881 N.am      22 UNK        -0.7600 
    123 O         -9.3631  -15.3687  -51.0027 O.2       22 UNK        -0.5000 
    124 C124       -6.4110  -13.6110  -51.3839 C.3       23 UNK        -0.0398 
    125 S125       -6.5778  -13.3509  -49.5805 S.3       23 UNK        -0.2404 
    126 C126       -4.8484  -13.4015  -49.0132 C.3       23 UNK        -0.0205 
    127 H127        4.9655  -17.7227  -51.4129 H         1 UNK         0.0600 
    128 H128        3.4562  -18.5799  -51.7458 H         1 UNK         0.0600 
    129 H129        4.4617  -19.0630  -50.3769 H         1 UNK         0.0600 
    130 H130        1.6673  -17.4295  -51.1063 H         1 UNK         0.3000 
    131 H131        1.2068  -16.5609  -48.4943 H         1 UNK         0.0600 
    132 H132       -0.9317  -15.6249  -49.3958 H         1 UNK         0.0800 
    133 H133       -0.3801  -15.9446  -51.0277 H         1 UNK         0.0800 
    134 H134       -3.0978  -18.7884  -50.2536 H         1 UNK         0.0800 
    135 H135       -2.7474  -17.3948  -51.2493 H         1 UNK         0.0800 
    136 H136       -3.5742  -15.2511  -50.5739 H         1 UNK         0.1150 
    137 H137       -5.1368  -14.6579  -46.6331 H         1 UNK         0.1150 
    138 H138       -3.3386  -18.4101  -47.7029 H         1 UNK         0.1150 
    139 H139       -4.0715  -16.2862  -44.8689 H         1 UNK         0.0800 
    140 H140       -5.5989  -16.9727  -45.3633 H         1 UNK         0.0800 
    141 H141       -1.7882  -18.1254  -44.1654 H         1 UNK         0.0800 
    142 H142       -1.9100  -17.6868  -45.8241 H         1 UNK         0.0800 
    143 H143       -0.5925  -19.3586  -46.3534 H         1 UNK         0.0600 
    144 H144       -0.5399  -19.8266  -43.5915 H         1 UNK         0.3000 
    145 H145        1.8718  -22.4843  -43.6755 H         1 UNK         0.0600 
    146 H146        2.9704  -20.8954  -42.1305 H         1 UNK         0.0600 
    147 H147        3.1072  -20.3197  -43.7847 H         1 UNK         0.0600 
    148 H148        1.9420  -19.5819  -42.6954 H         1 UNK         0.0600 
    149 H149        0.3462  -21.1224  -41.6189 H         1 UNK         0.3000 
    150 H150       -2.2387  -23.5653  -41.4102 H         1 UNK         0.0600 
    151 H151       -0.3349  -24.5332  -40.1127 H         1 UNK         0.0600 
    152 H152       -1.4393  -23.6559  -39.0662 H         1 UNK         0.0600 
    153 H153        0.1004  -22.9310  -39.5299 H         1 UNK         0.0600 
    154 H154       -1.6463  -21.2042  -39.8958 H         1 UNK         0.3000 
    155 H155       -3.4028  -18.9018  -41.9639 H         1 UNK         0.0600 
    156 H156       -4.2102  -20.1049  -39.2638 H         1 UNK         0.0600 
    157 H157       -4.7568  -18.5630  -39.9249 H         1 UNK         0.0600 
    158 H158       -5.2211  -20.0665  -40.7038 H         1 UNK         0.0600 
    159 H159       -2.3047  -18.4648  -39.4299 H         1 UNK         0.3000 
    160 H160       -0.5179  -17.1789  -39.2266 H         1 UNK         0.0600 
    161 H161        1.7756  -18.9613  -40.2376 H         1 UNK         0.0600 
    162 H162        0.7520  -19.3104  -38.8484 H         1 UNK         0.0600 
    163 H163        1.8312  -17.9243  -38.8143 H         1 UNK         0.0600 
    164 H164        0.7449  -16.8091  -41.8557 H         1 UNK         0.3000 
    165 H165        1.0282  -13.3493  -41.2263 H         1 UNK         0.0600 
    166 H166        3.3887  -13.4074  -41.9852 H         1 UNK         0.0600 
    167 H167        3.2846  -13.9338  -40.3125 H         1 UNK         0.0600 
    168 H168        3.5023  -15.1221  -41.5930 H         1 UNK         0.0600 
    169 H169        1.9333  -14.8560  -43.4579 H         1 UNK         0.3000 
    170 H170       -0.9760  -15.8697  -44.8763 H         1 UNK         0.0600 
    171 H171       -1.6017  -13.4790  -45.3325 H         1 UNK         0.0600 
    172 H172        0.0467  -13.1676  -45.8673 H         1 UNK         0.0600 
    173 H173       -0.9792  -14.3056  -46.7459 H         1 UNK         0.0600 
    174 H174        1.4651  -15.1234  -46.1714 H         1 UNK         0.3000 
    175 H175        3.5908  -17.4987  -44.8187 H         1 UNK         0.0600 
    176 H176        2.0757  -18.2666  -47.3639 H         1 UNK         0.0600 
    177 H177        3.7411  -18.7214  -47.0083 H         1 UNK         0.0600 
    178 H178        2.4347  -19.2918  -45.9918 H         1 UNK         0.0600 
    179 H179        3.8087  -16.3181  -47.3637 H         1 UNK         0.3000 
    180 H180        5.0660  -13.1558  -46.1986 H         1 UNK         0.0600 
    181 H181        6.4672  -15.6301  -47.3463 H         1 UNK         0.0600 
    182 H182        6.9211  -14.7850  -45.8696 H         1 UNK         0.0600 
    183 H183        7.0682  -13.9747  -47.4220 H         1 UNK         0.0600 
    184 H184        4.2555  -14.8502  -48.5380 H         1 UNK         0.3000 
    185 H185        2.5068  -12.1351  -49.9425 H         1 UNK         0.0600 
    186 H186        4.7465  -11.7398  -50.9859 H         1 UNK         0.0600 
    187 H187        4.9977  -13.4752  -51.1323 H         1 UNK         0.0600 
    188 H188        3.7116  -12.6841  -52.0452 H         1 UNK         0.0600 
    189 H189        2.9567  -14.8234  -50.8230 H         1 UNK         0.3000 
    190 H190       -2.5396  -21.6746  -44.4368 H         1 UNK         0.3000 
    191 H191       -4.0768  -22.7066  -46.5624 H         1 UNK         0.0600 
    192 H192       -3.1152  -24.0647  -43.9894 H         1 UNK         0.0600 
    193 H193       -4.3912  -24.6718  -45.0389 H         1 UNK         0.0600 
    194 H194       -4.6050  -23.1461  -44.1944 H         1 UNK         0.0600 
    195 H195       -0.8453  -23.7198  -45.3587 H         1 UNK         0.3000 
    196 H196       -0.4890  -25.9008  -47.1554 H         1 UNK         0.0600 
    197 H197        1.8998  -25.7286  -46.4717 H         1 UNK         0.0600 
    198 H198        0.8361  -25.6240  -45.0764 H         1 UNK         0.0600 
    199 H199        1.5925  -24.1688  -45.7197 H         1 UNK         0.0600 
    200 H200        0.3579  -22.4304  -47.4306 H         1 UNK         0.3000 
    201 H201        1.6113  -22.6454  -50.0150 H         1 UNK         0.0600 
    202 H202        2.1425  -20.8004  -48.4848 H         1 UNK         0.0600 
    203 H203        0.4685  -20.2573  -48.4841 H         1 UNK         0.0600 
    204 H204        1.4356  -20.1379  -49.9515 H         1 UNK         0.0600 
    205 H205       -1.7536  -22.0935  -48.9712 H         1 UNK         0.3000 
    206 H206       -2.7845  -21.4537  -51.5576 H         1 UNK         0.0600 
    207 H207       -4.9991  -21.8886  -50.4943 H         1 UNK         0.0600 
    208 H208       -4.1966  -22.5379  -49.0733 H         1 UNK         0.0600 
    209 H209       -3.9962  -20.8440  -49.5015 H         1 UNK         0.0600 
    210 H210       -2.6964  -24.5001  -49.6918 H         1 UNK         0.3000 
    211 H211       -4.2449  -26.1424  -51.2173 H         1 UNK         0.0600 
    212 H212       -1.7807  -26.8187  -49.5408 H         1 UNK         0.0600 
    213 H213       -2.9450  -28.0089  -50.1136 H         1 UNK         0.0600 
    214 H214       -3.4567  -26.7542  -48.9979 H         1 UNK         0.0600 
    215 H215       -4.1701  -26.3401  -53.3422 H         1 UNK         0.3000 
    216 H216       -3.6426  -26.8658  -55.4106 H         1 UNK         0.0600 
    217 H217       -2.1447  -28.7702  -55.8416 H         1 UNK         0.0600 
    218 H218       -3.0912  -29.0933  -54.3999 H         1 UNK         0.0600 
    219 H219       -1.4025  -28.6072  -54.2564 H         1 UNK         0.0600 
    220 H220       -2.4066  -24.4647  -54.2484 H         1 UNK         0.3000 
    221 H221       -0.4059  -23.9202  -56.3516 H         1 UNK         0.0600 
    222 H222        0.1645  -23.8520  -53.3617 H         1 UNK         0.0600 
    223 H223        1.0982  -24.5989  -54.6397 H         1 UNK         0.0600 
    224 H224        1.0713  -22.8497  -54.5023 H         1 UNK         0.0600 
    225 H225       -0.8550  -21.7922  -53.5707 H         1 UNK         0.3000 
    226 H226       -1.5875  -19.6853  -55.3600 H         1 UNK         0.0600 
    227 H227       -0.1656  -19.3507  -53.3536 H         1 UNK         0.0600 
    228 H228       -1.5595  -18.2846  -53.3279 H         1 UNK         0.0600 
    229 H229       -1.5288  -19.7107  -52.3026 H         1 UNK         0.0600 
    230 H230       -3.5821  -21.9255  -53.6578 H         1 UNK         0.3000 
    231 H231       -5.7138  -22.3275  -53.5122 H         1 UNK         0.0600 
    232 H232       -7.1941  -21.6146  -55.3434 H         1 UNK         0.0600 
    233 H233       -5.6022  -21.9825  -55.9854 H         1 UNK         0.0600 
    234 H234       -6.1050  -20.3052  -55.7752 H         1 UNK         0.0600 
    235 H235       -4.6942  -19.5149  -52.3619 H         1 UNK         0.3000 
    236 H236       -5.3087  -18.1370  -50.7545 H         1 UNK         0.0600 
    237 H237       -6.7261  -19.9130  -49.7091 H         1 UNK         0.0600 
    238 H238       -7.3654  -18.2960  -49.4632 H         1 UNK         0.0600 
    239 H239       -8.1086  -19.3502  -50.6515 H         1 UNK         0.0600 
    240 H240       -6.2358  -16.0528  -50.5002 H         1 UNK         0.3000 
    241 H241       -6.9761  -14.8449  -53.0246 H         1 UNK         0.0600 
    242 H242      -10.3414  -13.7196  -52.5046 H         1 UNK         0.3800 
    243 H243       -8.8439  -13.2635  -53.2632 H         1 UNK         0.3800 
    244 H244       -5.3559  -13.7018  -51.6432 H         1 UNK         0.0800 
    245 H245       -6.7467  -12.6998  -51.8812 H         1 UNK         0.0800 
    246 H246       -4.1832  -12.9753  -49.7655 H         1 UNK         0.0800 
    247 H247       -4.7539  -12.7577  -48.1373 H         1 UNK         0.0800 
@<TRIPOS>BOND
     1    1    2 1    
     2    1  127 1    
     3    1  128 1    
     4    1  129 1    
     5    2    3 2    
     6    2    4 am   BACKBONE|DICT|INTERRES
     7    4    5 1    
     8    4  130 1    
     9    5    6 1    
    10    5   65 1    
    11    5  131 1    
    12    6    7 1    
    13    6  132 1    
    14    6  133 1    
    15    7    8 1    
    16    8    9 1    
    17    8  134 1    
    18    8  135 1    
    19    9   10 ar   
    20    9   14 ar   
    21   10   11 ar   
    22   10  136 1    
    23   11   12 ar   
    24   11  126 1    
    25   12   13 ar   
    26   12  137 1    
    27   13   14 ar   
    28   13   15 1    
    29   14  138 1    
    30   15   16 1    
    31   15  139 1    
    32   15  140 1    
    33   16   17 1    
    34   17   18 1    
    35   17  141 1    
    36   17  142 1    
    37   18   19 1    
    38   18   67 1    
    39   18  143 1    
    40   19   20 am   BACKBONE|DICT|INTERRES
    41   19  144 1    
    42   20   21 2    
    43   20   22 1    
    44   22   23 1    
    45   22   24 1    
    46   22  145 1    
    47   23  146 1    
    48   23  147 1    
    49   23  148 1    
    50   24   25 am   BACKBONE|DICT|INTERRES
    51   24  149 1    
    52   25   26 2    
    53   25   27 1    
    54   27   28 1    
    55   27   29 1    
    56   27  150 1    
    57   28  151 1    
    58   28  152 1    
    59   28  153 1    
    60   29   30 am   BACKBONE|DICT|INTERRES
    61   29  154 1    
    62   30   31 2    
    63   30   32 1    
    64   32   33 1    
    65   32   34 1    
    66   32  155 1    
    67   33  156 1    
    68   33  157 1    
    69   33  158 1    
    70   34   35 am   BACKBONE|DICT|INTERRES
    71   34  159 1    
    72   35   36 2    
    73   35   37 1    
    74   37   38 1    
    75   37   39 1    
    76   37  160 1    
    77   38  161 1    
    78   38  162 1    
    79   38  163 1    
    80   39   40 am   BACKBONE|DICT|INTERRES
    81   39  164 1    
    82   40   41 2    
    83   40   42 1    
    84   42   43 1    
    85   42   44 1    
    86   42  165 1    
    87   43  166 1    
    88   43  167 1    
    89   43  168 1    
    90   44   45 am   BACKBONE|DICT|INTERRES
    91   44  169 1    
    92   45   46 2    
    93   45   47 1    
    94   47   48 1    
    95   47   49 1    
    96   47  170 1    
    97   48  171 1    
    98   48  172 1    
    99   48  173 1    
   100   49   50 am   BACKBONE|DICT|INTERRES
   101   49  174 1    
   102   50   51 2    
   103   50   52 1    
   104   52   53 1    
   105   52   54 1    
   106   52  175 1    
   107   53  176 1    
   108   53  177 1    
   109   53  178 1    
   110   54   55 am   BACKBONE|DICT|INTERRES
   111   54  179 1    
   112   55   56 2    
   113   55   57 1    
   114   57   58 1    
   115   57   59 1    
   116   57  180 1    
   117   58  181 1    
   118   58  182 1    
   119   58  183 1    
   120   59   60 am   BACKBONE|DICT|INTERRES
   121   59  184 1    
   122   60   61 2    
   123   60   62 1    
   124   62   63 1    
   125   62   64 1    
   126   62  185 1    
   127   63  186 1    
   128   63  187 1    
   129   63  188 1    
   130   64   65 am   BACKBONE|DICT|INTERRES
   131   64  189 1    
   132   65   66 2    
   133   67   68 2    
   134   67   69 am   BACKBONE|DICT|INTERRES
   135   69   70 1    
   136   69  190 1    
   137   70   71 1    
   138   70   72 1    
   139   70  191 1    
   140   71  192 1    
   141   71  193 1    
   142   71  194 1    
   143   72   73 2    
   144   72   74 am   BACKBONE|DICT|INTERRES
   145   74   75 1    
   146   74  195 1    
   147   75   76 1    
   148   75   77 1    
   149   75  196 1    
   150   76  197 1    
   151   76  198 1    
   152   76  199 1    
   153   77   78 2    
   154   77   79 am   BACKBONE|DICT|INTERRES
   155   79   80 1    
   156   79  200 1    
   157   80   81 1    
   158   80   82 1    
   159   80  201 1    
   160   81  202 1    
   161   81  203 1    
   162   81  204 1    
   163   82   83 2    
   164   82   84 am   BACKBONE|DICT|INTERRES
   165   84   85 1    
   166   84  205 1    
   167   85   86 1    
   168   85   87 1    
   169   85  206 1    
   170   86  207 1    
   171   86  208 1    
   172   86  209 1    
   173   87   88 2    
   174   87   89 am   BACKBONE|DICT|INTERRES
   175   89   90 1    
   176   89  210 1    
   177   90   91 1    
   178   90   92 1    
   179   90  211 1    
   180   91  212 1    
   181   91  213 1    
   182   91  214 1    
   183   92   93 2    
   184   92   94 am   BACKBONE|DICT|INTERRES
   185   94   95 1    
   186   94  215 1    
   187   95   96 1    
   188   95   97 1    
   189   95  216 1    
   190   96  217 1    
   191   96  218 1    
   192   96  219 1    
   193   97   98 2    
   194   97   99 am   BACKBONE|DICT|INTERRES
   195   99  100 1    
   196   99  220 1    
   197  100  101 1    
   198  100  102 1    
   199  100  221 1    
   200  101  222 1    
   201  101  223 1    
   202  101  224 1    
   203  102  103 2    
   204  102  104 am   BACKBONE|DICT|INTERRES
   205  104  105 1    
   206  104  225 1    
   207  105  106 1    
   208  105  107 1    
   209  105  226 1    
   210  106  227 1    
   211  106  228 1    
   212  106  229 1    
   213  107  108 2    
   214  107  109 am   BACKBONE|DICT|INTERRES
   215  109  110 1    
   216  109  230 1    
   217  110  111 1    
   218  110  112 1    
   219  110  231 1    
   220  111  232 1    
   221  111  233 1    
   222  111  234 1    
   223  112  113 2    
   224  112  114 am   BACKBONE|DICT|INTERRES
   225  114  115 1    
   226  114  235 1    
   227  115  116 1    
   228  115  117 1    
   229  115  236 1    
   230  116  237 1    
   231  116  238 1    
   232  116  239 1    
   233  117  118 2    
   234  117  119 am   BACKBONE|DICT|INTERRES
   235  119  120 1    
   236  119  240 1    
   237  120  121 1    
   238  120  124 1    
   239  120  241 1    
   240  121  122 am   BACKBONE|DICT|INTERRES
   241  121  123 2    
   242  122  242 1    
   243  122  243 1    
   244  124  125 1    
   245  124  244 1    
   246  124  245 1    
   247  125  126 1    
   248  126  246 1    
   249  126  247 1    
@<TRIPOS>SUBSTRUCTURE
     1 UNK         1 GROUP             0       ****    0 ROOT    
