@<TRIPOS>MOLECULE
3R540
247   249    1
SMALL
USER_CHARGES


@<TRIPOS>ATOM
      1 CA         -2.1258  -13.2634  -45.7642 C.3       0 UNK        -0.1800 
      2 C          -0.7877  -12.8864  -46.3800 C.2       0 UNK         0.5000 
      3 O          -0.5332  -11.7070  -46.6278 O.2       0 UNK        -0.5000 
      4 N           0.0762  -13.8807  -46.6143 N.am      1 UNK        -0.5000 
      5 CA          1.4318  -13.7270  -47.1505 C.3       1 UNK         0.1400 
      6 C6          1.9405  -15.0324  -47.8141 C.3       23 UNK        -0.0398 
      7 S7          0.8684  -15.5930  -49.1819 S.3       23 UNK        -0.2404 
      8 C8          0.0030  -17.0214  -48.4484 C.3       23 UNK        -0.0205 
      9 C9         -1.5078  -16.8678  -48.5360 C.ar      23 UNK        -0.0193 
     10 C10        -2.1528  -17.0079  -49.7682 C.ar      23 UNK        -0.1150 
     11 C11        -3.5432  -16.9056  -49.8598 C.ar      23 UNK        -0.0193 
     12 C12        -4.2919  -16.6662  -48.7050 C.ar      23 UNK        -0.1150 
     13 C13        -3.6612  -16.5164  -47.4666 C.ar      23 UNK        -0.0193 
     14 C14        -2.2665  -16.6112  -47.3895 C.ar      23 UNK        -0.1150 
     15 C15        -4.4951  -16.2532  -46.2189 C.3       23 UNK        -0.0205 
     16 S16        -4.2220  -17.4914  -44.9130 S.3       23 UNK        -0.2404 
     17 C17        -4.7807  -19.0277  -45.7239 C.3       23 UNK        -0.0398 
     18 CA         -3.6265  -19.8482  -46.3546 C.3       11 UNK         0.1400 
     19 N          -2.4928  -20.0240  -45.4391 N.am      11 UNK        -0.5000 
     20 C          -1.3379  -20.6394  -45.7205 C.2       10 UNK         0.5000 
     21 O          -1.1291  -21.2117  -46.7905 O.2       10 UNK        -0.5000 
     22 CA         -0.2352  -20.6333  -44.6392 C.3       10 UNK         0.1400 
     23 CB          1.1688  -20.6004  -45.2690 C.3       10 UNK        -0.1800 
     24 N          -0.3499  -19.5479  -43.6562 N.am      10 UNK        -0.5000 
     25 C          -1.1718  -19.5486  -42.5961 C.2       9 UNK         0.5000 
     26 O          -2.0185  -20.4235  -42.4118 O.2       9 UNK        -0.5000 
     27 CA         -1.0442  -18.4092  -41.5634 C.3       9 UNK         0.1400 
     28 CB         -0.5429  -18.9599  -40.2185 C.3       9 UNK        -0.1800 
     29 N          -0.1421  -17.3390  -41.9826 N.am      9 UNK        -0.5000 
     30 C          -0.4890  -16.2808  -42.7257 C.2       8 UNK         0.5000 
     31 O          -1.6310  -16.0672  -43.1274 O.2       8 UNK        -0.5000 
     32 CA          0.6401  -15.3020  -43.1012 C.3       8 UNK         0.1400 
     33 CB          0.7312  -14.1672  -42.0713 C.3       8 UNK        -0.1800 
     34 N           1.9467  -15.9498  -43.2300 N.am      8 UNK        -0.5000 
     35 C           2.2400  -16.9002  -44.1283 C.2       7 UNK         0.5000 
     36 O           1.4390  -17.3052  -44.9696 O.2       7 UNK        -0.5000 
     37 CA          3.6277  -17.5569  -44.0241 C.3       7 UNK         0.1400 
     38 CB          4.6965  -16.7429  -44.7677 C.3       7 UNK        -0.1800 
     39 N           4.0380  -17.7500  -42.6332 N.am      7 UNK        -0.5000 
     40 C           3.5095  -18.6626  -41.8053 C.2       6 UNK         0.5000 
     41 O           2.6394  -19.4662  -42.1366 O.2       6 UNK        -0.5000 
     42 CA          4.0181  -18.6535  -40.3524 C.3       6 UNK         0.1400 
     43 CB          5.3085  -19.4768  -40.2251 C.3       6 UNK        -0.1800 
     44 N           4.2568  -17.2988  -39.8537 N.am      6 UNK        -0.5000 
     45 C           3.2912  -16.4015  -39.6096 C.2       5 UNK         0.5000 
     46 O           2.0898  -16.6393  -39.7332 O.2       5 UNK        -0.5000 
     47 CA          3.7539  -14.9884  -39.2037 C.3       5 UNK         0.1400 
     48 CB          3.9601  -14.9022  -37.6842 C.3       5 UNK        -0.1800 
     49 N           4.9817  -14.5651  -39.8878 N.am      5 UNK        -0.5000 
     50 C           5.0783  -14.3877  -41.2111 C.2       4 UNK         0.5000 
     51 O           4.1392  -14.5674  -41.9913 O.2       4 UNK        -0.5000 
     52 CA          6.4530  -13.9895  -41.7643 C.3       4 UNK         0.1400 
     53 CB          7.3809  -15.2147  -41.8563 C.3       4 UNK        -0.1800 
     54 N           6.2421  -13.4229  -43.0890 N.am      4 UNK        -0.5000 
     55 C           7.0764  -12.6350  -43.7762 C.2       3 UNK         0.5000 
     56 O           8.1970  -12.3111  -43.3815 O.2       3 UNK        -0.5000 
     57 CA          6.5591  -12.1083  -45.1304 C.3       3 UNK         0.1400 
     58 CB          7.0241  -13.0221  -46.2745 C.3       3 UNK        -0.1800 
     59 N           5.0982  -12.0285  -45.1559 N.am      3 UNK        -0.5000 
     60 C           4.3652  -11.0815  -44.5618 C.2       2 UNK         0.5000 
     61 O           4.8571  -10.0607  -44.0775 O.2       2 UNK        -0.5000 
     62 CA          2.8412  -11.3342  -44.4527 C.3       2 UNK         0.1400 
     63 CB          2.0516  -10.0548  -44.1232 C.3       2 UNK        -0.1800 
     64 N           2.2065  -11.9829  -45.6068 N.am      2 UNK        -0.5000 
     65 C           2.3804  -13.2396  -46.0344 C.2       1 UNK         0.5000 
     66 O           3.2177  -14.0048  -45.5575 O.2       1 UNK        -0.5000 
     67 C          -4.1685  -21.1836  -46.8989 C.2       11 UNK         0.5000 
     68 O          -4.4381  -21.2907  -48.0940 O.2       11 UNK        -0.5000 
     69 N          -4.2829  -22.1879  -46.0179 N.am      12 UNK        -0.5000 
     70 CA         -4.7437  -23.5340  -46.3600 C.3       12 UNK         0.1400 
     71 CB         -5.0054  -24.3256  -45.0703 C.3       12 UNK        -0.1800 
     72 C          -3.7576  -24.2879  -47.2694 C.2       12 UNK         0.5000 
     73 O          -4.1917  -24.9932  -48.1795 O.2       12 UNK        -0.5000 
     74 N          -2.4528  -24.1041  -47.0262 N.am      13 UNK        -0.5000 
     75 CA         -1.3755  -24.6861  -47.8265 C.3       13 UNK         0.1400 
     76 CB         -0.0515  -24.5918  -47.0525 C.3       13 UNK        -0.1800 
     77 C          -1.2560  -24.0179  -49.2069 C.2       13 UNK         0.5000 
     78 O          -1.0217  -24.7115  -50.1964 O.2       13 UNK        -0.5000 
     79 N          -1.4406  -22.6913  -49.2470 N.am      14 UNK        -0.5000 
     80 CA         -1.4603  -21.8884  -50.4674 C.3       14 UNK         0.1400 
     81 CB         -1.4156  -20.3992  -50.0978 C.3       14 UNK        -0.1800 
     82 C          -2.6751  -22.2009  -51.3583 C.2       14 UNK         0.5000 
     83 O          -2.5112  -22.3288  -52.5714 O.2       14 UNK        -0.5000 
     84 N          -3.8581  -22.3356  -50.7416 N.am      15 UNK        -0.5000 
     85 CA         -5.1042  -22.6785  -51.4238 C.3       15 UNK         0.1400 
     86 CB         -6.2971  -22.3653  -50.5093 C.3       15 UNK        -0.1800 
     87 C          -5.1498  -24.1471  -51.8782 C.2       15 UNK         0.5000 
     88 O          -5.6908  -24.4370  -52.9449 O.2       15 UNK        -0.5000 
     89 N          -4.6276  -25.0574  -51.0412 N.am      16 UNK        -0.5000 
     90 CA         -4.4957  -26.5066  -51.2557 C.3       16 UNK         0.1400 
     91 CB         -3.4508  -26.7754  -52.3570 C.3       16 UNK        -0.1800 
     92 C          -5.8238  -27.2495  -51.5387 C.2       16 UNK         0.5000 
     93 O          -5.7941  -28.3803  -52.0265 O.2       16 UNK        -0.5000 
     94 N          -6.9595  -26.5906  -51.2581 N.am      17 UNK        -0.5000 
     95 CA         -8.3302  -26.9628  -51.6266 C.3       17 UNK         0.1400 
     96 CB         -8.7777  -28.2274  -50.8640 C.3       17 UNK        -0.1800 
     97 C          -8.5530  -27.0719  -53.1554 C.2       17 UNK         0.5000 
     98 O          -9.4502  -27.7984  -53.5872 O.2       17 UNK        -0.5000 
     99 N          -7.7427  -26.3574  -53.9512 N.am      18 UNK        -0.5000 
    100 CA        -7.7291  -26.4392  -55.4150 C.3       18 UNK         0.1400 
    101 CB        -6.8194  -27.6063  -55.8481 C.3       18 UNK        -0.1800 
    102 C         -7.3152  -25.1056  -56.0672 C.2       18 UNK         0.5000 
    103 O         -6.8221  -25.1083  -57.1970 O.2       18 UNK        -0.5000 
    104 N         -7.4932  -23.9929  -55.3399 N.am      19 UNK        -0.5000 
    105 CA        -7.0414  -22.6227  -55.6229 C.3       19 UNK         0.1400 
    106 CB        -7.6382  -22.0666  -56.9303 C.3       19 UNK        -0.1800 
    107 C         -5.5084  -22.4685  -55.5775 C.2       19 UNK         0.5000 
    108 O         -5.0162  -21.6617  -54.7919 O.2       19 UNK        -0.5000 
    109 N         -4.7954  -23.2709  -56.3800 N.am      20 UNK        -0.5000 
    110 CA        -3.3421  -23.4408  -56.4333 C.3       20 UNK         0.1400 
    111 CB        -2.8822  -24.3679  -55.2909 C.3       20 UNK        -0.1800 
    112 C         -2.5650  -22.1101  -56.5238 C.2       20 UNK         0.5000 
    113 O         -2.5168  -21.5252  -57.6076 O.2       20 UNK        -0.5000 
    114 N         -1.9598  -21.6628  -55.4145 N.am      21 UNK        -0.5000 
    115 CA        -1.1827  -20.4240  -55.3498 C.3       21 UNK         0.1400 
    116 CB        -0.1519  -20.5310  -54.2146 C.3       21 UNK        -0.1800 
    117 C         -2.0580  -19.1695  -55.1669 C.2       21 UNK         0.5000 
    118 O         -1.5920  -18.0699  -55.4706 O.2       21 UNK        -0.5000 
    119 N         -3.2891  -19.3379  -54.6713 N.am      22 UNK        -0.5000 
    120 CA        -4.2651  -18.2581  -54.4817 C.3       22 UNK         0.1400 
    121 C         -5.0383  -17.9418  -55.7910 C.2       22 UNK         0.5000 
    122 N         -5.4292  -16.6911  -55.9964 N.am      22 UNK        -0.7600 
    123 O         -5.3233  -18.8161  -56.6063 O.2       22 UNK        -0.5000 
    124 C124       -5.2481  -18.5623  -53.3222 C.3       23 UNK        -0.0398 
    125 S125       -4.4104  -18.7693  -51.7138 S.3       23 UNK        -0.2404 
    126 C126       -4.2325  -17.0316  -51.2087 C.3       23 UNK        -0.0205 
    127 H127       -2.0950  -14.2585  -45.3201 H         1 UNK         0.0600 
    128 H128       -2.9060  -13.2462  -46.5250 H         1 UNK         0.0600 
    129 H129       -2.3941  -12.5556  -44.9799 H         1 UNK         0.0600 
    130 H130       -0.1928  -14.8294  -46.4020 H         1 UNK         0.3000 
    131 H131        1.4157  -12.9540  -47.9221 H         1 UNK         0.0600 
    132 H132        2.9366  -14.8715  -48.2299 H         1 UNK         0.0800 
    133 H133        2.0559  -15.8296  -47.0801 H         1 UNK         0.0800 
    134 H134        0.3046  -17.9230  -48.9824 H         1 UNK         0.0800 
    135 H135        0.3030  -17.1765  -47.4119 H         1 UNK         0.0800 
    136 H136       -1.5706  -17.2010  -50.6583 H         1 UNK         0.1150 
    137 H137       -5.3681  -16.5916  -48.7735 H         1 UNK         0.1150 
    138 H138       -1.7791  -16.5121  -46.4297 H         1 UNK         0.1150 
    139 H139       -4.2472  -15.2684  -45.8247 H         1 UNK         0.0800 
    140 H140       -5.5592  -16.2243  -46.4584 H         1 UNK         0.0800 
    141 H141       -5.5306  -18.7834  -46.4787 H         1 UNK         0.0800 
    142 H142       -5.2981  -19.6169  -44.9645 H         1 UNK         0.0800 
    143 H143       -3.2460  -19.2953  -47.2147 H         1 UNK         0.0600 
    144 H144       -2.5880  -19.5918  -44.5309 H         1 UNK         0.3000 
    145 H145       -0.3249  -21.5812  -44.1049 H         1 UNK         0.0600 
    146 H146        1.9469  -20.5755  -44.5068 H         1 UNK         0.0600 
    147 H147        1.3474  -21.4871  -45.8780 H         1 UNK         0.0600 
    148 H148        1.2988  -19.7328  -45.9159 H         1 UNK         0.0600 
    149 H149        0.2861  -18.7697  -43.7784 H         1 UNK         0.3000 
    150 H150       -2.0435  -17.9966  -41.4095 H         1 UNK         0.0600 
    151 H151       -0.4935  -18.1738  -39.4647 H         1 UNK         0.0600 
    152 H152       -1.2093  -19.7343  -39.8364 H         1 UNK         0.0600 
    153 H153        0.4521  -19.3971  -40.3097 H         1 UNK         0.0600 
    154 H154        0.8177  -17.4113  -41.6716 H         1 UNK         0.3000 
    155 H155        0.3921  -14.8650  -44.0682 H         1 UNK         0.0600 
    156 H156        0.9386  -14.5481  -41.0713 H         1 UNK         0.0600 
    157 H157       -0.2045  -13.6090  -42.0231 H         1 UNK         0.0600 
    158 H158        1.5191  -13.4614  -42.3271 H         1 UNK         0.0600 
    159 H159        2.6869  -15.6100  -42.6223 H         1 UNK         0.3000 
    160 H160        3.5634  -18.5370  -44.5015 H         1 UNK         0.0600 
    161 H161        4.8466  -15.7630  -44.3159 H         1 UNK         0.0600 
    162 H162        4.4104  -16.5824  -45.8080 H         1 UNK         0.0600 
    163 H163        5.6560  -17.2600  -44.7700 H         1 UNK         0.0600 
    164 H164        4.7126  -17.0973  -42.2654 H         1 UNK         0.3000 
    165 H165        3.2522  -19.1188  -39.7279 H         1 UNK         0.0600 
    166 H166        5.6372  -19.5363  -39.1874 H         1 UNK         0.0600 
    167 H167        5.1550  -20.4984  -40.5754 H         1 UNK         0.0600 
    168 H168        6.1220  -19.0473  -40.8114 H         1 UNK         0.0600 
    169 H169        5.2177  -17.0224  -39.7174 H         1 UNK         0.3000 
    170 H170        2.9596  -14.2913  -39.4793 H         1 UNK         0.0600 
    171 H171        3.0543  -15.1936  -37.1506 H         1 UNK         0.0600 
    172 H172        4.7645  -15.5575  -37.3479 H         1 UNK         0.0600 
    173 H173        4.2036  -13.8852  -37.3764 H         1 UNK         0.0600 
    174 H174        5.7917  -14.4041  -39.3063 H         1 UNK         0.3000 
    175 H175        6.8908  -13.2324  -41.1108 H         1 UNK         0.0600 
    176 H176        6.9709  -15.9809  -42.5154 H         1 UNK         0.0600 
    177 H177        8.3636  -14.9390  -42.2390 H         1 UNK         0.0600 
    178 H178        7.5339  -15.6687  -40.8767 H         1 UNK         0.0600 
    179 H179        5.3207  -13.6142  -43.4639 H         1 UNK         0.3000 
    180 H180        6.9758  -11.1116  -45.2899 H         1 UNK         0.0600 
    181 H181        6.6267  -14.0327  -46.1689 H         1 UNK         0.0600 
    182 H182        8.1121  -13.0966  -46.2976 H         1 UNK         0.0600 
    183 H183        6.7038  -12.6355  -47.2421 H         1 UNK         0.0600 
    184 H184        4.5984  -12.8510  -45.4865 H         1 UNK         0.3000 
    185 H185        2.7256  -12.0107  -43.6055 H         1 UNK         0.0600 
    186 H186        2.4149   -9.5880  -43.2067 H         1 UNK         0.0600 
    187 H187        2.1321   -9.3189  -44.9240 H         1 UNK         0.0600 
    188 H188        0.9939  -10.2723  -43.9723 H         1 UNK         0.0600 
    189 H189        1.4575  -11.4582  -46.0451 H         1 UNK         0.3000 
    190 H190       -4.0232  -22.0224  -45.0562 H         1 UNK         0.3000 
    191 H191       -5.6881  -23.4418  -46.9009 H         1 UNK         0.0600 
    192 H192       -5.7631  -23.8390  -44.4559 H         1 UNK         0.0600 
    193 H193       -5.3673  -25.3297  -45.2958 H         1 UNK         0.0600 
    194 H194       -4.1012  -24.4296  -44.4692 H         1 UNK         0.0600 
    195 H195       -2.1811  -23.4622  -46.2968 H         1 UNK         0.3000 
    196 H196       -1.5994  -25.7433  -47.9856 H         1 UNK         0.0600 
    197 H197        0.7611  -25.0526  -47.6154 H         1 UNK         0.0600 
    198 H198       -0.1166  -25.1080  -46.0946 H         1 UNK         0.0600 
    199 H199        0.2318  -23.5573  -46.8579 H         1 UNK         0.0600 
    200 H200       -1.5582  -22.1893  -48.3709 H         1 UNK         0.3000 
    201 H201       -0.5594  -22.1223  -51.0384 H         1 UNK         0.0600 
    202 H202       -0.5228  -20.1650  -49.5185 H         1 UNK         0.0600 
    203 H203       -2.2832  -20.1036  -49.5067 H         1 UNK         0.0600 
    204 H204       -1.4012  -19.7745  -50.9914 H         1 UNK         0.0600 
    205 H205       -3.9229  -22.1350  -49.7476 H         1 UNK         0.3000 
    206 H206       -5.1898  -22.0466  -52.3071 H         1 UNK         0.0600 
    207 H207       -6.3192  -21.3075  -50.2457 H         1 UNK         0.0600 
    208 H208       -7.2413  -22.5966  -51.0037 H         1 UNK         0.0600 
    209 H209       -6.2574  -22.9399  -49.5830 H         1 UNK         0.0600 
    210 H210       -4.2849  -24.7373  -50.1405 H         1 UNK         0.3000 
    211 H211       -4.1097  -26.9158  -50.3213 H         1 UNK         0.0600 
    212 H212       -3.8219  -26.4813  -53.3387 H         1 UNK         0.0600 
    213 H213       -3.1948  -27.8342  -52.4079 H         1 UNK         0.0600 
    214 H214       -2.5272  -26.2274  -52.1689 H         1 UNK         0.0600 
    215 H215       -6.8554  -25.6710  -50.8546 H         1 UNK         0.3000 
    216 H216       -8.9639  -26.1398  -51.2935 H         1 UNK         0.0600 
    217 H217       -9.8424  -28.4153  -51.0069 H         1 UNK         0.0600 
    218 H218       -8.6104  -28.1215  -49.7922 H         1 UNK         0.0600 
    219 H219       -8.2423  -29.1153  -51.2012 H         1 UNK         0.0600 
    220 H220       -7.0152  -25.7825  -53.5319 H         1 UNK         0.3000 
    221 H221       -8.7402  -26.6401  -55.7743 H         1 UNK         0.0600 
    222 H222       -5.7869  -27.4401  -55.5379 H         1 UNK         0.0600 
    223 H223       -7.1502  -28.5495  -55.4131 H         1 UNK         0.0600 
    224 H224       -6.8242  -27.7341  -56.9311 H         1 UNK         0.0600 
    225 H225       -7.8773  -24.1198  -54.4146 H         1 UNK         0.3000 
    226 H226       -7.4368  -22.0145  -54.8077 H         1 UNK         0.0600 
    227 H227       -8.7263  -22.1282  -56.9238 H         1 UNK         0.0600 
    228 H228       -7.3717  -21.0164  -57.0568 H         1 UNK         0.0600 
    229 H229       -7.2768  -22.5982  -57.8104 H         1 UNK         0.0600 
    230 H230       -5.3328  -23.9048  -56.9640 H         1 UNK         0.3000 
    231 H231       -3.1344  -23.9644  -57.3676 H         1 UNK         0.0600 
    232 H232       -3.2305  -24.0218  -54.3196 H         1 UNK         0.0600 
    233 H233       -1.7954  -24.4502  -55.2510 H         1 UNK         0.0600 
    234 H234       -3.2756  -25.3740  -55.4345 H         1 UNK         0.0600 
    235 H235       -2.1223  -22.1400  -54.5314 H         1 UNK         0.3000 
    236 H236       -0.6320  -20.3058  -56.2854 H         1 UNK         0.0600 
    237 H237        0.5109  -19.6649  -54.2092 H         1 UNK         0.0600 
    238 H238       -0.6317  -20.5770  -53.2378 H         1 UNK         0.0600 
    239 H239        0.4719  -21.4179  -54.3264 H         1 UNK         0.0600 
    240 H240       -3.6448  -20.2797  -54.5323 H         1 UNK         0.3000 
    241 H241       -3.7148  -17.3554  -54.2107 H         1 UNK         0.0600 
    242 H242       -5.2141  -15.9518  -55.3451 H         1 UNK         0.3800 
    243 H243       -5.9437  -16.4732  -56.8358 H         1 UNK         0.3800 
    244 H244       -5.9900  -17.7678  -53.2251 H         1 UNK         0.0800 
    245 H245       -5.8117  -19.4729  -53.5295 H         1 UNK         0.0800 
    246 H246       -3.6551  -16.4898  -51.9588 H         1 UNK         0.0800 
    247 H247       -5.2163  -16.5610  -51.1764 H         1 UNK         0.0800 
@<TRIPOS>BOND
     1    1    2 1    
     2    1  127 1    
     3    1  128 1    
     4    1  129 1    
     5    2    3 2    
     6    2    4 am   BACKBONE|DICT|INTERRES
     7    4    5 1    
     8    4  130 1    
     9    5    6 1    
    10    5   65 1    
    11    5  131 1    
    12    6    7 1    
    13    6  132 1    
    14    6  133 1    
    15    7    8 1    
    16    8    9 1    
    17    8  134 1    
    18    8  135 1    
    19    9   10 ar   
    20    9   14 ar   
    21   10   11 ar   
    22   10  136 1    
    23   11   12 ar   
    24   11  126 1    
    25   12   13 ar   
    26   12  137 1    
    27   13   14 ar   
    28   13   15 1    
    29   14  138 1    
    30   15   16 1    
    31   15  139 1    
    32   15  140 1    
    33   16   17 1    
    34   17   18 1    
    35   17  141 1    
    36   17  142 1    
    37   18   19 1    
    38   18   67 1    
    39   18  143 1    
    40   19   20 am   BACKBONE|DICT|INTERRES
    41   19  144 1    
    42   20   21 2    
    43   20   22 1    
    44   22   23 1    
    45   22   24 1    
    46   22  145 1    
    47   23  146 1    
    48   23  147 1    
    49   23  148 1    
    50   24   25 am   BACKBONE|DICT|INTERRES
    51   24  149 1    
    52   25   26 2    
    53   25   27 1    
    54   27   28 1    
    55   27   29 1    
    56   27  150 1    
    57   28  151 1    
    58   28  152 1    
    59   28  153 1    
    60   29   30 am   BACKBONE|DICT|INTERRES
    61   29  154 1    
    62   30   31 2    
    63   30   32 1    
    64   32   33 1    
    65   32   34 1    
    66   32  155 1    
    67   33  156 1    
    68   33  157 1    
    69   33  158 1    
    70   34   35 am   BACKBONE|DICT|INTERRES
    71   34  159 1    
    72   35   36 2    
    73   35   37 1    
    74   37   38 1    
    75   37   39 1    
    76   37  160 1    
    77   38  161 1    
    78   38  162 1    
    79   38  163 1    
    80   39   40 am   BACKBONE|DICT|INTERRES
    81   39  164 1    
    82   40   41 2    
    83   40   42 1    
    84   42   43 1    
    85   42   44 1    
    86   42  165 1    
    87   43  166 1    
    88   43  167 1    
    89   43  168 1    
    90   44   45 am   BACKBONE|DICT|INTERRES
    91   44  169 1    
    92   45   46 2    
    93   45   47 1    
    94   47   48 1    
    95   47   49 1    
    96   47  170 1    
    97   48  171 1    
    98   48  172 1    
    99   48  173 1    
   100   49   50 am   BACKBONE|DICT|INTERRES
   101   49  174 1    
   102   50   51 2    
   103   50   52 1    
   104   52   53 1    
   105   52   54 1    
   106   52  175 1    
   107   53  176 1    
   108   53  177 1    
   109   53  178 1    
   110   54   55 am   BACKBONE|DICT|INTERRES
   111   54  179 1    
   112   55   56 2    
   113   55   57 1    
   114   57   58 1    
   115   57   59 1    
   116   57  180 1    
   117   58  181 1    
   118   58  182 1    
   119   58  183 1    
   120   59   60 am   BACKBONE|DICT|INTERRES
   121   59  184 1    
   122   60   61 2    
   123   60   62 1    
   124   62   63 1    
   125   62   64 1    
   126   62  185 1    
   127   63  186 1    
   128   63  187 1    
   129   63  188 1    
   130   64   65 am   BACKBONE|DICT|INTERRES
   131   64  189 1    
   132   65   66 2    
   133   67   68 2    
   134   67   69 am   BACKBONE|DICT|INTERRES
   135   69   70 1    
   136   69  190 1    
   137   70   71 1    
   138   70   72 1    
   139   70  191 1    
   140   71  192 1    
   141   71  193 1    
   142   71  194 1    
   143   72   73 2    
   144   72   74 am   BACKBONE|DICT|INTERRES
   145   74   75 1    
   146   74  195 1    
   147   75   76 1    
   148   75   77 1    
   149   75  196 1    
   150   76  197 1    
   151   76  198 1    
   152   76  199 1    
   153   77   78 2    
   154   77   79 am   BACKBONE|DICT|INTERRES
   155   79   80 1    
   156   79  200 1    
   157   80   81 1    
   158   80   82 1    
   159   80  201 1    
   160   81  202 1    
   161   81  203 1    
   162   81  204 1    
   163   82   83 2    
   164   82   84 am   BACKBONE|DICT|INTERRES
   165   84   85 1    
   166   84  205 1    
   167   85   86 1    
   168   85   87 1    
   169   85  206 1    
   170   86  207 1    
   171   86  208 1    
   172   86  209 1    
   173   87   88 2    
   174   87   89 am   BACKBONE|DICT|INTERRES
   175   89   90 1    
   176   89  210 1    
   177   90   91 1    
   178   90   92 1    
   179   90  211 1    
   180   91  212 1    
   181   91  213 1    
   182   91  214 1    
   183   92   93 2    
   184   92   94 am   BACKBONE|DICT|INTERRES
   185   94   95 1    
   186   94  215 1    
   187   95   96 1    
   188   95   97 1    
   189   95  216 1    
   190   96  217 1    
   191   96  218 1    
   192   96  219 1    
   193   97   98 2    
   194   97   99 am   BACKBONE|DICT|INTERRES
   195   99  100 1    
   196   99  220 1    
   197  100  101 1    
   198  100  102 1    
   199  100  221 1    
   200  101  222 1    
   201  101  223 1    
   202  101  224 1    
   203  102  103 2    
   204  102  104 am   BACKBONE|DICT|INTERRES
   205  104  105 1    
   206  104  225 1    
   207  105  106 1    
   208  105  107 1    
   209  105  226 1    
   210  106  227 1    
   211  106  228 1    
   212  106  229 1    
   213  107  108 2    
   214  107  109 am   BACKBONE|DICT|INTERRES
   215  109  110 1    
   216  109  230 1    
   217  110  111 1    
   218  110  112 1    
   219  110  231 1    
   220  111  232 1    
   221  111  233 1    
   222  111  234 1    
   223  112  113 2    
   224  112  114 am   BACKBONE|DICT|INTERRES
   225  114  115 1    
   226  114  235 1    
   227  115  116 1    
   228  115  117 1    
   229  115  236 1    
   230  116  237 1    
   231  116  238 1    
   232  116  239 1    
   233  117  118 2    
   234  117  119 am   BACKBONE|DICT|INTERRES
   235  119  120 1    
   236  119  240 1    
   237  120  121 1    
   238  120  124 1    
   239  120  241 1    
   240  121  122 am   BACKBONE|DICT|INTERRES
   241  121  123 2    
   242  122  242 1    
   243  122  243 1    
   244  124  125 1    
   245  124  244 1    
   246  124  245 1    
   247  125  126 1    
   248  126  246 1    
   249  126  247 1    
@<TRIPOS>SUBSTRUCTURE
     1 UNK         1 GROUP             0       ****    0 ROOT    
