@<TRIPOS>MOLECULE
3R540
247   249    1
SMALL
USER_CHARGES


@<TRIPOS>ATOM
      1 CA          6.3288  -12.2724  -47.2362 C.3       0 UNK        -0.1800 
      2 C           5.1150  -13.1903  -47.2686 C.2       0 UNK         0.5000 
      3 O           5.2602  -14.4026  -47.1181 O.2       0 UNK        -0.5000 
      4 N           3.9246  -12.6157  -47.4613 N.am      1 UNK        -0.5000 
      5 CA          2.6289  -13.2915  -47.4502 C.3       1 UNK         0.1400 
      6 C6          2.3964  -14.1783  -48.7043 C.3       23 UNK        -0.0398 
      7 S7          1.2969  -15.5910  -48.3600 S.3       23 UNK        -0.2404 
      8 C8          0.8501  -16.0611  -50.0551 C.3       23 UNK        -0.0205 
      9 C9          0.2566  -17.4581  -50.0975 C.ar      23 UNK        -0.0193 
     10 C10        -1.1282  -17.6444  -50.0748 C.ar      23 UNK        -0.1150 
     11 C11        -1.6702  -18.9313  -50.1452 C.ar      23 UNK        -0.0193 
     12 C12        -0.8164  -20.0345  -50.2368 C.ar      23 UNK        -0.1150 
     13 C13         0.5712  -19.8588  -50.2546 C.ar      23 UNK        -0.0193 
     14 C14         1.1003  -18.5683  -50.1816 C.ar      23 UNK        -0.1150 
     15 C15         1.5040  -21.0558  -50.3683 C.3       23 UNK        -0.0205 
     16 S16         2.0064  -21.6762  -48.7330 S.3       23 UNK        -0.2404 
     17 C17         0.4198  -22.3484  -48.1523 C.3       23 UNK        -0.0398 
     18 CA          0.5802  -23.3974  -47.0330 C.3       11 UNK         0.1400 
     19 N           1.0263  -22.8170  -45.7638 N.am      11 UNK        -0.5000 
     20 C           1.3669  -23.5351  -44.6838 C.2       10 UNK         0.5000 
     21 O           1.4426  -24.7641  -44.6757 O.2       10 UNK        -0.5000 
     22 CA          1.6050  -22.7574  -43.3768 C.3       10 UNK         0.1400 
     23 CB          3.0361  -22.2034  -43.3174 C.3       10 UNK        -0.1800 
     24 N           0.6387  -21.6735  -43.1853 N.am      10 UNK        -0.5000 
     25 C          -0.6803  -21.8570  -43.0234 C.2       9 UNK         0.5000 
     26 O          -1.2096  -22.9661  -42.9599 O.2       9 UNK        -0.5000 
     27 CA         -1.5651  -20.5980  -42.9672 C.3       9 UNK         0.1400 
     28 CB         -1.5595  -19.9894  -41.5579 C.3       9 UNK        -0.1800 
     29 N          -1.1702  -19.5855  -43.9466 N.am      9 UNK        -0.5000 
     30 C          -1.2256  -19.7483  -45.2764 C.2       8 UNK         0.5000 
     31 O          -1.6719  -20.7574  -45.8201 O.2       8 UNK        -0.5000 
     32 CA         -0.6378  -18.6188  -46.1423 C.3       8 UNK         0.1400 
     33 CB         -1.6704  -17.5059  -46.3752 C.3       8 UNK        -0.1800 
     34 N           0.5764  -18.0518  -45.5551 N.am      8 UNK        -0.5000 
     35 C           1.7295  -18.7219  -45.4211 C.2       7 UNK         0.5000 
     36 O           1.8940  -19.8817  -45.7984 O.2       7 UNK        -0.5000 
     37 CA          2.8657  -17.9931  -44.6819 C.3       7 UNK         0.1400 
     38 CB          3.5470  -16.9638  -45.5931 C.3       7 UNK        -0.1800 
     39 N           2.3934  -17.3321  -43.4644 N.am      7 UNK        -0.5000 
     40 C           1.9707  -17.9890  -42.3734 C.2       6 UNK         0.5000 
     41 O           1.9800  -19.2150  -42.2720 O.2       6 UNK        -0.5000 
     42 CA          1.4033  -17.1456  -41.2143 C.3       6 UNK         0.1400 
     43 CB          2.5222  -16.7544  -40.2380 C.3       6 UNK        -0.1800 
     44 N           0.7089  -15.9363  -41.6561 N.am      6 UNK        -0.5000 
     45 C          -0.3423  -15.9023  -42.4868 C.2       5 UNK         0.5000 
     46 O          -0.8959  -16.9104  -42.9242 O.2       5 UNK        -0.5000 
     47 CA         -0.8368  -14.5164  -42.9415 C.3       5 UNK         0.1400 
     48 CB         -2.1291  -14.1391  -42.2030 C.3       5 UNK        -0.1800 
     49 N           0.1355  -13.4312  -42.7788 N.am      5 UNK        -0.5000 
     50 C           1.3362  -13.3491  -43.3673 C.2       4 UNK         0.5000 
     51 O           1.8220  -14.2483  -44.0565 O.2       4 UNK        -0.5000 
     52 CA          2.0811  -12.0138  -43.1739 C.3       4 UNK         0.1400 
     53 CB          3.5270  -12.0525  -43.6959 C.3       4 UNK        -0.1800 
     54 N           1.3469  -10.9527  -43.8612 N.am      4 UNK        -0.5000 
     55 C           0.2968  -10.2928  -43.3511 C.2       3 UNK         0.5000 
     56 O          -0.0675  -10.3951  -42.1789 O.2       3 UNK        -0.5000 
     57 CA         -0.5282   -9.4397  -44.3340 C.3       3 UNK         0.1400 
     58 CB          0.0474   -8.0197  -44.4378 C.3       3 UNK        -0.1800 
     59 N          -0.5868  -10.0373  -45.6696 N.am      3 UNK        -0.5000 
     60 C          -1.1702  -11.2077  -45.9650 C.2       2 UNK         0.5000 
     61 O          -1.8366  -11.8633  -45.1641 O.2       2 UNK        -0.5000 
     62 CA         -0.9407  -11.7623  -47.3835 C.3       2 UNK         0.1400 
     63 CB         -0.9396  -10.6682  -48.4731 C.3       2 UNK        -0.1800 
     64 N           0.2693  -12.5890  -47.4674 N.am      2 UNK        -0.5000 
     65 C           1.5379  -12.2217  -47.2345 C.2       1 UNK         0.5000 
     66 O           1.8674  -11.0895  -46.8653 O.2       1 UNK        -0.5000 
     67 C          -0.7293  -24.1894  -46.8595 C.2       11 UNK         0.5000 
     68 O          -0.7930  -25.3375  -47.2953 O.2       11 UNK        -0.5000 
     69 N          -1.7315  -23.5902  -46.2003 N.am      12 UNK        -0.5000 
     70 CA         -3.0354  -24.2037  -45.9392 C.3       12 UNK         0.1400 
     71 CB         -3.9706  -23.1784  -45.2825 C.3       12 UNK        -0.1800 
     72 C          -2.9429  -25.4864  -45.0920 C.2       12 UNK         0.5000 
     73 O          -3.6321  -26.4602  -45.3950 O.2       12 UNK        -0.5000 
     74 N          -2.0502  -25.4925  -44.0921 N.am      13 UNK        -0.5000 
     75 CA         -1.7210  -26.6590  -43.2682 C.3       13 UNK         0.1400 
     76 CB         -0.8144  -26.2195  -42.1088 C.3       13 UNK        -0.1800 
     77 C          -1.0659  -27.8066  -44.0649 C.2       13 UNK         0.5000 
     78 O          -1.2686  -28.9727  -43.7255 O.2       13 UNK        -0.5000 
     79 N          -0.3225  -27.4601  -45.1239 N.am      14 UNK        -0.5000 
     80 CA          0.2788  -28.3921  -46.0804 C.3       14 UNK         0.1400 
     81 CB          1.5805  -27.7706  -46.6150 C.3       14 UNK        -0.1800 
     82 C          -0.6726  -28.7608  -47.2411 C.2       14 UNK         0.5000 
     83 O          -0.2845  -29.5508  -48.1028 O.2       14 UNK        -0.5000 
     84 N          -1.8840  -28.1826  -47.2532 N.am      15 UNK        -0.5000 
     85 CA         -2.9323  -28.2970  -48.2725 C.3       15 UNK         0.1400 
     86 CB         -3.4584  -29.7446  -48.3676 C.3       15 UNK        -0.1800 
     87 C          -2.5349  -27.7030  -49.6427 C.2       15 UNK         0.5000 
     88 O          -3.0360  -28.1545  -50.6745 O.2       15 UNK        -0.5000 
     89 N          -1.6598  -26.6904  -49.6334 N.am      16 UNK        -0.5000 
     90 CA         -1.2453  -25.9262  -50.8056 C.3       16 UNK         0.1400 
     91 CB          0.2612  -25.6380  -50.7020 C.3       16 UNK        -0.1800 
     92 C          -2.0407  -24.6130  -50.8697 C.2       16 UNK         0.5000 
     93 O          -2.2511  -23.9739  -49.8371 O.2       16 UNK        -0.5000 
     94 N          -2.4414  -24.2147  -52.0796 N.am      17 UNK        -0.5000 
     95 CA         -3.1604  -22.9780  -52.3696 C.3       17 UNK         0.1400 
     96 CB         -4.5981  -23.0372  -51.8125 C.3       17 UNK        -0.1800 
     97 C          -3.1861  -22.7584  -53.8878 C.2       17 UNK         0.5000 
     98 O          -3.0297  -23.7150  -54.6519 O.2       17 UNK        -0.5000 
     99 N          -3.4221  -21.5076  -54.2875 N.am      18 UNK        -0.5000 
    100 CA        -3.7068  -21.0861  -55.6516 C.3       18 UNK         0.1400 
    101 CB        -2.5082  -20.2992  -56.2083 C.3       18 UNK        -0.1800 
    102 C         -4.9638  -20.2175  -55.5540 C.2       18 UNK         0.5000 
    103 O         -4.8758  -19.0877  -55.0722 O.2       18 UNK        -0.5000 
    104 N         -6.1196  -20.7737  -55.9397 N.am      19 UNK        -0.5000 
    105 CA        -7.4597  -20.2168  -55.7051 C.3       19 UNK         0.1400 
    106 CB        -8.5073  -21.1558  -56.3216 C.3       19 UNK        -0.1800 
    107 C         -7.6782  -18.7725  -56.1985 C.2       19 UNK         0.5000 
    108 O         -8.4455  -18.0341  -55.5803 O.2       19 UNK        -0.5000 
    109 N         -6.9717  -18.3821  -57.2677 N.am      20 UNK        -0.5000 
    110 CA        -6.9667  -17.0251  -57.8189 C.3       20 UNK         0.1400 
    111 CB        -6.1977  -17.0325  -59.1490 C.3       20 UNK        -0.1800 
    112 C         -6.3787  -15.9646  -56.8636 C.2       20 UNK         0.5000 
    113 O         -6.7532  -14.7954  -56.9644 O.2       20 UNK        -0.5000 
    114 N         -5.4814  -16.3847  -55.9622 N.am      21 UNK        -0.5000 
    115 CA        -4.8705  -15.5455  -54.9337 C.3       21 UNK         0.1400 
    116 CB        -3.3542  -15.8007  -54.9143 C.3       21 UNK        -0.1800 
    117 C         -5.4787  -15.8359  -53.5521 C.2       21 UNK         0.5000 
    118 O         -5.7642  -14.8989  -52.8053 O.2       21 UNK        -0.5000 
    119 N         -5.6494  -17.1242  -53.2325 N.am      22 UNK        -0.5000 
    120 CA        -6.0909  -17.6139  -51.9175 C.3       22 UNK         0.1400 
    121 C         -7.6219  -17.5084  -51.6661 C.2       22 UNK         0.5000 
    122 N         -8.4602  -17.3269  -52.6792 N.am      22 UNK        -0.7600 
    123 O         -8.0593  -17.5857  -50.5214 O.2       22 UNK        -0.5000 
    124 C124       -5.5881  -19.0554  -51.6401 C.3       23 UNK        -0.0398 
    125 S125       -3.7840  -19.2300  -51.8611 S.3       23 UNK        -0.2404 
    126 C126       -3.1774  -19.1249  -50.1529 C.3       23 UNK        -0.0205 
    127 H127        6.8357  -12.3557  -46.2748 H         1 UNK         0.0600 
    128 H128        6.0515  -11.2284  -47.3849 H         1 UNK         0.0600 
    129 H129        7.0325  -12.5527  -48.0201 H         1 UNK         0.0600 
    130 H130        3.8466  -11.6074  -47.5232 H         1 UNK         0.3000 
    131 H131        2.6164  -13.9214  -46.5601 H         1 UNK         0.0600 
    132 H132        3.3385  -14.6033  -49.0524 H         1 UNK         0.0800 
    133 H133        2.0130  -13.5913  -49.5412 H         1 UNK         0.0800 
    134 H134        0.1466  -15.3329  -50.4617 H         1 UNK         0.0800 
    135 H135        1.7357  -16.0244  -50.6917 H         1 UNK         0.0800 
    136 H136       -1.7842  -16.7874  -50.0150 H         1 UNK         0.1150 
    137 H137       -1.2342  -21.0293  -50.2988 H         1 UNK         0.1150 
    138 H138        2.1720  -18.4268  -50.1942 H         1 UNK         0.1150 
    139 H139        1.0313  -21.8556  -50.9407 H         1 UNK         0.0800 
    140 H140        2.3983  -20.7743  -50.9261 H         1 UNK         0.0800 
    141 H141       -0.0783  -22.7926  -49.0143 H         1 UNK         0.0800 
    142 H142       -0.2126  -21.5230  -47.8264 H         1 UNK         0.0800 
    143 H143        1.3420  -24.1134  -47.3495 H         1 UNK         0.0600 
    144 H144        1.0501  -21.8042  -45.7079 H         1 UNK         0.3000 
    145 H145        1.4823  -23.4596  -42.5497 H         1 UNK         0.0600 
    146 H146        3.2347  -21.7292  -42.3562 H         1 UNK         0.0600 
    147 H147        3.7687  -23.0014  -43.4436 H         1 UNK         0.0600 
    148 H148        3.2177  -21.4648  -44.0981 H         1 UNK         0.0600 
    149 H149        1.0119  -20.7299  -43.1695 H         1 UNK         0.3000 
    150 H150       -2.5885  -20.8985  -43.1995 H         1 UNK         0.0600 
    151 H151       -1.9291  -20.7064  -40.8239 H         1 UNK         0.0600 
    152 H152       -2.1989  -19.1080  -41.5042 H         1 UNK         0.0600 
    153 H153       -0.5563  -19.6964  -41.2511 H         1 UNK         0.0600 
    154 H154       -0.8529  -18.6918  -43.5803 H         1 UNK         0.3000 
    155 H155       -0.3742  -19.0435  -47.1137 H         1 UNK         0.0600 
    156 H156       -1.9707  -17.0282  -45.4422 H         1 UNK         0.0600 
    157 H157       -1.2757  -16.7347  -47.0364 H         1 UNK         0.0600 
    158 H158       -2.5697  -17.9050  -46.8458 H         1 UNK         0.0600 
    159 H159        0.5106  -17.1174  -45.1806 H         1 UNK         0.3000 
    160 H160        3.6111  -18.7397  -44.3995 H         1 UNK         0.0600 
    161 H161        4.4179  -16.5214  -45.1093 H         1 UNK         0.0600 
    162 H162        2.8684  -16.1540  -45.8572 H         1 UNK         0.0600 
    163 H163        3.8871  -17.4228  -46.5222 H         1 UNK         0.0600 
    164 H164        2.3217  -16.3215  -43.4910 H         1 UNK         0.3000 
    165 H165        0.6812  -17.7619  -40.6763 H         1 UNK         0.0600 
    166 H166        2.1233  -16.2316  -39.3686 H         1 UNK         0.0600 
    167 H167        3.0469  -17.6379  -39.8716 H         1 UNK         0.0600 
    168 H168        3.2610  -16.1063  -40.7113 H         1 UNK         0.0600 
    169 H169        1.0951  -15.0556  -41.3513 H         1 UNK         0.3000 
    170 H170       -1.0630  -14.5924  -44.0071 H         1 UNK         0.0600 
    171 H171       -1.9587  -14.0140  -41.1330 H         1 UNK         0.0600 
    172 H172       -2.5447  -13.2080  -42.5894 H         1 UNK         0.0600 
    173 H173       -2.8914  -14.9094  -42.3278 H         1 UNK         0.0600 
    174 H174       -0.1849  -12.6215  -42.2618 H         1 UNK         0.3000 
    175 H175        2.1213  -11.8044  -42.1028 H         1 UNK         0.0600 
    176 H176        4.0390  -11.1091  -43.5060 H         1 UNK         0.0600 
    177 H177        3.5639  -12.2408  -44.7669 H         1 UNK         0.0600 
    178 H178        4.0998  -12.8397  -43.2042 H         1 UNK         0.0600 
    179 H179        1.5437  -10.8418  -44.8505 H         1 UNK         0.3000 
    180 H180       -1.5469   -9.3727  -43.9465 H         1 UNK         0.0600 
    181 H181        1.0605   -8.0241  -44.8420 H         1 UNK         0.0600 
    182 H182        0.0862   -7.5421  -43.4578 H         1 UNK         0.0600 
    183 H183       -0.5684   -7.3907  -45.0809 H         1 UNK         0.0600 
    184 H184       -0.0136   -9.6065  -46.3817 H         1 UNK         0.3000 
    185 H185       -1.7808  -12.4261  -47.5937 H         1 UNK         0.0600 
    186 H186       -0.0818   -9.9999  -48.3976 H         1 UNK         0.0600 
    187 H187       -0.9208  -11.1132  -49.4679 H         1 UNK         0.0600 
    188 H188       -1.8400  -10.0557  -48.4112 H         1 UNK         0.0600 
    189 H189        0.1096  -13.5539  -47.7273 H         1 UNK         0.3000 
    190 H190       -1.6196  -22.6223  -45.9073 H         1 UNK         0.3000 
    191 H191       -3.4614  -24.4788  -46.9066 H         1 UNK         0.0600 
    192 H192       -4.0897  -22.2948  -45.9099 H         1 UNK         0.0600 
    193 H193       -4.9632  -23.6015  -45.1238 H         1 UNK         0.0600 
    194 H194       -3.5940  -22.8529  -44.3131 H         1 UNK         0.0600 
    195 H195       -1.5680  -24.6258  -43.8675 H         1 UNK         0.3000 
    196 H196       -2.6525  -27.0417  -42.8462 H         1 UNK         0.0600 
    197 H197       -0.5726  -27.0618  -41.4595 H         1 UNK         0.0600 
    198 H198       -1.3009  -25.4629  -41.4930 H         1 UNK         0.0600 
    199 H199        0.1257  -25.8019  -42.4703 H         1 UNK         0.0600 
    200 H200       -0.2052  -26.4760  -45.3322 H         1 UNK         0.3000 
    201 H201        0.5363  -29.3198  -45.5658 H         1 UNK         0.0600 
    202 H202        2.2613  -27.5209  -45.8009 H         1 UNK         0.0600 
    203 H203        1.3909  -26.8588  -47.1817 H         1 UNK         0.0600 
    204 H204        2.1043  -28.4628  -47.2752 H         1 UNK         0.0600 
    205 H205       -2.0956  -27.5371  -46.5026 H         1 UNK         0.3000 
    206 H206       -3.7566  -27.6782  -47.9158 H         1 UNK         0.0600 
    207 H207       -3.7360  -30.1282  -47.3858 H         1 UNK         0.0600 
    208 H208       -4.3474  -29.7969  -48.9972 H         1 UNK         0.0600 
    209 H209       -2.7169  -30.4196  -48.7955 H         1 UNK         0.0600 
    210 H210       -1.3501  -26.3177  -48.7373 H         1 UNK         0.3000 
    211 H211       -1.4232  -26.5001  -51.7174 H         1 UNK         0.0600 
    212 H212        0.5054  -25.0742  -49.8015 H         1 UNK         0.0600 
    213 H213        0.6093  -25.0584  -51.5578 H         1 UNK         0.0600 
    214 H214        0.8361  -26.5639  -50.6790 H         1 UNK         0.0600 
    215 H215       -2.2302  -24.7677  -52.9017 H         1 UNK         0.3000 
    216 H216       -2.6237  -22.1454  -51.9115 H         1 UNK         0.0600 
    217 H217       -5.1674  -22.1501  -52.0910 H         1 UNK         0.0600 
    218 H218       -4.6062  -23.0881  -50.7240 H         1 UNK         0.0600 
    219 H219       -5.1381  -23.9051  -52.1926 H         1 UNK         0.0600 
    220 H220       -3.5543  -20.7839  -53.5898 H         1 UNK         0.3000 
    221 H221       -3.9071  -21.9417  -56.2999 H         1 UNK         0.0600 
    222 H222       -2.2586  -19.4407  -55.5828 H         1 UNK         0.0600 
    223 H223       -1.6224  -20.9311  -56.2730 H         1 UNK         0.0600 
    224 H224       -2.7184  -19.9266  -57.2114 H         1 UNK         0.0600 
    225 H225       -6.0960  -21.7084  -56.3217 H         1 UNK         0.3000 
    226 H226       -7.6124  -20.2052  -54.6239 H         1 UNK         0.0600 
    227 H227       -8.4487  -22.1538  -55.8868 H         1 UNK         0.0600 
    228 H228       -9.5182  -20.7859  -56.1442 H         1 UNK         0.0600 
    229 H229       -8.3766  -21.2499  -57.4003 H         1 UNK         0.0600 
    230 H230       -6.3584  -19.0536  -57.7054 H         1 UNK         0.3000 
    231 H231       -8.0017  -16.7433  -58.0231 H         1 UNK         0.0600 
    232 H232       -5.1579  -17.3313  -59.0102 H         1 UNK         0.0600 
    233 H233       -6.1965  -16.0417  -59.6054 H         1 UNK         0.0600 
    234 H234       -6.6526  -17.7175  -59.8648 H         1 UNK         0.0600 
    235 H235       -5.2626  -17.3747  -55.9157 H         1 UNK         0.3000 
    236 H236       -5.0304  -14.4882  -55.1550 H         1 UNK         0.0600 
    237 H237       -2.9016  -15.5493  -55.8734 H         1 UNK         0.0600 
    238 H238       -2.8652  -15.1916  -54.1530 H         1 UNK         0.0600 
    239 H239       -3.1214  -16.8447  -54.6986 H         1 UNK         0.0600 
    240 H240       -5.3584  -17.8393  -53.8952 H         1 UNK         0.3000 
    241 H241       -5.6271  -16.9722  -51.1657 H         1 UNK         0.0600 
    242 H242       -9.4473  -17.2545  -52.4912 H         1 UNK         0.3800 
    243 H243       -8.1392  -17.3123  -53.6394 H         1 UNK         0.3800 
    244 H244       -5.8560  -19.3732  -50.6308 H         1 UNK         0.0800 
    245 H245       -6.0758  -19.7568  -52.3189 H         1 UNK         0.0800 
    246 H246       -3.6654  -18.2954  -49.6386 H         1 UNK         0.0800 
    247 H247       -3.4455  -20.0331  -49.6106 H         1 UNK         0.0800 
@<TRIPOS>BOND
     1    1    2 1    
     2    1  127 1    
     3    1  128 1    
     4    1  129 1    
     5    2    3 2    
     6    2    4 am   BACKBONE|DICT|INTERRES
     7    4    5 1    
     8    4  130 1    
     9    5    6 1    
    10    5   65 1    
    11    5  131 1    
    12    6    7 1    
    13    6  132 1    
    14    6  133 1    
    15    7    8 1    
    16    8    9 1    
    17    8  134 1    
    18    8  135 1    
    19    9   10 ar   
    20    9   14 ar   
    21   10   11 ar   
    22   10  136 1    
    23   11   12 ar   
    24   11  126 1    
    25   12   13 ar   
    26   12  137 1    
    27   13   14 ar   
    28   13   15 1    
    29   14  138 1    
    30   15   16 1    
    31   15  139 1    
    32   15  140 1    
    33   16   17 1    
    34   17   18 1    
    35   17  141 1    
    36   17  142 1    
    37   18   19 1    
    38   18   67 1    
    39   18  143 1    
    40   19   20 am   BACKBONE|DICT|INTERRES
    41   19  144 1    
    42   20   21 2    
    43   20   22 1    
    44   22   23 1    
    45   22   24 1    
    46   22  145 1    
    47   23  146 1    
    48   23  147 1    
    49   23  148 1    
    50   24   25 am   BACKBONE|DICT|INTERRES
    51   24  149 1    
    52   25   26 2    
    53   25   27 1    
    54   27   28 1    
    55   27   29 1    
    56   27  150 1    
    57   28  151 1    
    58   28  152 1    
    59   28  153 1    
    60   29   30 am   BACKBONE|DICT|INTERRES
    61   29  154 1    
    62   30   31 2    
    63   30   32 1    
    64   32   33 1    
    65   32   34 1    
    66   32  155 1    
    67   33  156 1    
    68   33  157 1    
    69   33  158 1    
    70   34   35 am   BACKBONE|DICT|INTERRES
    71   34  159 1    
    72   35   36 2    
    73   35   37 1    
    74   37   38 1    
    75   37   39 1    
    76   37  160 1    
    77   38  161 1    
    78   38  162 1    
    79   38  163 1    
    80   39   40 am   BACKBONE|DICT|INTERRES
    81   39  164 1    
    82   40   41 2    
    83   40   42 1    
    84   42   43 1    
    85   42   44 1    
    86   42  165 1    
    87   43  166 1    
    88   43  167 1    
    89   43  168 1    
    90   44   45 am   BACKBONE|DICT|INTERRES
    91   44  169 1    
    92   45   46 2    
    93   45   47 1    
    94   47   48 1    
    95   47   49 1    
    96   47  170 1    
    97   48  171 1    
    98   48  172 1    
    99   48  173 1    
   100   49   50 am   BACKBONE|DICT|INTERRES
   101   49  174 1    
   102   50   51 2    
   103   50   52 1    
   104   52   53 1    
   105   52   54 1    
   106   52  175 1    
   107   53  176 1    
   108   53  177 1    
   109   53  178 1    
   110   54   55 am   BACKBONE|DICT|INTERRES
   111   54  179 1    
   112   55   56 2    
   113   55   57 1    
   114   57   58 1    
   115   57   59 1    
   116   57  180 1    
   117   58  181 1    
   118   58  182 1    
   119   58  183 1    
   120   59   60 am   BACKBONE|DICT|INTERRES
   121   59  184 1    
   122   60   61 2    
   123   60   62 1    
   124   62   63 1    
   125   62   64 1    
   126   62  185 1    
   127   63  186 1    
   128   63  187 1    
   129   63  188 1    
   130   64   65 am   BACKBONE|DICT|INTERRES
   131   64  189 1    
   132   65   66 2    
   133   67   68 2    
   134   67   69 am   BACKBONE|DICT|INTERRES
   135   69   70 1    
   136   69  190 1    
   137   70   71 1    
   138   70   72 1    
   139   70  191 1    
   140   71  192 1    
   141   71  193 1    
   142   71  194 1    
   143   72   73 2    
   144   72   74 am   BACKBONE|DICT|INTERRES
   145   74   75 1    
   146   74  195 1    
   147   75   76 1    
   148   75   77 1    
   149   75  196 1    
   150   76  197 1    
   151   76  198 1    
   152   76  199 1    
   153   77   78 2    
   154   77   79 am   BACKBONE|DICT|INTERRES
   155   79   80 1    
   156   79  200 1    
   157   80   81 1    
   158   80   82 1    
   159   80  201 1    
   160   81  202 1    
   161   81  203 1    
   162   81  204 1    
   163   82   83 2    
   164   82   84 am   BACKBONE|DICT|INTERRES
   165   84   85 1    
   166   84  205 1    
   167   85   86 1    
   168   85   87 1    
   169   85  206 1    
   170   86  207 1    
   171   86  208 1    
   172   86  209 1    
   173   87   88 2    
   174   87   89 am   BACKBONE|DICT|INTERRES
   175   89   90 1    
   176   89  210 1    
   177   90   91 1    
   178   90   92 1    
   179   90  211 1    
   180   91  212 1    
   181   91  213 1    
   182   91  214 1    
   183   92   93 2    
   184   92   94 am   BACKBONE|DICT|INTERRES
   185   94   95 1    
   186   94  215 1    
   187   95   96 1    
   188   95   97 1    
   189   95  216 1    
   190   96  217 1    
   191   96  218 1    
   192   96  219 1    
   193   97   98 2    
   194   97   99 am   BACKBONE|DICT|INTERRES
   195   99  100 1    
   196   99  220 1    
   197  100  101 1    
   198  100  102 1    
   199  100  221 1    
   200  101  222 1    
   201  101  223 1    
   202  101  224 1    
   203  102  103 2    
   204  102  104 am   BACKBONE|DICT|INTERRES
   205  104  105 1    
   206  104  225 1    
   207  105  106 1    
   208  105  107 1    
   209  105  226 1    
   210  106  227 1    
   211  106  228 1    
   212  106  229 1    
   213  107  108 2    
   214  107  109 am   BACKBONE|DICT|INTERRES
   215  109  110 1    
   216  109  230 1    
   217  110  111 1    
   218  110  112 1    
   219  110  231 1    
   220  111  232 1    
   221  111  233 1    
   222  111  234 1    
   223  112  113 2    
   224  112  114 am   BACKBONE|DICT|INTERRES
   225  114  115 1    
   226  114  235 1    
   227  115  116 1    
   228  115  117 1    
   229  115  236 1    
   230  116  237 1    
   231  116  238 1    
   232  116  239 1    
   233  117  118 2    
   234  117  119 am   BACKBONE|DICT|INTERRES
   235  119  120 1    
   236  119  240 1    
   237  120  121 1    
   238  120  124 1    
   239  120  241 1    
   240  121  122 am   BACKBONE|DICT|INTERRES
   241  121  123 2    
   242  122  242 1    
   243  122  243 1    
   244  124  125 1    
   245  124  244 1    
   246  124  245 1    
   247  125  126 1    
   248  126  246 1    
   249  126  247 1    
@<TRIPOS>SUBSTRUCTURE
     1 UNK         1 GROUP             0       ****    0 ROOT    
