@<TRIPOS>MOLECULE
3R540
247   249    1
SMALL
USER_CHARGES


@<TRIPOS>ATOM
      1 CA         -6.4309  -18.7122  -47.2926 C.3       0 UNK        -0.1800 
      2 C          -5.4013  -17.6152  -47.5170 C.2       0 UNK         0.5000 
      3 O          -5.7699  -16.4651  -47.7548 O.2       0 UNK        -0.5000 
      4 N          -4.1132  -17.9704  -47.4456 N.am      1 UNK        -0.5000 
      5 CA         -2.9846  -17.0449  -47.5492 C.3       1 UNK         0.1400 
      6 C6         -1.6561  -17.8151  -47.7450 C.3       23 UNK        -0.0398 
      7 S7         -0.2585  -16.7220  -48.1737 S.3       23 UNK        -0.2404 
      8 C8         -0.1552  -16.9430  -49.9793 C.3       23 UNK        -0.0205 
      9 C9          0.3560  -18.3091  -50.4331 C.ar      23 UNK        -0.0193 
     10 C10        -0.0394  -18.7929  -51.6836 C.ar      23 UNK        -0.1150 
     11 C11         0.4635  -20.0003  -52.1759 C.ar      23 UNK        -0.0193 
     12 C12         1.3424  -20.7483  -51.3885 C.ar      23 UNK        -0.1150 
     13 C13         1.7326  -20.2898  -50.1273 C.ar      23 UNK        -0.0193 
     14 C14         1.2471  -19.0661  -49.6607 C.ar      23 UNK        -0.1150 
     15 C15         2.7028  -21.1053  -49.2870 C.3       23 UNK        -0.0205 
     16 S16         1.8472  -22.4000  -48.3386 S.3       23 UNK        -0.2404 
     17 C17         1.4447  -21.5305  -46.7837 C.3       23 UNK        -0.0398 
     18 CA          0.7075  -22.4640  -45.7890 C.3       11 UNK         0.1400 
     19 N           0.9546  -22.1116  -44.3886 N.am      11 UNK        -0.5000 
     20 C           0.7329  -22.9405  -43.3571 C.2       10 UNK         0.5000 
     21 O           0.3175  -24.0930  -43.4834 O.2       10 UNK        -0.5000 
     22 CA          1.0078  -22.3898  -41.9463 C.3       10 UNK         0.1400 
     23 CB          2.5000  -22.5124  -41.6026 C.3       10 UNK        -0.1800 
     24 N           0.5836  -20.9991  -41.7936 N.am      10 UNK        -0.5000 
     25 C          -0.6922  -20.5883  -41.8113 C.2       9 UNK         0.5000 
     26 O          -1.6550  -21.3529  -41.8732 O.2       9 UNK        -0.5000 
     27 CA         -0.9336  -19.0663  -41.7956 C.3       9 UNK         0.1400 
     28 CB         -0.9521  -18.5342  -40.3557 C.3       9 UNK        -0.1800 
     29 N           0.0469  -18.3122  -42.5805 N.am      9 UNK        -0.5000 
     30 C           0.2477  -18.4648  -43.8977 C.2       8 UNK         0.5000 
     31 O          -0.3496  -19.2808  -44.5963 O.2       8 UNK        -0.5000 
     32 CA          1.3398  -17.5981  -44.5343 C.3       8 UNK         0.1400 
     33 CB          0.8365  -16.1686  -44.7580 C.3       8 UNK        -0.1800 
     34 N           2.5477  -17.5814  -43.7134 N.am      8 UNK        -0.5000 
     35 C           3.4004  -18.6111  -43.6227 C.2       7 UNK         0.5000 
     36 O           3.2820  -19.6569  -44.2623 O.2       7 UNK        -0.5000 
     37 CA          4.5588  -18.4570  -42.6197 C.3       7 UNK         0.1400 
     38 CB          5.7153  -17.6647  -43.2479 C.3       7 UNK        -0.1800 
     39 N           4.1520  -17.8104  -41.3697 N.am      7 UNK        -0.5000 
     40 C           3.2696  -18.3249  -40.5015 C.2       6 UNK         0.5000 
     41 O           2.7060  -19.4062  -40.6609 O.2       6 UNK        -0.5000 
     42 CA          2.9290  -17.4759  -39.2631 C.3       6 UNK         0.1400 
     43 CB          3.9084  -17.7805  -38.1200 C.3       6 UNK        -0.1800 
     44 N           2.9039  -16.0302  -39.5035 N.am      6 UNK        -0.5000 
     45 C           2.1389  -15.3957  -40.4036 C.2       5 UNK         0.5000 
     46 O           1.4192  -15.9854  -41.2133 O.2       5 UNK        -0.5000 
     47 CA          2.1925  -13.8519  -40.4090 C.3       5 UNK         0.1400 
     48 CB          3.0424  -13.2447  -39.2736 C.3       5 UNK        -0.1800 
     49 N           2.7124  -13.3732  -41.6879 N.am      5 UNK        -0.5000 
     50 C           1.9709  -13.1463  -42.7776 C.2       4 UNK         0.5000 
     51 O           0.7385  -13.2208  -42.7965 O.2       4 UNK        -0.5000 
     52 CA          2.7333  -12.7845  -44.0650 C.3       4 UNK         0.1400 
     53 CB          3.9423  -13.7104  -44.3198 C.3       4 UNK        -0.1800 
     54 N           1.7999  -12.8783  -45.1791 N.am      4 UNK        -0.5000 
     55 C           1.8803  -12.2572  -46.3582 C.2       3 UNK         0.5000 
     56 O           2.7965  -11.4930  -46.6643 O.2       3 UNK        -0.5000 
     57 CA          0.7587  -12.5502  -47.3784 C.3       3 UNK         0.1400 
     58 CB          1.3192  -13.3267  -48.5812 C.3       3 UNK        -0.1800 
     59 N          -0.3660  -13.3113  -46.8211 N.am      3 UNK        -0.5000 
     60 C          -1.3305  -12.8036  -46.0383 C.2       2 UNK         0.5000 
     61 O          -1.3688  -11.6213  -45.6963 O.2       2 UNK        -0.5000 
     62 CA         -2.4332  -13.7788  -45.5798 C.3       2 UNK         0.1400 
     63 CB         -3.7706  -13.0778  -45.2761 C.3       2 UNK        -0.1800 
     64 N          -2.6407  -14.8223  -46.5838 N.am      2 UNK        -0.5000 
     65 C          -2.9258  -16.1031  -46.3247 C.2       1 UNK         0.5000 
     66 O          -3.0976  -16.5561  -45.1912 O.2       1 UNK        -0.5000 
     67 C          -0.7985  -22.5465  -46.1053 C.2       11 UNK         0.5000 
     68 O          -1.2032  -23.4425  -46.8435 O.2       11 UNK        -0.5000 
     69 N          -1.5964  -21.6326  -45.5288 N.am      12 UNK        -0.5000 
     70 CA         -3.0316  -21.4191  -45.7635 C.3       12 UNK         0.1400 
     71 CB         -3.5277  -20.2928  -44.8431 C.3       12 UNK        -0.1800 
     72 C          -3.9453  -22.6532  -45.6259 C.2       12 UNK         0.5000 
     73 O          -5.0506  -22.6386  -46.1681 O.2       12 UNK        -0.5000 
     74 N          -3.4702  -23.7013  -44.9402 N.am      13 UNK        -0.5000 
     75 CA         -4.0970  -25.0229  -44.8792 C.3       13 UNK         0.1400 
     76 CB         -3.3371  -25.8797  -43.8552 C.3       13 UNK        -0.1800 
     77 C          -4.1592  -25.7422  -46.2461 C.2       13 UNK         0.5000 
     78 O          -5.0212  -26.6025  -46.4310 O.2       13 UNK        -0.5000 
     79 N          -3.2622  -25.3772  -47.1713 N.am      14 UNK        -0.5000 
     80 CA         -3.2242  -25.8416  -48.5517 C.3       14 UNK         0.1400 
     81 CB         -2.0119  -26.7706  -48.7495 C.3       14 UNK        -0.1800 
     82 C          -3.1971  -24.6126  -49.4723 C.2       14 UNK         0.5000 
     83 O          -4.2432  -24.2353  -50.0003 O.2       14 UNK        -0.5000 
     84 N          -2.0082  -24.0110  -49.6365 N.am      15 UNK        -0.5000 
     85 CA         -1.7058  -22.7791  -50.3790 C.3       15 UNK         0.1400 
     86 CB         -2.1327  -21.5389  -49.5643 C.3       15 UNK        -0.1800 
     87 C          -2.2547  -22.7485  -51.8195 C.2       15 UNK         0.5000 
     88 O          -2.7079  -21.6986  -52.2699 O.2       15 UNK        -0.5000 
     89 N          -2.2309  -23.8988  -52.5100 N.am      16 UNK        -0.5000 
     90 CA         -2.7752  -24.1104  -53.8579 C.3       16 UNK         0.1400 
     91 CB         -1.8964  -23.4088  -54.9103 C.3       16 UNK        -0.1800 
     92 C          -4.2597  -23.6954  -53.9487 C.2       16 UNK         0.5000 
     93 O          -4.6029  -22.7426  -54.6526 O.2       16 UNK        -0.5000 
     94 N          -5.0925  -24.4057  -53.1754 N.am      17 UNK        -0.5000 
     95 CA         -6.5317  -24.1957  -52.9983 C.3       17 UNK         0.1400 
     96 CB         -7.2983  -24.4251  -54.3188 C.3       17 UNK        -0.1800 
     97 C          -6.8500  -22.8442  -52.3275 C.2       17 UNK         0.5000 
     98 O          -7.6800  -22.0834  -52.8261 O.2       17 UNK        -0.5000 
     99 N          -6.1865  -22.5911  -51.1899 N.am      18 UNK        -0.5000 
    100 CA        -6.3720  -21.4493  -50.2906 C.3       18 UNK         0.1400 
    101 CB        -7.7734  -21.4972  -49.6445 C.3       18 UNK        -0.1800 
    102 C         -6.0495  -20.0978  -50.9603 C.2       18 UNK         0.5000 
    103 O         -6.8528  -19.1659  -50.8965 O.2       18 UNK        -0.5000 
    104 N         -4.8661  -20.0271  -51.5861 N.am      19 UNK        -0.5000 
    105 CA        -4.2986  -18.8760  -52.2928 C.3       19 UNK         0.1400 
    106 CB        -4.0424  -17.6986  -51.3284 C.3       19 UNK        -0.1800 
    107 C         -5.0933  -18.4913  -53.5564 C.2       19 UNK         0.5000 
    108 O         -5.2115  -17.3063  -53.8746 O.2       19 UNK        -0.5000 
    109 N         -5.6119  -19.5027  -54.2703 N.am      20 UNK        -0.5000 
    110 CA        -6.2263  -19.3348  -55.5895 C.3       20 UNK         0.1400 
    111 CB        -7.1065  -20.5502  -55.9145 C.3       20 UNK        -0.1800 
    112 C         -5.1658  -19.1202  -56.6861 C.2       20 UNK         0.5000 
    113 O         -5.4178  -18.3788  -57.6373 O.2       20 UNK        -0.5000 
    114 N         -3.9979  -19.7529  -56.5164 N.am      21 UNK        -0.5000 
    115 CA        -2.7932  -19.5359  -57.3146 C.3       21 UNK         0.1400 
    116 CB        -2.2205  -20.9028  -57.7312 C.3       21 UNK        -0.1800 
    117 C         -1.7732  -18.7041  -56.5096 C.2       21 UNK         0.5000 
    118 O         -2.1043  -18.1757  -55.4454 O.2       21 UNK        -0.5000 
    119 N         -0.5476  -18.6037  -57.0402 N.am      22 UNK        -0.5000 
    120 CA         0.5952  -17.8512  -56.4826 C.3       22 UNK         0.1400 
    121 C          0.4841  -16.3016  -56.6290 C.2       22 UNK         0.5000 
    122 N         -0.4482  -15.7719  -57.4118 N.am      22 UNK        -0.7600 
    123 O          1.2768  -15.5618  -56.0522 O.2       22 UNK        -0.5000 
    124 C124        0.9950  -18.2707  -55.0370 C.3       23 UNK        -0.0398 
    125 S125        1.2772  -20.0653  -54.8362 S.3       23 UNK        -0.2404 
    126 C126        0.0578  -20.5015  -53.5545 C.3       23 UNK        -0.0205 
    127 H127       -7.2287  -18.6278  -48.0302 H         1 UNK         0.0600 
    128 H128       -6.8718  -18.6155  -46.3006 H         1 UNK         0.0600 
    129 H129       -5.9903  -19.7061  -47.3778 H         1 UNK         0.0600 
    130 H130       -3.8795  -18.9211  -47.2095 H         1 UNK         0.3000 
    131 H131       -3.1542  -16.4388  -48.4421 H         1 UNK         0.0600 
    132 H132       -1.3954  -18.3725  -46.8446 H         1 UNK         0.0800 
    133 H133       -1.7690  -18.5625  -48.5312 H         1 UNK         0.0800 
    134 H134       -1.1373  -16.7433  -50.4103 H         1 UNK         0.0800 
    135 H135        0.5164  -16.1819  -50.3781 H         1 UNK         0.0800 
    136 H136       -0.7279  -18.2167  -52.2854 H         1 UNK         0.1150 
    137 H137        1.7292  -21.6865  -51.7609 H         1 UNK         0.1150 
    138 H138        1.5768  -18.7042  -48.6978 H         1 UNK         0.1150 
    139 H139        3.4359  -21.5796  -49.9412 H         1 UNK         0.0800 
    140 H140        3.2717  -20.4606  -48.6152 H         1 UNK         0.0800 
    141 H141        0.8729  -20.6243  -46.9944 H         1 UNK         0.0800 
    142 H142        2.3892  -21.1977  -46.3512 H         1 UNK         0.0800 
    143 H143        1.1110  -23.4710  -45.9197 H         1 UNK         0.0600 
    144 H144        1.2860  -21.1743  -44.2036 H         1 UNK         0.3000 
    145 H145        0.4439  -22.9970  -41.2352 H         1 UNK         0.0600 
    146 H146        2.8451  -23.5411  -41.7140 H         1 UNK         0.0600 
    147 H147        3.1149  -21.8856  -42.2500 H         1 UNK         0.0600 
    148 H148        2.6913  -22.2158  -40.5712 H         1 UNK         0.0600 
    149 H149        1.3195  -20.3125  -41.6529 H         1 UNK         0.3000 
    150 H150       -1.9143  -18.8831  -42.2397 H         1 UNK         0.0600 
    151 H151       -1.7336  -19.0210  -39.7709 H         1 UNK         0.0600 
    152 H152       -1.1458  -17.4616  -40.3315 H         1 UNK         0.0600 
    153 H153       -0.0042  -18.7165  -39.8507 H         1 UNK         0.0600 
    154 H154        0.5794  -17.6029  -42.0866 H         1 UNK         0.3000 
    155 H155        1.5795  -18.0260  -45.5106 H         1 UNK         0.0600 
    156 H156       -0.1147  -16.1674  -45.2878 H         1 UNK         0.0600 
    157 H157        1.5456  -15.5999  -45.3575 H         1 UNK         0.0600 
    158 H158        0.6771  -15.6486  -43.8150 H         1 UNK         0.0600 
    159 H159        2.6666  -16.7951  -43.0907 H         1 UNK         0.3000 
    160 H160        4.9212  -19.4584  -42.3773 H         1 UNK         0.0600 
    161 H161        5.4232  -16.6406  -43.4834 H         1 UNK         0.0600 
    162 H162        6.0499  -18.1320  -44.1750 H         1 UNK         0.0600 
    163 H163        6.5744  -17.6234  -42.5781 H         1 UNK         0.0600 
    164 H164        4.5658  -16.9144  -41.1596 H         1 UNK         0.3000 
    165 H165        1.9299  -17.7652  -38.9343 H         1 UNK         0.0600 
    166 H166        3.6159  -17.2697  -37.2023 H         1 UNK         0.0600 
    167 H167        3.9333  -18.8489  -37.9008 H         1 UNK         0.0600 
    168 H168        4.9250  -17.4723  -38.3675 H         1 UNK         0.0600 
    169 H169        3.4727  -15.4685  -38.8868 H         1 UNK         0.3000 
    170 H170        1.1671  -13.5014  -40.2740 H         1 UNK         0.0600 
    171 H171        2.6742  -13.5521  -38.2938 H         1 UNK         0.0600 
    172 H172        4.0927  -13.5300  -39.3466 H         1 UNK         0.0600 
    173 H173        2.9977  -12.1557  -39.2989 H         1 UNK         0.0600 
    174 H174        3.7164  -13.2988  -41.7610 H         1 UNK         0.3000 
    175 H175        3.0755  -11.7522  -43.9694 H         1 UNK         0.0600 
    176 H176        3.6494  -14.7606  -44.3344 H         1 UNK         0.0600 
    177 H177        4.4175  -13.4870  -45.2750 H         1 UNK         0.0600 
    178 H178        4.7076  -13.5906  -43.5529 H         1 UNK         0.0600 
    179 H179        0.9642  -13.4064  -44.9670 H         1 UNK         0.3000 
    180 H180        0.3851  -11.5888  -47.7370 H         1 UNK         0.0600 
    181 H181        1.7328  -14.2901  -48.2799 H         1 UNK         0.0600 
    182 H182        2.1167  -12.7675  -49.0721 H         1 UNK         0.0600 
    183 H183        0.5472  -13.5115  -49.3285 H         1 UNK         0.0600 
    184 H184       -0.3896  -14.2960  -47.0459 H         1 UNK         0.3000 
    185 H185       -2.0657  -14.2315  -44.6562 H         1 UNK         0.0600 
    186 H186       -3.6545  -12.3286  -44.4921 H         1 UNK         0.0600 
    187 H187       -4.1680  -12.5756  -46.1588 H         1 UNK         0.0600 
    188 H188       -4.5195  -13.7910  -44.9312 H         1 UNK         0.0600 
    189 H189       -2.5296  -14.5275  -47.5445 H         1 UNK         0.3000 
    190 H190       -1.1428  -20.9133  -44.9695 H         1 UNK         0.3000 
    191 H191       -3.1311  -21.0771  -46.7940 H         1 UNK         0.0600 
    192 H192       -2.9792  -19.3666  -45.0108 H         1 UNK         0.0600 
    193 H193       -4.5831  -20.0765  -45.0139 H         1 UNK         0.0600 
    194 H194       -3.4165  -20.5598  -43.7922 H         1 UNK         0.0600 
    195 H195       -2.5483  -23.6193  -44.5355 H         1 UNK         0.3000 
    196 H196       -5.1227  -24.8934  -44.5283 H         1 UNK         0.0600 
    197 H197       -3.7863  -26.8694  -43.7620 H         1 UNK         0.0600 
    198 H198       -3.3543  -25.4211  -42.8664 H         1 UNK         0.0600 
    199 H199       -2.2938  -26.0172  -44.1431 H         1 UNK         0.0600 
    200 H200       -2.5944  -24.6426  -46.9421 H         1 UNK         0.3000 
    201 H201       -4.1283  -26.4031  -48.7964 H         1 UNK         0.0600 
    202 H202       -2.1338  -27.6903  -48.1771 H         1 UNK         0.0600 
    203 H203       -1.0791  -26.3066  -48.4267 H         1 UNK         0.0600 
    204 H204       -1.9002  -27.0539  -49.7968 H         1 UNK         0.0600 
    205 H205       -1.2303  -24.3854  -49.1104 H         1 UNK         0.3000 
    206 H206       -0.6207  -22.7417  -50.4798 H         1 UNK         0.0600 
    207 H207       -1.5724  -21.4739  -48.6350 H         1 UNK         0.0600 
    208 H208       -1.9308  -20.6133  -50.1046 H         1 UNK         0.0600 
    209 H209       -3.1950  -21.5583  -49.3235 H         1 UNK         0.0600 
    210 H210       -1.8562  -24.7160  -52.0500 H         1 UNK         0.3000 
    211 H211       -2.7314  -25.1827  -54.0542 H         1 UNK         0.0600 
    212 H212       -1.9252  -22.3259  -54.7953 H         1 UNK         0.0600 
    213 H213       -2.2406  -23.6410  -55.9186 H         1 UNK         0.0600 
    214 H214       -0.8570  -23.7285  -54.8377 H         1 UNK         0.0600 
    215 H215       -4.6887  -25.1215  -52.5878 H         1 UNK         0.3000 
    216 H216       -6.8648  -24.9625  -52.2973 H         1 UNK         0.0600 
    217 H217       -8.3756  -24.3847  -54.1544 H         1 UNK         0.0600 
    218 H218       -7.0715  -25.4040  -54.7409 H         1 UNK         0.0600 
    219 H219       -7.0570  -23.6729  -55.0694 H         1 UNK         0.0600 
    220 H220       -5.4974  -23.2722  -50.8724 H         1 UNK         0.3000 
    221 H221       -5.6438  -21.5741  -49.4881 H         1 UNK         0.0600 
    222 H222       -8.5656  -21.3385  -50.3767 H         1 UNK         0.0600 
    223 H223       -7.9503  -22.4584  -49.1620 H         1 UNK         0.0600 
    224 H224       -7.8816  -20.7301  -48.8793 H         1 UNK         0.0600 
    225 H225       -4.2825  -20.8582  -51.6364 H         1 UNK         0.3000 
    226 H226       -3.3224  -19.1968  -52.6580 H         1 UNK         0.0600 
    227 H227       -3.4467  -18.0188  -50.4742 H         1 UNK         0.0600 
    228 H228       -3.4909  -16.9001  -51.8259 H         1 UNK         0.0600 
    229 H229       -4.9702  -17.2690  -50.9502 H         1 UNK         0.0600 
    230 H230       -5.4922  -20.4516  -53.9403 H         1 UNK         0.3000 
    231 H231       -6.8692  -18.4523  -55.5665 H         1 UNK         0.0600 
    232 H232       -6.5228  -21.4688  -55.9661 H         1 UNK         0.0600 
    233 H233       -7.6031  -20.4244  -56.8773 H         1 UNK         0.0600 
    234 H234       -7.8845  -20.6865  -55.1636 H         1 UNK         0.0600 
    235 H235       -3.8823  -20.3158  -55.6852 H         1 UNK         0.3000 
    236 H236       -3.0356  -18.9760  -58.2199 H         1 UNK         0.0600 
    237 H237       -2.9996  -21.5606  -58.1174 H         1 UNK         0.0600 
    238 H238       -1.4752  -20.7943  -58.5195 H         1 UNK         0.0600 
    239 H239       -1.7373  -21.4079  -56.8967 H         1 UNK         0.0600 
    240 H240       -0.3636  -19.0699  -57.9167 H         1 UNK         0.3000 
    241 H241        1.4367  -18.1162  -57.1235 H         1 UNK         0.0600 
    242 H242       -0.5034  -14.7700  -57.5088 H         1 UNK         0.3800 
    243 H243       -1.1008  -16.3597  -57.9045 H         1 UNK         0.3800 
    244 H244        1.9197  -17.7724  -54.7419 H         1 UNK         0.0800 
    245 H245        0.2410  -17.9278  -54.3310 H         1 UNK         0.0800 
    246 H246       -0.0314  -21.5872  -53.5249 H         1 UNK         0.0800 
    247 H247       -0.9276  -20.1219  -53.8289 H         1 UNK         0.0800 
@<TRIPOS>BOND
     1    1    2 1    
     2    1  127 1    
     3    1  128 1    
     4    1  129 1    
     5    2    3 2    
     6    2    4 am   BACKBONE|DICT|INTERRES
     7    4    5 1    
     8    4  130 1    
     9    5    6 1    
    10    5   65 1    
    11    5  131 1    
    12    6    7 1    
    13    6  132 1    
    14    6  133 1    
    15    7    8 1    
    16    8    9 1    
    17    8  134 1    
    18    8  135 1    
    19    9   10 ar   
    20    9   14 ar   
    21   10   11 ar   
    22   10  136 1    
    23   11   12 ar   
    24   11  126 1    
    25   12   13 ar   
    26   12  137 1    
    27   13   14 ar   
    28   13   15 1    
    29   14  138 1    
    30   15   16 1    
    31   15  139 1    
    32   15  140 1    
    33   16   17 1    
    34   17   18 1    
    35   17  141 1    
    36   17  142 1    
    37   18   19 1    
    38   18   67 1    
    39   18  143 1    
    40   19   20 am   BACKBONE|DICT|INTERRES
    41   19  144 1    
    42   20   21 2    
    43   20   22 1    
    44   22   23 1    
    45   22   24 1    
    46   22  145 1    
    47   23  146 1    
    48   23  147 1    
    49   23  148 1    
    50   24   25 am   BACKBONE|DICT|INTERRES
    51   24  149 1    
    52   25   26 2    
    53   25   27 1    
    54   27   28 1    
    55   27   29 1    
    56   27  150 1    
    57   28  151 1    
    58   28  152 1    
    59   28  153 1    
    60   29   30 am   BACKBONE|DICT|INTERRES
    61   29  154 1    
    62   30   31 2    
    63   30   32 1    
    64   32   33 1    
    65   32   34 1    
    66   32  155 1    
    67   33  156 1    
    68   33  157 1    
    69   33  158 1    
    70   34   35 am   BACKBONE|DICT|INTERRES
    71   34  159 1    
    72   35   36 2    
    73   35   37 1    
    74   37   38 1    
    75   37   39 1    
    76   37  160 1    
    77   38  161 1    
    78   38  162 1    
    79   38  163 1    
    80   39   40 am   BACKBONE|DICT|INTERRES
    81   39  164 1    
    82   40   41 2    
    83   40   42 1    
    84   42   43 1    
    85   42   44 1    
    86   42  165 1    
    87   43  166 1    
    88   43  167 1    
    89   43  168 1    
    90   44   45 am   BACKBONE|DICT|INTERRES
    91   44  169 1    
    92   45   46 2    
    93   45   47 1    
    94   47   48 1    
    95   47   49 1    
    96   47  170 1    
    97   48  171 1    
    98   48  172 1    
    99   48  173 1    
   100   49   50 am   BACKBONE|DICT|INTERRES
   101   49  174 1    
   102   50   51 2    
   103   50   52 1    
   104   52   53 1    
   105   52   54 1    
   106   52  175 1    
   107   53  176 1    
   108   53  177 1    
   109   53  178 1    
   110   54   55 am   BACKBONE|DICT|INTERRES
   111   54  179 1    
   112   55   56 2    
   113   55   57 1    
   114   57   58 1    
   115   57   59 1    
   116   57  180 1    
   117   58  181 1    
   118   58  182 1    
   119   58  183 1    
   120   59   60 am   BACKBONE|DICT|INTERRES
   121   59  184 1    
   122   60   61 2    
   123   60   62 1    
   124   62   63 1    
   125   62   64 1    
   126   62  185 1    
   127   63  186 1    
   128   63  187 1    
   129   63  188 1    
   130   64   65 am   BACKBONE|DICT|INTERRES
   131   64  189 1    
   132   65   66 2    
   133   67   68 2    
   134   67   69 am   BACKBONE|DICT|INTERRES
   135   69   70 1    
   136   69  190 1    
   137   70   71 1    
   138   70   72 1    
   139   70  191 1    
   140   71  192 1    
   141   71  193 1    
   142   71  194 1    
   143   72   73 2    
   144   72   74 am   BACKBONE|DICT|INTERRES
   145   74   75 1    
   146   74  195 1    
   147   75   76 1    
   148   75   77 1    
   149   75  196 1    
   150   76  197 1    
   151   76  198 1    
   152   76  199 1    
   153   77   78 2    
   154   77   79 am   BACKBONE|DICT|INTERRES
   155   79   80 1    
   156   79  200 1    
   157   80   81 1    
   158   80   82 1    
   159   80  201 1    
   160   81  202 1    
   161   81  203 1    
   162   81  204 1    
   163   82   83 2    
   164   82   84 am   BACKBONE|DICT|INTERRES
   165   84   85 1    
   166   84  205 1    
   167   85   86 1    
   168   85   87 1    
   169   85  206 1    
   170   86  207 1    
   171   86  208 1    
   172   86  209 1    
   173   87   88 2    
   174   87   89 am   BACKBONE|DICT|INTERRES
   175   89   90 1    
   176   89  210 1    
   177   90   91 1    
   178   90   92 1    
   179   90  211 1    
   180   91  212 1    
   181   91  213 1    
   182   91  214 1    
   183   92   93 2    
   184   92   94 am   BACKBONE|DICT|INTERRES
   185   94   95 1    
   186   94  215 1    
   187   95   96 1    
   188   95   97 1    
   189   95  216 1    
   190   96  217 1    
   191   96  218 1    
   192   96  219 1    
   193   97   98 2    
   194   97   99 am   BACKBONE|DICT|INTERRES
   195   99  100 1    
   196   99  220 1    
   197  100  101 1    
   198  100  102 1    
   199  100  221 1    
   200  101  222 1    
   201  101  223 1    
   202  101  224 1    
   203  102  103 2    
   204  102  104 am   BACKBONE|DICT|INTERRES
   205  104  105 1    
   206  104  225 1    
   207  105  106 1    
   208  105  107 1    
   209  105  226 1    
   210  106  227 1    
   211  106  228 1    
   212  106  229 1    
   213  107  108 2    
   214  107  109 am   BACKBONE|DICT|INTERRES
   215  109  110 1    
   216  109  230 1    
   217  110  111 1    
   218  110  112 1    
   219  110  231 1    
   220  111  232 1    
   221  111  233 1    
   222  111  234 1    
   223  112  113 2    
   224  112  114 am   BACKBONE|DICT|INTERRES
   225  114  115 1    
   226  114  235 1    
   227  115  116 1    
   228  115  117 1    
   229  115  236 1    
   230  116  237 1    
   231  116  238 1    
   232  116  239 1    
   233  117  118 2    
   234  117  119 am   BACKBONE|DICT|INTERRES
   235  119  120 1    
   236  119  240 1    
   237  120  121 1    
   238  120  124 1    
   239  120  241 1    
   240  121  122 am   BACKBONE|DICT|INTERRES
   241  121  123 2    
   242  122  242 1    
   243  122  243 1    
   244  124  125 1    
   245  124  244 1    
   246  124  245 1    
   247  125  126 1    
   248  126  246 1    
   249  126  247 1    
@<TRIPOS>SUBSTRUCTURE
     1 UNK         1 GROUP             0       ****    0 ROOT    
