@<TRIPOS>MOLECULE
3R540
247   249    1
SMALL
USER_CHARGES


@<TRIPOS>ATOM
      1 CA          3.1998  -10.6378  -50.7775 C.3       0 UNK        -0.1800 
      2 C           3.9149  -11.8169  -50.1328 C.2       0 UNK         0.5000 
      3 O           5.1455  -11.8634  -50.1330 O.2       0 UNK        -0.5000 
      4 N           3.1491  -12.7707  -49.5914 N.am      1 UNK        -0.5000 
      5 CA          3.6497  -13.9294  -48.8475 C.3       1 UNK         0.1400 
      6 C6          2.5801  -15.0492  -48.7440 C.3       23 UNK        -0.0398 
      7 S7          1.0135  -14.5277  -47.9500 S.3       23 UNK        -0.2404 
      8 C8         -0.1260  -14.4308  -49.3653 C.3       23 UNK        -0.0205 
      9 C9         -0.9721  -15.6879  -49.5120 C.ar      23 UNK        -0.0193 
     10 C10        -2.3348  -15.6524  -49.2015 C.ar      23 UNK        -0.1150 
     11 C11        -3.1391  -16.7791  -49.3966 C.ar      23 UNK        -0.0193 
     12 C12        -2.5642  -17.9598  -49.8747 C.ar      23 UNK        -0.1150 
     13 C13        -1.1989  -18.0143  -50.1709 C.ar      23 UNK        -0.0193 
     14 C14        -0.4104  -16.8737  -49.9947 C.ar      23 UNK        -0.1150 
     15 C15        -0.5767  -19.2962  -50.7032 C.3       23 UNK        -0.0205 
     16 S16         0.1515  -20.2975  -49.3681 S.3       23 UNK        -0.2404 
     17 C17        -1.3558  -20.8787  -48.5297 C.3       23 UNK        -0.0398 
     18 CA         -1.1221  -22.1439  -47.6757 C.3       11 UNK         0.1400 
     19 N          -0.1758  -21.9105  -46.5855 N.am      11 UNK        -0.5000 
     20 C           0.3539  -22.8487  -45.7915 C.2       10 UNK         0.5000 
     21 O           0.0934  -24.0467  -45.9004 O.2       10 UNK        -0.5000 
     22 CA          1.2668  -22.3728  -44.6438 C.3       10 UNK         0.1400 
     23 CB          2.5322  -23.2415  -44.5028 C.3       10 UNK        -0.1800 
     24 N           1.5893  -20.9426  -44.6980 N.am      10 UNK        -0.5000 
     25 C           2.3641  -20.2870  -45.5762 C.2       9 UNK         0.5000 
     26 O           2.9940  -20.8314  -46.4825 O.2       9 UNK        -0.5000 
     27 CA          2.4156  -18.7514  -45.4386 C.3       9 UNK         0.1400 
     28 CB          1.5795  -18.0926  -46.5458 C.3       9 UNK        -0.1800 
     29 N           1.9302  -18.2648  -44.1456 N.am      9 UNK        -0.5000 
     30 C           2.5628  -18.4254  -42.9747 C.2       8 UNK         0.5000 
     31 O           3.6616  -18.9666  -42.8496 O.2       8 UNK        -0.5000 
     32 CA          1.7983  -17.9556  -41.7254 C.3       8 UNK         0.1400 
     33 CB          1.9795  -16.4449  -41.5049 C.3       8 UNK        -0.1800 
     34 N           0.3713  -18.2802  -41.8116 N.am      8 UNK        -0.5000 
     35 C          -0.1305  -19.5212  -41.7157 C.2       7 UNK         0.5000 
     36 O           0.5545  -20.5213  -41.5051 O.2       7 UNK        -0.5000 
     37 CA         -1.6462  -19.6801  -41.9309 C.3       7 UNK         0.1400 
     38 CB         -2.4124  -19.4163  -40.6266 C.3       7 UNK        -0.1800 
     39 N          -2.1509  -18.7914  -42.9763 N.am      7 UNK        -0.5000 
     40 C          -1.9439  -18.9655  -44.2888 C.2       6 UNK         0.5000 
     41 O          -1.3889  -19.9545  -44.7667 O.2       6 UNK        -0.5000 
     42 CA         -2.4348  -17.8462  -45.2256 C.3       6 UNK         0.1400 
     43 CB         -3.8271  -18.1877  -45.7694 C.3       6 UNK        -0.1800 
     44 N          -2.4876  -16.5312  -44.5813 N.am      6 UNK        -0.5000 
     45 C          -1.4193  -15.8539  -44.1440 C.2       5 UNK         0.5000 
     46 O          -0.2639  -16.2814  -44.2052 O.2       5 UNK        -0.5000 
     47 CA         -1.7045  -14.5140  -43.4477 C.3       5 UNK         0.1400 
     48 CB         -1.6316  -14.6758  -41.9216 C.3       5 UNK        -0.1800 
     49 N          -0.7534  -13.4906  -43.8640 N.am      5 UNK        -0.5000 
     50 C          -0.7738  -12.8581  -45.0410 C.2       4 UNK         0.5000 
     51 O          -1.6502  -13.0352  -45.8882 O.2       4 UNK        -0.5000 
     52 CA          0.3522  -11.8431  -45.3264 C.3       4 UNK         0.1400 
     53 CB         -0.0222  -10.4458  -44.7977 C.3       4 UNK        -0.1800 
     54 N           1.6962  -12.2332  -44.8767 N.am      4 UNK        -0.5000 
     55 C           2.1718  -12.4078  -43.6372 C.2       3 UNK         0.5000 
     56 O           1.4888  -12.3440  -42.6138 O.2       3 UNK        -0.5000 
     57 CA          3.6591  -12.7769  -43.5507 C.3       3 UNK         0.1400 
     58 CB          4.2773  -12.4512  -42.1799 C.3       3 UNK        -0.1800 
     59 N           3.7686  -14.2131  -43.7900 N.am      3 UNK        -0.5000 
     60 C           4.5571  -14.8874  -44.6364 C.2       2 UNK         0.5000 
     61 O           4.4598  -16.1080  -44.7385 O.2       2 UNK        -0.5000 
     62 CA          5.5882  -14.1724  -45.5389 C.3       2 UNK         0.1400 
     63 CB          6.9746  -14.8284  -45.4209 C.3       2 UNK        -0.1800 
     64 N           5.1380  -14.2686  -46.9258 N.am      2 UNK        -0.5000 
     65 C           4.1696  -13.5123  -47.4548 C.2       1 UNK         0.5000 
     66 O           3.6632  -12.5503  -46.8710 O.2       1 UNK        -0.5000 
     67 C          -2.4685  -22.6828  -47.1600 C.2       11 UNK         0.5000 
     68 O          -3.0834  -23.5067  -47.8367 O.2       11 UNK        -0.5000 
     69 N          -2.8933  -22.2270  -45.9733 N.am      12 UNK        -0.5000 
     70 CA         -4.0909  -22.7230  -45.2944 C.3       12 UNK         0.1400 
     71 CB         -4.5223  -21.7172  -44.2171 C.3       12 UNK        -0.1800 
     72 C          -3.8750  -24.1156  -44.6740 C.2       12 UNK         0.5000 
     73 O          -4.8017  -24.9251  -44.6640 O.2       12 UNK        -0.5000 
     74 N          -2.6564  -24.3691  -44.1761 N.am      13 UNK        -0.5000 
     75 CA         -2.2625  -25.6234  -43.5333 C.3       13 UNK         0.1400 
     76 CB         -0.9782  -25.3985  -42.7191 C.3       13 UNK        -0.1800 
     77 C          -2.0781  -26.7637  -44.5488 C.2       13 UNK         0.5000 
     78 O          -2.5694  -27.8697  -44.3222 O.2       13 UNK        -0.5000 
     79 N          -1.3921  -26.4651  -45.6598 N.am      14 UNK        -0.5000 
     80 CA         -1.1472  -27.3950  -46.7638 C.3       14 UNK         0.1400 
     81 CB          0.0703  -26.8963  -47.5595 C.3       14 UNK        -0.1800 
     82 C          -2.3590  -27.5589  -47.7021 C.2       14 UNK         0.5000 
     83 O          -2.3614  -28.4784  -48.5207 O.2       14 UNK        -0.5000 
     84 N          -3.3345  -26.6426  -47.5983 N.am      15 UNK        -0.5000 
     85 CA         -4.5022  -26.4654  -48.4724 C.3       15 UNK         0.1400 
     86 CB         -5.4186  -27.7058  -48.4584 C.3       15 UNK        -0.1800 
     87 C          -4.1283  -26.0112  -49.9013 C.2       15 UNK         0.5000 
     88 O          -4.9438  -26.1164  -50.8188 O.2       15 UNK        -0.5000 
     89 N          -2.9132  -25.4661  -50.0569 N.am      16 UNK        -0.5000 
     90 CA         -2.3800  -24.9003  -51.2945 C.3       16 UNK         0.1400 
     91 CB         -0.8719  -24.6603  -51.1354 C.3       16 UNK        -0.1800 
     92 C          -3.0913  -23.6039  -51.7188 C.2       16 UNK         0.5000 
     93 O          -3.0497  -23.2655  -52.9007 O.2       16 UNK        -0.5000 
     94 N          -3.7720  -22.9324  -50.7752 N.am      17 UNK        -0.5000 
     95 CA         -4.5955  -21.7367  -50.9956 C.3       17 UNK         0.1400 
     96 CB         -5.1700  -21.2651  -49.6490 C.3       17 UNK        -0.1800 
     97 C          -5.7366  -21.9254  -52.0199 C.2       17 UNK         0.5000 
     98 O          -6.2145  -20.9413  -52.5822 O.2       17 UNK        -0.5000 
     99 N          -6.1496  -23.1793  -52.2549 N.am      18 UNK        -0.5000 
    100 CA        -7.1206  -23.5542  -53.2825 C.3       18 UNK         0.1400 
    101 CB        -7.6046  -24.9857  -53.0060 C.3       18 UNK        -0.1800 
    102 C         -6.5627  -23.4427  -54.7171 C.2       18 UNK         0.5000 
    103 O         -7.3449  -23.2488  -55.6485 O.2       18 UNK        -0.5000 
    104 N         -5.2382  -23.5749  -54.8732 N.am      19 UNK        -0.5000 
    105 CA        -4.5316  -23.4832  -56.1506 C.3       19 UNK         0.1400 
    106 CB        -3.5181  -24.6350  -56.2528 C.3       19 UNK        -0.1800 
    107 C         -3.8314  -22.1224  -56.2786 C.2       19 UNK         0.5000 
    108 O         -4.0290  -21.4206  -57.2715 O.2       19 UNK        -0.5000 
    109 N         -3.0480  -21.7592  -55.2563 N.am      20 UNK        -0.5000 
    110 CA        -2.3878  -20.4675  -55.1100 C.3       20 UNK         0.1400 
    111 CB        -1.0992  -20.6611  -54.2907 C.3       20 UNK        -0.1800 
    112 C         -3.3713  -19.4954  -54.4415 C.2       20 UNK         0.5000 
    113 O         -3.2976  -19.2800  -53.2312 O.2       20 UNK        -0.5000 
    114 N         -4.3088  -18.9724  -55.2423 N.am      21 UNK        -0.5000 
    115 CA        -5.4847  -18.1909  -54.8426 C.3       21 UNK         0.1400 
    116 CB        -6.4789  -18.1806  -56.0182 C.3       21 UNK        -0.1800 
    117 C         -5.1907  -16.7726  -54.2974 C.2       21 UNK         0.5000 
    118 O         -5.8813  -15.8163  -54.6543 O.2       21 UNK        -0.5000 
    119 N         -4.1927  -16.6720  -53.4155 N.am      22 UNK        -0.5000 
    120 CA        -3.8693  -15.5212  -52.5565 C.3       22 UNK         0.1400 
    121 C         -3.3535  -14.2491  -53.2943 C.2       22 UNK         0.5000 
    122 N         -2.9456  -14.3363  -54.5542 N.am      22 UNK        -0.7600 
    123 O         -3.2901  -13.1703  -52.7109 O.2       22 UNK        -0.5000 
    124 C124       -4.9932  -15.2043  -51.5242 C.3       23 UNK        -0.0398 
    125 S125       -5.6224  -16.6857  -50.6491 S.3       23 UNK        -0.2404 
    126 C126       -4.6340  -16.7086  -49.1213 C.3       23 UNK        -0.0205 
    127 H127        3.4854   -9.7099  -50.2819 H         1 UNK         0.0600 
    128 H128        3.4735  -10.5622  -51.8298 H         1 UNK         0.0600 
    129 H129        2.1159  -10.7371  -50.7143 H         1 UNK         0.0600 
    130 H130        2.1469  -12.6530  -49.5764 H         1 UNK         0.3000 
    131 H131        4.4966  -14.3369  -49.4041 H         1 UNK         0.0600 
    132 H132        2.9762  -15.8993  -48.1865 H         1 UNK         0.0800 
    133 H133        2.3726  -15.4365  -49.7412 H         1 UNK         0.0800 
    134 H134        0.4204  -14.2430  -50.2904 H         1 UNK         0.0800 
    135 H135       -0.7703  -13.5625  -49.2190 H         1 UNK         0.0800 
    136 H136       -2.7761  -14.7364  -48.8345 H         1 UNK         0.1150 
    137 H137       -3.1862  -18.8287  -50.0361 H         1 UNK         0.1150 
    138 H138        0.6413  -16.9121  -50.2372 H         1 UNK         0.1150 
    139 H139       -1.3201  -19.8828  -51.2446 H         1 UNK         0.0800 
    140 H140        0.2019  -19.0532  -51.4276 H         1 UNK         0.0800 
    141 H141       -1.7516  -20.0644  -47.9195 H         1 UNK         0.0800 
    142 H142       -2.0975  -21.0826  -49.3020 H         1 UNK         0.0800 
    143 H143       -0.6924  -22.9171  -48.3135 H         1 UNK         0.0600 
    144 H144        0.0402  -20.9460  -46.3788 H         1 UNK         0.3000 
    145 H145        0.6825  -22.5022  -43.7317 H         1 UNK         0.0600 
    146 H146        3.1613  -22.8915  -43.6843 H         1 UNK         0.0600 
    147 H147        2.2709  -24.2787  -44.2897 H         1 UNK         0.0600 
    148 H148        3.1312  -23.2407  -45.4135 H         1 UNK         0.0600 
    149 H149        1.1099  -20.3767  -44.0115 H         1 UNK         0.3000 
    150 H150        3.4557  -18.4425  -45.5560 H         1 UNK         0.0600 
    151 H151        1.5842  -17.0081  -46.4435 H         1 UNK         0.0600 
    152 H152        0.5413  -18.4240  -46.5197 H         1 UNK         0.0600 
    153 H153        1.9748  -18.3315  -47.5337 H         1 UNK         0.0600 
    154 H154        1.0624  -17.7368  -44.1577 H         1 UNK         0.3000 
    155 H155        2.2165  -18.4756  -40.8608 H         1 UNK         0.0600 
    156 H156        1.4798  -16.1169  -40.5934 H         1 UNK         0.0600 
    157 H157        1.5811  -15.8617  -42.3349 H         1 UNK         0.0600 
    158 H158        3.0358  -16.1922  -41.4038 H         1 UNK         0.0600 
    159 H159       -0.2508  -17.5202  -42.0413 H         1 UNK         0.3000 
    160 H160       -1.8317  -20.7135  -42.2311 H         1 UNK         0.0600 
    161 H161       -2.2815  -18.3903  -40.2804 H         1 UNK         0.0600 
    162 H162       -2.0675  -20.0782  -39.8310 H         1 UNK         0.0600 
    163 H163       -3.4803  -19.5940  -40.7553 H         1 UNK         0.0600 
    164 H164       -2.6478  -17.9667  -42.6753 H         1 UNK         0.3000 
    165 H165       -1.7423  -17.7811  -46.0673 H         1 UNK         0.0600 
    166 H166       -4.5472  -18.3454  -44.9655 H         1 UNK         0.0600 
    167 H167       -4.2063  -17.3810  -46.3933 H         1 UNK         0.0600 
    168 H168       -3.8013  -19.0930  -46.3778 H         1 UNK         0.0600 
    169 H169       -3.4033  -16.1165  -44.4852 H         1 UNK         0.3000 
    170 H170       -2.7107  -14.1804  -43.7102 H         1 UNK         0.0600 
    171 H171       -2.3321  -15.4350  -41.5715 H         1 UNK         0.0600 
    172 H172       -0.6346  -14.9693  -41.5930 H         1 UNK         0.0600 
    173 H173       -1.8855  -13.7436  -41.4165 H         1 UNK         0.0600 
    174 H174        0.0061  -13.2691  -43.2263 H         1 UNK         0.3000 
    175 H175        0.4267  -11.7691  -46.4126 H         1 UNK         0.0600 
    176 H176        0.7273   -9.7052  -45.0766 H         1 UNK         0.0600 
    177 H177       -0.9753  -10.1157  -45.2128 H         1 UNK         0.0600 
    178 H178       -0.1192  -10.4339  -43.7117 H         1 UNK         0.0600 
    179 H179        2.3603  -12.3672  -45.6389 H         1 UNK         0.3000 
    180 H180        4.1670  -12.1743  -44.3001 H         1 UNK         0.0600 
    181 H181        5.3452  -12.6696  -42.1698 H         1 UNK         0.0600 
    182 H182        4.1584  -11.3940  -41.9396 H         1 UNK         0.0600 
    183 H183        3.8124  -13.0262  -41.3779 H         1 UNK         0.0600 
    184 H184        3.0898  -14.7557  -43.2781 H         1 UNK         0.3000 
    185 H185        5.7222  -13.1272  -45.2701 H         1 UNK         0.0600 
    186 H186        7.7059  -14.3176  -46.0476 H         1 UNK         0.0600 
    187 H187        7.3387  -14.7822  -44.3938 H         1 UNK         0.0600 
    188 H188        6.9583  -15.8784  -45.7163 H         1 UNK         0.0600 
    189 H189        5.4877  -15.0592  -47.4476 H         1 UNK         0.3000 
    190 H190       -2.3362  -21.5281  -45.4907 H         1 UNK         0.3000 
    191 H191       -4.8989  -22.8044  -46.0250 H         1 UNK         0.0600 
    192 H192       -5.4104  -22.0668  -43.6892 H         1 UNK         0.0600 
    193 H193       -4.7696  -20.7526  -44.6574 H         1 UNK         0.0600 
    194 H194       -3.7405  -21.5594  -43.4743 H         1 UNK         0.0600 
    195 H195       -1.9451  -23.6603  -44.2630 H         1 UNK         0.3000 
    196 H196       -3.0536  -25.9171  -42.8398 H         1 UNK         0.0600 
    197 H197       -0.6847  -26.3102  -42.1975 H         1 UNK         0.0600 
    198 H198       -1.1197  -24.6246  -41.9645 H         1 UNK         0.0600 
    199 H199       -0.1415  -25.1011  -43.3516 H         1 UNK         0.0600 
    200 H200       -0.9685  -25.5431  -45.7459 H         1 UNK         0.3000 
    201 H201       -0.9098  -28.3786  -46.3531 H         1 UNK         0.0600 
    202 H202        0.9501  -26.8116  -46.9213 H         1 UNK         0.0600 
    203 H203       -0.1133  -25.9176  -48.0051 H         1 UNK         0.0600 
    204 H204        0.3207  -27.5839  -48.3683 H         1 UNK         0.0600 
    205 H205       -3.2155  -25.9248  -46.8971 H         1 UNK         0.3000 
    206 H206       -5.0684  -25.6391  -48.0400 H         1 UNK         0.0600 
    207 H207       -5.6567  -28.0082  -47.4387 H         1 UNK         0.0600 
    208 H208       -6.3628  -27.4979  -48.9631 H         1 UNK         0.0600 
    209 H209       -4.9622  -28.5564  -48.9647 H         1 UNK         0.0600 
    210 H210       -2.3473  -25.3592  -49.2281 H         1 UNK         0.3000 
    211 H211       -2.5290  -25.6322  -52.0910 H         1 UNK         0.0600 
    212 H212       -0.6593  -23.9096  -50.3755 H         1 UNK         0.0600 
    213 H213       -0.4342  -24.3084  -52.0706 H         1 UNK         0.0600 
    214 H214       -0.3516  -25.5776  -50.8588 H         1 UNK         0.0600 
    215 H215       -3.7370  -23.2873  -49.8262 H         1 UNK         0.3000 
    216 H216       -3.9384  -20.9561  -51.3793 H         1 UNK         0.0600 
    217 H217       -5.7785  -20.3686  -49.7775 H         1 UNK         0.0600 
    218 H218       -4.3851  -21.0154  -48.9374 H         1 UNK         0.0600 
    219 H219       -5.8014  -22.0291  -49.1939 H         1 UNK         0.0600 
    220 H220       -5.7183  -23.9368  -51.7422 H         1 UNK         0.3000 
    221 H221       -7.9787  -22.8829  -53.2073 H         1 UNK         0.0600 
    222 H222       -6.7847  -25.7037  -53.0556 H         1 UNK         0.0600 
    223 H223       -8.0593  -25.0651  -52.0183 H         1 UNK         0.0600 
    224 H224       -8.3555  -25.2928  -53.7351 H         1 UNK         0.0600 
    225 H225       -4.6579  -23.6665  -54.0473 H         1 UNK         0.3000 
    226 H226       -5.2311  -23.5799  -56.9836 H         1 UNK         0.0600 
    227 H227       -2.9611  -24.5829  -57.1892 H         1 UNK         0.0600 
    228 H228       -2.7939  -24.6158  -55.4373 H         1 UNK         0.0600 
    229 H229       -4.0213  -25.6017  -56.2275 H         1 UNK         0.0600 
    230 H230       -2.9871  -22.3723  -54.4455 H         1 UNK         0.3000 
    231 H231       -2.1119  -20.0691  -56.0887 H         1 UNK         0.0600 
    232 H232       -0.6024  -19.7070  -54.1106 H         1 UNK         0.0600 
    233 H233       -0.3931  -21.3027  -54.8178 H         1 UNK         0.0600 
    234 H234       -1.3002  -21.1177  -53.3211 H         1 UNK         0.0600 
    235 H235       -4.2778  -19.2358  -56.2180 H         1 UNK         0.3000 
    236 H236       -5.9639  -18.7265  -54.0217 H         1 UNK         0.0600 
    237 H237       -6.0720  -17.6540  -56.8822 H         1 UNK         0.0600 
    238 H238       -6.7309  -19.1947  -56.3298 H         1 UNK         0.0600 
    239 H239       -7.4132  -17.6904  -55.7415 H         1 UNK         0.0600 
    240 H240       -3.7072  -17.5370  -53.1859 H         1 UNK         0.3000 
    241 H241       -3.0001  -15.8521  -51.9907 H         1 UNK         0.0600 
    242 H242       -2.6043  -13.5139  -55.0264 H         1 UNK         0.3800 
    243 H243       -2.9997  -15.2142  -55.0456 H         1 UNK         0.3800 
    244 H244       -5.8385  -14.7344  -52.0289 H         1 UNK         0.0800 
    245 H245       -4.6447  -14.4801  -50.7864 H         1 UNK         0.0800 
    246 H246       -4.8795  -15.8347  -48.5159 H         1 UNK         0.0800 
    247 H247       -4.9346  -17.5828  -48.5437 H         1 UNK         0.0800 
@<TRIPOS>BOND
     1    1    2 1    
     2    1  127 1    
     3    1  128 1    
     4    1  129 1    
     5    2    3 2    
     6    2    4 am   BACKBONE|DICT|INTERRES
     7    4    5 1    
     8    4  130 1    
     9    5    6 1    
    10    5   65 1    
    11    5  131 1    
    12    6    7 1    
    13    6  132 1    
    14    6  133 1    
    15    7    8 1    
    16    8    9 1    
    17    8  134 1    
    18    8  135 1    
    19    9   10 ar   
    20    9   14 ar   
    21   10   11 ar   
    22   10  136 1    
    23   11   12 ar   
    24   11  126 1    
    25   12   13 ar   
    26   12  137 1    
    27   13   14 ar   
    28   13   15 1    
    29   14  138 1    
    30   15   16 1    
    31   15  139 1    
    32   15  140 1    
    33   16   17 1    
    34   17   18 1    
    35   17  141 1    
    36   17  142 1    
    37   18   19 1    
    38   18   67 1    
    39   18  143 1    
    40   19   20 am   BACKBONE|DICT|INTERRES
    41   19  144 1    
    42   20   21 2    
    43   20   22 1    
    44   22   23 1    
    45   22   24 1    
    46   22  145 1    
    47   23  146 1    
    48   23  147 1    
    49   23  148 1    
    50   24   25 am   BACKBONE|DICT|INTERRES
    51   24  149 1    
    52   25   26 2    
    53   25   27 1    
    54   27   28 1    
    55   27   29 1    
    56   27  150 1    
    57   28  151 1    
    58   28  152 1    
    59   28  153 1    
    60   29   30 am   BACKBONE|DICT|INTERRES
    61   29  154 1    
    62   30   31 2    
    63   30   32 1    
    64   32   33 1    
    65   32   34 1    
    66   32  155 1    
    67   33  156 1    
    68   33  157 1    
    69   33  158 1    
    70   34   35 am   BACKBONE|DICT|INTERRES
    71   34  159 1    
    72   35   36 2    
    73   35   37 1    
    74   37   38 1    
    75   37   39 1    
    76   37  160 1    
    77   38  161 1    
    78   38  162 1    
    79   38  163 1    
    80   39   40 am   BACKBONE|DICT|INTERRES
    81   39  164 1    
    82   40   41 2    
    83   40   42 1    
    84   42   43 1    
    85   42   44 1    
    86   42  165 1    
    87   43  166 1    
    88   43  167 1    
    89   43  168 1    
    90   44   45 am   BACKBONE|DICT|INTERRES
    91   44  169 1    
    92   45   46 2    
    93   45   47 1    
    94   47   48 1    
    95   47   49 1    
    96   47  170 1    
    97   48  171 1    
    98   48  172 1    
    99   48  173 1    
   100   49   50 am   BACKBONE|DICT|INTERRES
   101   49  174 1    
   102   50   51 2    
   103   50   52 1    
   104   52   53 1    
   105   52   54 1    
   106   52  175 1    
   107   53  176 1    
   108   53  177 1    
   109   53  178 1    
   110   54   55 am   BACKBONE|DICT|INTERRES
   111   54  179 1    
   112   55   56 2    
   113   55   57 1    
   114   57   58 1    
   115   57   59 1    
   116   57  180 1    
   117   58  181 1    
   118   58  182 1    
   119   58  183 1    
   120   59   60 am   BACKBONE|DICT|INTERRES
   121   59  184 1    
   122   60   61 2    
   123   60   62 1    
   124   62   63 1    
   125   62   64 1    
   126   62  185 1    
   127   63  186 1    
   128   63  187 1    
   129   63  188 1    
   130   64   65 am   BACKBONE|DICT|INTERRES
   131   64  189 1    
   132   65   66 2    
   133   67   68 2    
   134   67   69 am   BACKBONE|DICT|INTERRES
   135   69   70 1    
   136   69  190 1    
   137   70   71 1    
   138   70   72 1    
   139   70  191 1    
   140   71  192 1    
   141   71  193 1    
   142   71  194 1    
   143   72   73 2    
   144   72   74 am   BACKBONE|DICT|INTERRES
   145   74   75 1    
   146   74  195 1    
   147   75   76 1    
   148   75   77 1    
   149   75  196 1    
   150   76  197 1    
   151   76  198 1    
   152   76  199 1    
   153   77   78 2    
   154   77   79 am   BACKBONE|DICT|INTERRES
   155   79   80 1    
   156   79  200 1    
   157   80   81 1    
   158   80   82 1    
   159   80  201 1    
   160   81  202 1    
   161   81  203 1    
   162   81  204 1    
   163   82   83 2    
   164   82   84 am   BACKBONE|DICT|INTERRES
   165   84   85 1    
   166   84  205 1    
   167   85   86 1    
   168   85   87 1    
   169   85  206 1    
   170   86  207 1    
   171   86  208 1    
   172   86  209 1    
   173   87   88 2    
   174   87   89 am   BACKBONE|DICT|INTERRES
   175   89   90 1    
   176   89  210 1    
   177   90   91 1    
   178   90   92 1    
   179   90  211 1    
   180   91  212 1    
   181   91  213 1    
   182   91  214 1    
   183   92   93 2    
   184   92   94 am   BACKBONE|DICT|INTERRES
   185   94   95 1    
   186   94  215 1    
   187   95   96 1    
   188   95   97 1    
   189   95  216 1    
   190   96  217 1    
   191   96  218 1    
   192   96  219 1    
   193   97   98 2    
   194   97   99 am   BACKBONE|DICT|INTERRES
   195   99  100 1    
   196   99  220 1    
   197  100  101 1    
   198  100  102 1    
   199  100  221 1    
   200  101  222 1    
   201  101  223 1    
   202  101  224 1    
   203  102  103 2    
   204  102  104 am   BACKBONE|DICT|INTERRES
   205  104  105 1    
   206  104  225 1    
   207  105  106 1    
   208  105  107 1    
   209  105  226 1    
   210  106  227 1    
   211  106  228 1    
   212  106  229 1    
   213  107  108 2    
   214  107  109 am   BACKBONE|DICT|INTERRES
   215  109  110 1    
   216  109  230 1    
   217  110  111 1    
   218  110  112 1    
   219  110  231 1    
   220  111  232 1    
   221  111  233 1    
   222  111  234 1    
   223  112  113 2    
   224  112  114 am   BACKBONE|DICT|INTERRES
   225  114  115 1    
   226  114  235 1    
   227  115  116 1    
   228  115  117 1    
   229  115  236 1    
   230  116  237 1    
   231  116  238 1    
   232  116  239 1    
   233  117  118 2    
   234  117  119 am   BACKBONE|DICT|INTERRES
   235  119  120 1    
   236  119  240 1    
   237  120  121 1    
   238  120  124 1    
   239  120  241 1    
   240  121  122 am   BACKBONE|DICT|INTERRES
   241  121  123 2    
   242  122  242 1    
   243  122  243 1    
   244  124  125 1    
   245  124  244 1    
   246  124  245 1    
   247  125  126 1    
   248  126  246 1    
   249  126  247 1    
@<TRIPOS>SUBSTRUCTURE
     1 UNK         1 GROUP             0       ****    0 ROOT    
