@<TRIPOS>MOLECULE
3R540
247   249    1
SMALL
USER_CHARGES


@<TRIPOS>ATOM
      1 CA          5.9787  -14.6228  -48.0818 C.3       0 UNK        -0.1800 
      2 C           5.0465  -13.9070  -47.1155 C.2       0 UNK         0.5000 
      3 O           5.3099  -13.8810  -45.9127 O.2       0 UNK        -0.5000 
      4 N           3.9586  -13.3239  -47.6335 N.am      1 UNK        -0.5000 
      5 CA          2.9246  -12.6059  -46.8776 C.3       1 UNK         0.1400 
      6 C6          1.5734  -12.5761  -47.6368 C.3       23 UNK        -0.0398 
      7 S7          0.8586  -14.2382  -47.8646 S.3       23 UNK        -0.2404 
      8 C8          1.1969  -14.5439  -49.6253 C.3       23 UNK        -0.0205 
      9 C9          0.5770  -15.8530  -50.0882 C.ar      23 UNK        -0.0193 
     10 C10        -0.7965  -15.9221  -50.3307 C.ar      23 UNK        -0.1150 
     11 C11        -1.3865  -17.1149  -50.7546 C.ar      23 UNK        -0.0193 
     12 C12        -0.5854  -18.2415  -50.9679 C.ar      23 UNK        -0.1150 
     13 C13         0.7938  -18.1848  -50.7347 C.ar      23 UNK        -0.0193 
     14 C14         1.3670  -16.9896  -50.2862 C.ar      23 UNK        -0.1150 
     15 C15         1.6741  -19.4013  -50.9922 C.3       23 UNK        -0.0205 
     16 S16         1.9613  -20.3881  -49.4868 S.3       23 UNK        -0.2404 
     17 C17         0.3363  -21.1829  -49.2876 C.3       23 UNK        -0.0398 
     18 CA          0.3440  -22.3755  -48.2987 C.3       11 UNK         0.1400 
     19 N           0.5242  -21.9624  -46.9018 N.am      11 UNK        -0.5000 
     20 C           0.6117  -22.8005  -45.8569 C.2       10 UNK         0.5000 
     21 O           0.6179  -24.0268  -45.9614 O.2       10 UNK        -0.5000 
     22 CA          0.6407  -22.1741  -44.4510 C.3       10 UNK         0.1400 
     23 CB          2.0440  -21.6547  -44.1054 C.3       10 UNK        -0.1800 
     24 N          -0.3479  -21.1075  -44.2841 N.am      10 UNK        -0.5000 
     25 C          -1.6754  -21.2854  -44.3616 C.2       9 UNK         0.5000 
     26 O          -2.2089  -22.3785  -44.5444 O.2       9 UNK        -0.5000 
     27 CA         -2.5584  -20.0280  -44.2710 C.3       9 UNK         0.1400 
     28 CB         -2.7303  -19.5732  -42.8142 C.3       9 UNK        -0.1800 
     29 N          -2.0376  -18.9233  -45.0719 N.am      9 UNK        -0.5000 
     30 C          -1.8843  -18.9513  -46.4034 C.2       8 UNK         0.5000 
     31 O          -2.2246  -19.8943  -47.1186 O.2       8 UNK        -0.5000 
     32 CA         -1.1783  -17.7364  -47.0259 C.3       8 UNK         0.1400 
     33 CB         -2.1631  -16.5655  -47.1774 C.3       8 UNK        -0.1800 
     34 N          -0.0107  -17.3204  -46.2437 N.am      8 UNK        -0.5000 
     35 C           1.0774  -18.0819  -46.0536 C.2       7 UNK         0.5000 
     36 O           1.2149  -19.2033  -46.5356 O.2       7 UNK        -0.5000 
     37 CA          2.1672  -17.5383  -45.1133 C.3       7 UNK         0.1400 
     38 CB          3.1130  -16.5804  -45.8465 C.3       7 UNK        -0.1800 
     39 N           1.6092  -16.8794  -43.9335 N.am      7 UNK        -0.5000 
     40 C           0.9666  -17.5280  -42.9523 C.2       6 UNK         0.5000 
     41 O           0.8214  -18.7496  -42.9219 O.2       6 UNK        -0.5000 
     42 CA          0.3393  -16.6618  -41.8443 C.3       6 UNK         0.1400 
     43 CB          1.3729  -16.3459  -40.7530 C.3       6 UNK        -0.1800 
     44 N          -0.2394  -15.4094  -42.3381 N.am      6 UNK        -0.5000 
     45 C          -1.2181  -15.3175  -43.2504 C.2       5 UNK         0.5000 
     46 O          -1.7285  -16.3005  -43.7874 O.2       5 UNK        -0.5000 
     47 CA         -1.7182  -13.9081  -43.6271 C.3       5 UNK         0.1400 
     48 CB         -3.2355  -13.7941  -43.4067 C.3       5 UNK        -0.1800 
     49 N          -1.0537  -12.8413  -42.8717 N.am      5 UNK        -0.5000 
     50 C           0.0704  -12.2207  -43.2466 C.2       4 UNK         0.5000 
     51 O           0.6981  -12.4844  -44.2748 O.2       4 UNK        -0.5000 
     52 CA          0.5988  -11.1455  -42.2902 C.3       4 UNK         0.1400 
     53 CB          1.5718  -11.7544  -41.2653 C.3       4 UNK        -0.1800 
     54 N           1.2786  -10.1213  -43.0724 N.am      4 UNK        -0.5000 
     55 C           1.4227   -8.8386  -42.7214 C.2       3 UNK         0.5000 
     56 O           1.0036   -8.3751  -41.6589 O.2       3 UNK        -0.5000 
     57 CA          2.1400   -7.9227  -43.7380 C.3       3 UNK         0.1400 
     58 CB          2.7304   -6.6503  -43.0938 C.3       3 UNK        -0.1800 
     59 N           3.1507   -8.6229  -44.5402 N.am      3 UNK        -0.5000 
     60 C           4.2755   -9.2110  -44.1094 C.2       2 UNK         0.5000 
     61 O           4.6309   -9.2416  -42.9298 O.2       2 UNK        -0.5000 
     62 CA          5.1206   -9.9097  -45.1941 C.3       2 UNK         0.1400 
     63 CB          6.5322  -10.2759  -44.7020 C.3       2 UNK        -0.1800 
     64 N           4.4712  -11.1247  -45.6847 N.am      2 UNK        -0.5000 
     65 C           3.4105  -11.1890  -46.4980 C.2       1 UNK         0.5000 
     66 O           2.8489  -10.1903  -46.9542 O.2       1 UNK        -0.5000 
     67 C          -0.9390  -23.2105  -48.4777 C.2       11 UNK         0.5000 
     68 O          -0.8771  -24.3042  -49.0414 O.2       11 UNK        -0.5000 
     69 N          -2.0690  -22.6928  -47.9751 N.am      12 UNK        -0.5000 
     70 CA         -3.3738  -23.3481  -48.0457 C.3       12 UNK         0.1400 
     71 CB         -4.4634  -22.3884  -47.5475 C.3       12 UNK        -0.1800 
     72 C          -3.4198  -24.6849  -47.2850 C.2       12 UNK         0.5000 
     73 O          -3.9716  -25.6553  -47.8029 O.2       12 UNK        -0.5000 
     74 N          -2.8067  -24.7286  -46.0938 N.am      13 UNK        -0.5000 
     75 CA         -2.6720  -25.9330  -45.2743 C.3       13 UNK         0.1400 
     76 CB         -2.1242  -25.5585  -43.8890 C.3       13 UNK        -0.1800 
     77 C          -1.7916  -27.0108  -45.9320 C.2       13 UNK         0.5000 
     78 O          -2.1382  -28.1906  -45.8687 O.2       13 UNK        -0.5000 
     79 N          -0.6858  -26.5908  -46.5634 N.am      14 UNK        -0.5000 
     80 CA          0.2310  -27.4657  -47.2951 C.3       14 UNK         0.1400 
     81 CB          1.5182  -26.6991  -47.6355 C.3       14 UNK        -0.1800 
     82 C          -0.4032  -28.0588  -48.5656 C.2       14 UNK         0.5000 
     83 O          -0.2229  -29.2472  -48.8349 O.2       14 UNK        -0.5000 
     84 N          -1.1418  -27.2286  -49.3145 N.am      15 UNK        -0.5000 
     85 CA         -1.8643  -27.6353  -50.5205 C.3       15 UNK         0.1400 
     86 CB         -2.2573  -26.3822  -51.3157 C.3       15 UNK        -0.1800 
     87 C          -3.1187  -28.4762  -50.2225 C.2       15 UNK         0.5000 
     88 O          -3.4910  -29.3109  -51.0478 O.2       15 UNK        -0.5000 
     89 N          -3.7582  -28.2099  -49.0730 N.am      16 UNK        -0.5000 
     90 CA         -5.0795  -28.6917  -48.6544 C.3       16 UNK         0.1400 
     91 CB         -5.0745  -30.2179  -48.4296 C.3       16 UNK        -0.1800 
     92 C          -6.1897  -28.2118  -49.6158 C.2       16 UNK         0.5000 
     93 O          -7.1223  -28.9584  -49.9198 O.2       16 UNK        -0.5000 
     94 N          -6.0442  -26.9719  -50.0966 N.am      17 UNK        -0.5000 
     95 CA         -6.8481  -26.3280  -51.1297 C.3       17 UNK         0.1400 
     96 CB         -6.5509  -26.9711  -52.5008 C.3       17 UNK        -0.1800 
     97 C          -6.5113  -24.8280  -51.1423 C.2       17 UNK         0.5000 
     98 O          -5.6281  -24.3903  -50.3998 O.2       17 UNK        -0.5000 
     99 N          -7.2003  -24.0631  -51.9984 N.am      18 UNK        -0.5000 
    100 CA        -6.9566  -22.6386  -52.2348 C.3       18 UNK         0.1400 
    101 CB        -8.1932  -22.0236  -52.9147 C.3       18 UNK        -0.1800 
    102 C         -5.6687  -22.4187  -53.0561 C.2       18 UNK         0.5000 
    103 O         -5.7343  -22.1587  -54.2605 O.2       18 UNK        -0.5000 
    104 N         -4.5176  -22.5721  -52.3901 N.am      19 UNK        -0.5000 
    105 CA        -3.1704  -22.3871  -52.9285 C.3       19 UNK         0.1400 
    106 CB        -2.1549  -22.5825  -51.7969 C.3       19 UNK        -0.1800 
    107 C         -2.9859  -20.9984  -53.5610 C.2       19 UNK         0.5000 
    108 O         -3.3253  -19.9996  -52.9283 O.2       19 UNK        -0.5000 
    109 N         -2.4864  -20.9693  -54.8045 N.am      20 UNK        -0.5000 
    110 CA        -2.2922  -19.7749  -55.6402 C.3       20 UNK         0.1400 
    111 CB        -1.1760  -18.8825  -55.0557 C.3       20 UNK        -0.1800 
    112 C         -3.5963  -18.9911  -55.9287 C.2       20 UNK         0.5000 
    113 O         -3.5359  -17.8029  -56.2483 O.2       20 UNK        -0.5000 
    114 N         -4.7464  -19.6771  -55.8198 N.am      21 UNK        -0.5000 
    115 CA        -6.1130  -19.1568  -55.9209 C.3       21 UNK         0.1400 
    116 CB        -6.4045  -18.6173  -57.3375 C.3       21 UNK        -0.1800 
    117 C         -6.4645  -18.1538  -54.7999 C.2       21 UNK         0.5000 
    118 O         -7.2603  -17.2389  -55.0219 O.2       21 UNK        -0.5000 
    119 N         -5.8847  -18.3495  -53.6107 N.am      22 UNK        -0.5000 
    120 CA        -6.1088  -17.5345  -52.4113 C.3       22 UNK         0.1400 
    121 C         -6.1249  -18.3901  -51.1131 C.2       22 UNK         0.5000 
    122 N         -6.3221  -17.7772  -49.9529 N.am      22 UNK        -0.7600 
    123 O         -5.9956  -19.6107  -51.1367 O.2       22 UNK        -0.5000 
    124 C124       -5.1754  -16.2895  -52.3514 C.3       23 UNK        -0.0398 
    125 S125       -3.3912  -16.6103  -52.5961 S.3       23 UNK        -0.2404 
    126 C126       -2.8929  -17.1820  -50.9442 C.3       23 UNK        -0.0205 
    127 H127        6.0637  -15.6745  -47.8081 H         1 UNK         0.0600 
    128 H128        6.9727  -14.1772  -48.0439 H         1 UNK         0.0600 
    129 H129        5.6186  -14.5672  -49.1094 H         1 UNK         0.0600 
    130 H130        3.8201  -13.3511  -48.6325 H         1 UNK         0.3000 
    131 H131        2.7568  -13.1361  -45.9377 H         1 UNK         0.0600 
    132 H132        1.6780  -12.0782  -48.6021 H         1 UNK         0.0800 
    133 H133        0.8398  -11.9948  -47.0752 H         1 UNK         0.0800 
    134 H134        0.7943  -13.7242  -50.2224 H         1 UNK         0.0800 
    135 H135        2.2744  -14.5528  -49.7930 H         1 UNK         0.0800 
    136 H136       -1.4116  -15.0477  -50.1703 H         1 UNK         0.1150 
    137 H137       -1.0393  -19.1611  -51.3107 H         1 UNK         0.1150 
    138 H138        2.4309  -16.9437  -50.1003 H         1 UNK         0.1150 
    139 H139        1.2382  -20.0294  -51.7707 H         1 UNK         0.0800 
    140 H140        2.6393  -19.0727  -51.3801 H         1 UNK         0.0800 
    141 H141        0.0293  -21.5175  -50.2786 H         1 UNK         0.0800 
    142 H142       -0.3872  -20.4276  -48.9792 H         1 UNK         0.0800 
    143 H143        1.1839  -23.0251  -48.5540 H         1 UNK         0.0600 
    144 H144        0.5917  -20.9606  -46.7344 H         1 UNK         0.3000 
    145 H145        0.3929  -22.9616  -43.7364 H         1 UNK         0.0600 
    146 H146        2.0837  -21.2754  -43.0842 H         1 UNK         0.0600 
    147 H147        2.7840  -22.4519  -44.1853 H         1 UNK         0.0600 
    148 H148        2.3552  -20.8521  -44.7730 H         1 UNK         0.0600 
    149 H149        0.0131  -20.1798  -44.0871 H         1 UNK         0.3000 
    150 H150       -3.5438  -20.2852  -44.6649 H         1 UNK         0.0600 
    151 H151       -3.1569  -20.3710  -42.2050 H         1 UNK         0.0600 
    152 H152       -3.4002  -18.7159  -42.7457 H         1 UNK         0.0600 
    153 H153       -1.7792  -19.2893  -42.3640 H         1 UNK         0.0600 
    154 H154       -1.7636  -18.0816  -44.5727 H         1 UNK         0.3000 
    155 H155       -0.8268  -18.0237  -48.0182 H         1 UNK         0.0600 
    156 H156       -1.6910  -15.7030  -47.6439 H         1 UNK         0.0600 
    157 H157       -3.0073  -16.8526  -47.8044 H         1 UNK         0.0600 
    158 H158       -2.5702  -16.2427  -46.2202 H         1 UNK         0.0600 
    159 H159       -0.0675  -16.4247  -45.7841 H         1 UNK         0.3000 
    160 H160        2.7604  -18.3908  -44.7759 H         1 UNK         0.0600 
    161 H161        2.6177  -15.6457  -46.1006 H         1 UNK         0.0600 
    162 H162        3.4829  -17.0214  -46.7732 H         1 UNK         0.0600 
    163 H163        3.9800  -16.3401  -45.2311 H         1 UNK         0.0600 
    164 H164        1.6757  -15.8733  -43.8898 H         1 UNK         0.3000 
    165 H165       -0.4680  -17.2422  -41.3929 H         1 UNK         0.0600 
    166 H166        0.9154  -15.8154  -39.9177 H         1 UNK         0.0600 
    167 H167        1.8110  -17.2617  -40.3536 H         1 UNK         0.0600 
    168 H168        2.1885  -15.7310  -41.1355 H         1 UNK         0.0600 
    169 H169        0.1199  -14.5553  -41.9407 H         1 UNK         0.3000 
    170 H170       -1.5224  -13.7748  -44.6934 H         1 UNK         0.0600 
    171 H171       -3.7757  -14.5363  -43.9962 H         1 UNK         0.0600 
    172 H172       -3.5034  -13.9474  -42.3606 H         1 UNK         0.0600 
    173 H173       -3.6048  -12.8138  -43.7084 H         1 UNK         0.0600 
    174 H174       -1.4976  -12.5703  -42.0053 H         1 UNK         0.3000 
    175 H175       -0.2496  -10.6984  -41.7675 H         1 UNK         0.0600 
    176 H176        1.0846  -12.5276  -40.6702 H         1 UNK         0.0600 
    177 H177        2.4359  -12.2074  -41.7533 H         1 UNK         0.0600 
    178 H178        1.9402  -10.9975  -40.5726 H         1 UNK         0.0600 
    179 H179        1.6119  -10.4331  -43.9750 H         1 UNK         0.3000 
    180 H180        1.3701   -7.6024  -44.4412 H         1 UNK         0.0600 
    181 H181        3.4605   -6.8880  -42.3197 H         1 UNK         0.0600 
    182 H182        1.9487   -6.0479  -42.6298 H         1 UNK         0.0600 
    183 H183        3.2216   -6.0231  -43.8376 H         1 UNK         0.0600 
    184 H184        2.9267   -8.7382  -45.5238 H         1 UNK         0.3000 
    185 H185        5.2310   -9.2117  -46.0267 H         1 UNK         0.0600 
    186 H186        7.0592   -9.3947  -44.3339 H         1 UNK         0.0600 
    187 H187        6.5009  -11.0048  -43.8911 H         1 UNK         0.0600 
    188 H188        7.1320  -10.6993  -45.5079 H         1 UNK         0.0600 
    189 H189        4.8835  -12.0065  -45.3954 H         1 UNK         0.3000 
    190 H190       -2.0444  -21.7756  -47.5363 H         1 UNK         0.3000 
    191 H191       -3.5668  -23.5633  -49.0970 H         1 UNK         0.0600 
    192 H192       -4.3021  -22.1008  -46.5081 H         1 UNK         0.0600 
    193 H193       -5.4491  -22.8504  -47.6162 H         1 UNK         0.0600 
    194 H194       -4.4888  -21.4783  -48.1475 H         1 UNK         0.0600 
    195 H195       -2.4177  -23.8718  -45.7082 H         1 UNK         0.3000 
    196 H196       -3.6692  -26.3573  -45.1401 H         1 UNK         0.0600 
    197 H197       -2.0200  -26.4411  -43.2568 H         1 UNK         0.0600 
    198 H198       -2.7929  -24.8679  -43.3750 H         1 UNK         0.0600 
    199 H199       -1.1441  -25.0853  -43.9589 H         1 UNK         0.0600 
    200 H200       -0.4410  -25.6055  -46.5275 H         1 UNK         0.3000 
    201 H201        0.4981  -28.2967  -46.6388 H         1 UNK         0.0600 
    202 H202        2.0231  -26.3579  -46.7316 H         1 UNK         0.0600 
    203 H203        1.3154  -25.8244  -48.2544 H         1 UNK         0.0600 
    204 H204        2.2192  -27.3328  -48.1800 H         1 UNK         0.0600 
    205 H205       -1.1910  -26.2463  -49.0575 H         1 UNK         0.3000 
    206 H206       -1.1954  -28.2371  -51.1394 H         1 UNK         0.0600 
    207 H207       -1.3778  -25.7987  -51.5883 H         1 UNK         0.0600 
    208 H208       -2.7725  -26.6475  -52.2398 H         1 UNK         0.0600 
    209 H209       -2.9260  -25.7404  -50.7402 H         1 UNK         0.0600 
    210 H210       -3.3946  -27.4521  -48.5048 H         1 UNK         0.3000 
    211 H211       -5.2835  -28.2187  -47.6927 H         1 UNK         0.0600 
    212 H212       -4.9488  -30.7679  -49.3625 H         1 UNK         0.0600 
    213 H213       -6.0122  -30.5478  -47.9812 H         1 UNK         0.0600 
    214 H214       -4.2708  -30.5124  -47.7547 H         1 UNK         0.0600 
    215 H215       -5.2998  -26.3847  -49.7341 H         1 UNK         0.3000 
    216 H216       -7.9054  -26.4421  -50.8833 H         1 UNK         0.0600 
    217 H217       -5.4991  -26.8654  -52.7702 H         1 UNK         0.0600 
    218 H218       -7.1419  -26.5137  -53.2946 H         1 UNK         0.0600 
    219 H219       -6.7880  -28.0349  -52.5046 H         1 UNK         0.0600 
    220 H220       -7.8921  -24.4978  -52.5914 H         1 UNK         0.3000 
    221 H221       -6.8281  -22.1427  -51.2705 H         1 UNK         0.0600 
    222 H222       -9.0775  -22.1201  -52.2848 H         1 UNK         0.0600 
    223 H223       -8.4088  -22.4985  -53.8726 H         1 UNK         0.0600 
    224 H224       -8.0424  -20.9591  -53.1007 H         1 UNK         0.0600 
    225 H225       -4.5827  -22.8443  -51.4173 H         1 UNK         0.3000 
    226 H226       -3.0079  -23.1575  -53.6846 H         1 UNK         0.0600 
    227 H227       -2.2666  -23.5582  -51.3303 H         1 UNK         0.0600 
    228 H228       -1.1333  -22.5143  -52.1722 H         1 UNK         0.0600 
    229 H229       -2.2778  -21.8275  -51.0189 H         1 UNK         0.0600 
    230 H230       -2.2539  -21.8466  -55.2491 H         1 UNK         0.3000 
    231 H231       -1.9458  -20.1372  -56.6090 H         1 UNK         0.0600 
    232 H232       -1.4686  -18.4379  -54.1043 H         1 UNK         0.0600 
    233 H233       -0.9288  -18.0655  -55.7341 H         1 UNK         0.0600 
    234 H234       -0.2617  -19.4520  -54.8897 H         1 UNK         0.0600 
    235 H235       -4.6898  -20.6428  -55.5185 H         1 UNK         0.3000 
    236 H236       -6.7680  -20.0145  -55.7625 H         1 UNK         0.0600 
    237 H237       -7.4644  -18.3899  -57.4573 H         1 UNK         0.0600 
    238 H238       -5.8508  -17.7019  -57.5470 H         1 UNK         0.0600 
    239 H239       -6.1437  -19.3506  -58.1005 H         1 UNK         0.0600 
    240 H240       -5.2207  -19.1065  -53.4837 H         1 UNK         0.3000 
    241 H241       -7.1324  -17.1596  -52.4682 H         1 UNK         0.0600 
    242 H242       -6.3487  -18.3356  -49.1146 H         1 UNK         0.3800 
    243 H243       -6.4802  -16.7844  -49.8889 H         1 UNK         0.3800 
    244 H244       -5.3170  -15.7251  -51.4295 H         1 UNK         0.0800 
    245 H245       -5.4738  -15.6033  -53.1449 H         1 UNK         0.0800 
    246 H246       -3.2404  -18.2052  -50.7949 H         1 UNK         0.0800 
    247 H247       -3.3832  -16.5738  -50.1835 H         1 UNK         0.0800 
@<TRIPOS>BOND
     1    1    2 1    
     2    1  127 1    
     3    1  128 1    
     4    1  129 1    
     5    2    3 2    
     6    2    4 am   BACKBONE|DICT|INTERRES
     7    4    5 1    
     8    4  130 1    
     9    5    6 1    
    10    5   65 1    
    11    5  131 1    
    12    6    7 1    
    13    6  132 1    
    14    6  133 1    
    15    7    8 1    
    16    8    9 1    
    17    8  134 1    
    18    8  135 1    
    19    9   10 ar   
    20    9   14 ar   
    21   10   11 ar   
    22   10  136 1    
    23   11   12 ar   
    24   11  126 1    
    25   12   13 ar   
    26   12  137 1    
    27   13   14 ar   
    28   13   15 1    
    29   14  138 1    
    30   15   16 1    
    31   15  139 1    
    32   15  140 1    
    33   16   17 1    
    34   17   18 1    
    35   17  141 1    
    36   17  142 1    
    37   18   19 1    
    38   18   67 1    
    39   18  143 1    
    40   19   20 am   BACKBONE|DICT|INTERRES
    41   19  144 1    
    42   20   21 2    
    43   20   22 1    
    44   22   23 1    
    45   22   24 1    
    46   22  145 1    
    47   23  146 1    
    48   23  147 1    
    49   23  148 1    
    50   24   25 am   BACKBONE|DICT|INTERRES
    51   24  149 1    
    52   25   26 2    
    53   25   27 1    
    54   27   28 1    
    55   27   29 1    
    56   27  150 1    
    57   28  151 1    
    58   28  152 1    
    59   28  153 1    
    60   29   30 am   BACKBONE|DICT|INTERRES
    61   29  154 1    
    62   30   31 2    
    63   30   32 1    
    64   32   33 1    
    65   32   34 1    
    66   32  155 1    
    67   33  156 1    
    68   33  157 1    
    69   33  158 1    
    70   34   35 am   BACKBONE|DICT|INTERRES
    71   34  159 1    
    72   35   36 2    
    73   35   37 1    
    74   37   38 1    
    75   37   39 1    
    76   37  160 1    
    77   38  161 1    
    78   38  162 1    
    79   38  163 1    
    80   39   40 am   BACKBONE|DICT|INTERRES
    81   39  164 1    
    82   40   41 2    
    83   40   42 1    
    84   42   43 1    
    85   42   44 1    
    86   42  165 1    
    87   43  166 1    
    88   43  167 1    
    89   43  168 1    
    90   44   45 am   BACKBONE|DICT|INTERRES
    91   44  169 1    
    92   45   46 2    
    93   45   47 1    
    94   47   48 1    
    95   47   49 1    
    96   47  170 1    
    97   48  171 1    
    98   48  172 1    
    99   48  173 1    
   100   49   50 am   BACKBONE|DICT|INTERRES
   101   49  174 1    
   102   50   51 2    
   103   50   52 1    
   104   52   53 1    
   105   52   54 1    
   106   52  175 1    
   107   53  176 1    
   108   53  177 1    
   109   53  178 1    
   110   54   55 am   BACKBONE|DICT|INTERRES
   111   54  179 1    
   112   55   56 2    
   113   55   57 1    
   114   57   58 1    
   115   57   59 1    
   116   57  180 1    
   117   58  181 1    
   118   58  182 1    
   119   58  183 1    
   120   59   60 am   BACKBONE|DICT|INTERRES
   121   59  184 1    
   122   60   61 2    
   123   60   62 1    
   124   62   63 1    
   125   62   64 1    
   126   62  185 1    
   127   63  186 1    
   128   63  187 1    
   129   63  188 1    
   130   64   65 am   BACKBONE|DICT|INTERRES
   131   64  189 1    
   132   65   66 2    
   133   67   68 2    
   134   67   69 am   BACKBONE|DICT|INTERRES
   135   69   70 1    
   136   69  190 1    
   137   70   71 1    
   138   70   72 1    
   139   70  191 1    
   140   71  192 1    
   141   71  193 1    
   142   71  194 1    
   143   72   73 2    
   144   72   74 am   BACKBONE|DICT|INTERRES
   145   74   75 1    
   146   74  195 1    
   147   75   76 1    
   148   75   77 1    
   149   75  196 1    
   150   76  197 1    
   151   76  198 1    
   152   76  199 1    
   153   77   78 2    
   154   77   79 am   BACKBONE|DICT|INTERRES
   155   79   80 1    
   156   79  200 1    
   157   80   81 1    
   158   80   82 1    
   159   80  201 1    
   160   81  202 1    
   161   81  203 1    
   162   81  204 1    
   163   82   83 2    
   164   82   84 am   BACKBONE|DICT|INTERRES
   165   84   85 1    
   166   84  205 1    
   167   85   86 1    
   168   85   87 1    
   169   85  206 1    
   170   86  207 1    
   171   86  208 1    
   172   86  209 1    
   173   87   88 2    
   174   87   89 am   BACKBONE|DICT|INTERRES
   175   89   90 1    
   176   89  210 1    
   177   90   91 1    
   178   90   92 1    
   179   90  211 1    
   180   91  212 1    
   181   91  213 1    
   182   91  214 1    
   183   92   93 2    
   184   92   94 am   BACKBONE|DICT|INTERRES
   185   94   95 1    
   186   94  215 1    
   187   95   96 1    
   188   95   97 1    
   189   95  216 1    
   190   96  217 1    
   191   96  218 1    
   192   96  219 1    
   193   97   98 2    
   194   97   99 am   BACKBONE|DICT|INTERRES
   195   99  100 1    
   196   99  220 1    
   197  100  101 1    
   198  100  102 1    
   199  100  221 1    
   200  101  222 1    
   201  101  223 1    
   202  101  224 1    
   203  102  103 2    
   204  102  104 am   BACKBONE|DICT|INTERRES
   205  104  105 1    
   206  104  225 1    
   207  105  106 1    
   208  105  107 1    
   209  105  226 1    
   210  106  227 1    
   211  106  228 1    
   212  106  229 1    
   213  107  108 2    
   214  107  109 am   BACKBONE|DICT|INTERRES
   215  109  110 1    
   216  109  230 1    
   217  110  111 1    
   218  110  112 1    
   219  110  231 1    
   220  111  232 1    
   221  111  233 1    
   222  111  234 1    
   223  112  113 2    
   224  112  114 am   BACKBONE|DICT|INTERRES
   225  114  115 1    
   226  114  235 1    
   227  115  116 1    
   228  115  117 1    
   229  115  236 1    
   230  116  237 1    
   231  116  238 1    
   232  116  239 1    
   233  117  118 2    
   234  117  119 am   BACKBONE|DICT|INTERRES
   235  119  120 1    
   236  119  240 1    
   237  120  121 1    
   238  120  124 1    
   239  120  241 1    
   240  121  122 am   BACKBONE|DICT|INTERRES
   241  121  123 2    
   242  122  242 1    
   243  122  243 1    
   244  124  125 1    
   245  124  244 1    
   246  124  245 1    
   247  125  126 1    
   248  126  246 1    
   249  126  247 1    
@<TRIPOS>SUBSTRUCTURE
     1 UNK         1 GROUP             0       ****    0 ROOT    
