@<TRIPOS>MOLECULE
3R540
247   249    1
SMALL
USER_CHARGES


@<TRIPOS>ATOM
      1 CA         -2.8129  -13.6518  -39.8759 C.3       0 UNK        -0.1800 
      2 C          -2.2598  -12.8169  -41.0218 C.2       0 UNK         0.5000 
      3 O          -1.6341  -11.7841  -40.7841 O.2       0 UNK        -0.5000 
      4 N          -2.4727  -13.2665  -42.2648 N.am      1 UNK        -0.5000 
      5 CA         -2.0259  -12.6000  -43.4959 C.3       1 UNK         0.1400 
      6 C6         -2.9427  -12.9425  -44.6960 C.3       23 UNK        -0.0398 
      7 S7         -2.9430  -14.7081  -45.1590 S.3       23 UNK        -0.2404 
      8 C8         -4.1528  -14.6816  -46.5155 C.3       23 UNK        -0.0205 
      9 C9         -3.9546  -15.8601  -47.4543 C.ar      23 UNK        -0.0193 
     10 C10        -3.4418  -15.6572  -48.7394 C.ar      23 UNK        -0.1150 
     11 C11        -3.2693  -16.7368  -49.6078 C.ar      23 UNK        -0.0193 
     12 C12        -3.5748  -18.0247  -49.1671 C.ar      23 UNK        -0.1150 
     13 C13        -4.1142  -18.2469  -47.8976 C.ar      23 UNK        -0.0193 
     14 C14        -4.3065  -17.1507  -47.0463 C.ar      23 UNK        -0.1150 
     15 C15        -4.5100  -19.6754  -47.5226 C.3       23 UNK        -0.0205 
     16 S16        -4.6763  -20.0036  -45.7356 S.3       23 UNK        -0.2404 
     17 C17        -4.9119  -21.8125  -45.7536 C.3       23 UNK        -0.0398 
     18 CA         -3.5671  -22.5778  -45.7641 C.3       11 UNK         0.1400 
     19 N          -2.7105  -22.2168  -44.6251 N.am      11 UNK        -0.5000 
     20 C          -1.4267  -22.5624  -44.4629 C.2       10 UNK         0.5000 
     21 O          -0.8524  -23.3958  -45.1643 O.2       10 UNK        -0.5000 
     22 CA         -0.6558  -21.8034  -43.3673 C.3       10 UNK         0.1400 
     23 CB          0.6637  -22.4956  -42.9837 C.3       10 UNK        -0.1800 
     24 N          -0.3697  -20.4567  -43.8551 N.am      10 UNK        -0.5000 
     25 C          -1.2435  -19.4388  -43.8308 C.2       9 UNK         0.5000 
     26 O          -2.2988  -19.4753  -43.1967 O.2       9 UNK        -0.5000 
     27 CA         -0.9102  -18.1877  -44.6707 C.3       9 UNK         0.1400 
     28 CB         -0.3819  -17.0664  -43.7663 C.3       9 UNK        -0.1800 
     29 N           0.0624  -18.4364  -45.7376 N.am      9 UNK        -0.5000 
     30 C          -0.1342  -19.2500  -46.7880 C.2       8 UNK         0.5000 
     31 O          -1.1925  -19.8335  -47.0138 O.2       8 UNK        -0.5000 
     32 CA          1.0659  -19.5026  -47.7211 C.3       8 UNK         0.1400 
     33 CB          0.8964  -18.7288  -49.0331 C.3       8 UNK        -0.1800 
     34 N           2.3650  -19.1764  -47.1256 N.am      8 UNK        -0.5000 
     35 C           2.9070  -19.8269  -46.0844 C.2       7 UNK         0.5000 
     36 O           2.3517  -20.7643  -45.5119 O.2       7 UNK        -0.5000 
     37 CA          4.2789  -19.3447  -45.5717 C.3       7 UNK         0.1400 
     38 CB          5.3958  -20.2648  -46.0872 C.3       7 UNK        -0.1800 
     39 N           4.6047  -17.9610  -45.9249 N.am      7 UNK        -0.5000 
     40 C           3.9419  -16.8781  -45.4982 C.2       6 UNK         0.5000 
     41 O           2.9532  -16.9352  -44.7636 O.2       6 UNK        -0.5000 
     42 CA          4.4463  -15.5000  -45.9802 C.3       6 UNK         0.1400 
     43 CB          5.6080  -15.5583  -46.9990 C.3       6 UNK        -0.1800 
     44 N           3.3426  -14.6849  -46.4973 N.am      6 UNK        -0.5000 
     45 C           2.5326  -15.0038  -47.5184 C.2       5 UNK         0.5000 
     46 O           2.6864  -16.0059  -48.2170 O.2       5 UNK        -0.5000 
     47 CA          1.3400  -14.0724  -47.8052 C.3       5 UNK         0.1400 
     48 CB          0.0305  -14.7218  -47.3312 C.3       5 UNK        -0.1800 
     49 N           1.4560  -12.7487  -47.1881 N.am      5 UNK        -0.5000 
     50 C           2.1793  -11.7383  -47.6900 C.2       4 UNK         0.5000 
     51 O           2.8992  -11.8444  -48.6834 O.2       4 UNK        -0.5000 
     52 CA          2.0761  -10.3804  -46.9753 C.3       4 UNK         0.1400 
     53 CB          0.7714   -9.6675  -47.3659 C.3       4 UNK        -0.1800 
     54 N           2.1168  -10.5354  -45.5219 N.am      4 UNK        -0.5000 
     55 C           3.0777  -10.0523  -44.7216 C.2       3 UNK         0.5000 
     56 O           4.0289   -9.3796  -45.1214 O.2       3 UNK        -0.5000 
     57 CA          2.9706  -10.3742  -43.2142 C.3       3 UNK         0.1400 
     58 CB          2.3132   -9.2068  -42.4625 C.3       3 UNK        -0.1800 
     59 N           2.2261  -11.6014  -42.9239 N.am      3 UNK        -0.5000 
     60 C           2.5914  -12.8287  -43.3174 C.2       2 UNK         0.5000 
     61 O           3.6541  -13.0666  -43.8881 O.2       2 UNK        -0.5000 
     62 CA          1.5889  -13.9768  -43.0890 C.3       2 UNK         0.1400 
     63 CB          1.9909  -14.7930  -41.8517 C.3       2 UNK        -0.1800 
     64 N           0.1870  -13.5657  -42.9511 N.am      2 UNK        -0.5000 
     65 C          -0.5316  -12.8375  -43.8200 C.2       1 UNK         0.5000 
     66 O          -0.0546  -12.3516  -44.8473 O.2       1 UNK        -0.5000 
     67 C          -3.7975  -24.0915  -45.9633 C.2       11 UNK         0.5000 
     68 O          -4.2301  -24.4893  -47.0457 O.2       11 UNK        -0.5000 
     69 N          -3.4553  -24.9169  -44.9648 N.am      12 UNK        -0.5000 
     70 CA         -3.3692  -26.3734  -45.0826 C.3       12 UNK         0.1400 
     71 CB         -3.0917  -26.9774  -43.6984 C.3       12 UNK        -0.1800 
     72 C          -2.2986  -26.8273  -46.0975 C.2       12 UNK         0.5000 
     73 O          -2.5213  -27.8052  -46.8109 O.2       12 UNK        -0.5000 
     74 N          -1.1865  -26.0807  -46.1950 N.am      13 UNK        -0.5000 
     75 CA         -0.1293  -26.2923  -47.1900 C.3       13 UNK         0.1400 
     76 CB          1.1404  -25.5446  -46.7545 C.3       13 UNK        -0.1800 
     77 C          -0.5572  -25.8513  -48.6036 C.2       13 UNK         0.5000 
     78 O          -0.0356  -26.3722  -49.5890 O.2       13 UNK        -0.5000 
     79 N          -1.5266  -24.9291  -48.6729 N.am      14 UNK        -0.5000 
     80 CA         -2.1942  -24.4854  -49.8965 C.3       14 UNK         0.1400 
     81 CB         -2.6467  -23.0252  -49.7105 C.3       14 UNK        -0.1800 
     82 C          -3.3988  -25.3778  -50.2606 C.2       14 UNK         0.5000 
     83 O          -4.1255  -25.0399  -51.1946 O.2       14 UNK        -0.5000 
     84 N          -3.6367  -26.4541  -49.4912 N.am      15 UNK        -0.5000 
     85 CA         -4.7418  -27.4150  -49.6064 C.3       15 UNK         0.1400 
     86 CB         -4.5684  -28.2686  -50.8795 C.3       15 UNK        -0.1800 
     87 C          -6.1410  -26.7643  -49.5186 C.2       15 UNK         0.5000 
     88 O          -7.0972  -27.2863  -50.0936 O.2       15 UNK        -0.5000 
     89 N          -6.2204  -25.6100  -48.8372 N.am      16 UNK        -0.5000 
     90 CA         -7.3594  -24.6893  -48.7486 C.3       16 UNK         0.1400 
     91 CB         -8.5501  -25.3517  -48.0263 C.3       16 UNK        -0.1800 
     92 C          -7.7715  -24.0437  -50.0945 C.2       16 UNK         0.5000 
     93 O          -8.8071  -23.3787  -50.1470 O.2       16 UNK        -0.5000 
     94 N          -6.9608  -24.2137  -51.1504 N.am      17 UNK        -0.5000 
     95 CA         -7.1841  -23.6357  -52.4780 C.3       17 UNK         0.1400 
     96 CB         -6.5511  -24.5516  -53.5373 C.3       17 UNK        -0.1800 
     97 C          -6.6181  -22.2091  -52.5959 C.2       17 UNK         0.5000 
     98 O          -7.0124  -21.4788  -53.5059 O.2       17 UNK        -0.5000 
     99 N          -5.7045  -21.8459  -51.6820 N.am      18 UNK        -0.5000 
    100 CA        -5.0214  -20.5582  -51.5108 C.3       18 UNK         0.1400 
    101 CB        -6.0255  -19.4131  -51.2685 C.3       18 UNK        -0.1800 
    102 C         -4.0329  -20.2188  -52.6415 C.2       18 UNK         0.5000 
    103 O         -2.8366  -20.0592  -52.3870 O.2       18 UNK        -0.5000 
    104 N         -4.5403  -20.1583  -53.8780 N.am      19 UNK        -0.5000 
    105 CA        -3.7910  -19.8671  -55.1022 C.3       19 UNK         0.1400 
    106 CB        -4.7764  -19.7481  -56.2736 C.3       19 UNK        -0.1800 
    107 C         -2.6991  -20.9060  -55.4184 C.2       19 UNK         0.5000 
    108 O         -1.7137  -20.5678  -56.0726 O.2       19 UNK        -0.5000 
    109 N         -2.8666  -22.1345  -54.9096 N.am      20 UNK        -0.5000 
    110 CA        -1.8888  -23.2196  -54.9890 C.3       20 UNK         0.1400 
    111 CB        -2.5233  -24.5010  -54.4289 C.3       20 UNK        -0.1800 
    112 C         -0.5637  -22.9135  -54.2609 C.2       20 UNK         0.5000 
    113 O          0.4679  -23.4623  -54.6502 O.2       20 UNK        -0.5000 
    114 N         -0.6094  -22.0487  -53.2367 N.am      21 UNK        -0.5000 
    115 CA         0.5671  -21.5821  -52.5061 C.3       21 UNK         0.1400 
    116 CB         0.2887  -21.6261  -50.9984 C.3       21 UNK        -0.1800 
    117 C          0.9801  -20.1694  -52.9488 C.2       21 UNK         0.5000 
    118 O          2.1724  -19.9358  -53.1514 O.2       21 UNK        -0.5000 
    119 N          0.0093  -19.2545  -53.0911 N.am      22 UNK        -0.5000 
    120 CA         0.2695  -17.8529  -53.4733 C.3       22 UNK         0.1400 
    121 C          0.6223  -17.6314  -54.9730 C.2       22 UNK         0.5000 
    122 N          0.3152  -18.5445  -55.8848 N.am      22 UNK        -0.7600 
    123 O          1.2019  -16.6051  -55.3175 O.2       22 UNK        -0.5000 
    124 C124       -0.8670  -16.8976  -53.0321 C.3       23 UNK        -0.0398 
    125 S125       -1.0250  -16.8140  -51.2175 S.3       23 UNK        -0.2404 
    126 C126       -2.8055  -16.5229  -51.0395 C.3       23 UNK        -0.0205 
    127 H127       -2.0035  -13.9711  -39.2193 H         1 UNK         0.0600 
    128 H128       -3.3304  -14.5416  -40.2356 H         1 UNK         0.0600 
    129 H129       -3.5174  -13.0626  -39.2889 H         1 UNK         0.0600 
    130 H130       -2.9810  -14.1290  -42.4044 H         1 UNK         0.3000 
    131 H131       -2.1176  -11.5233  -43.3378 H         1 UNK         0.0600 
    132 H132       -2.6560  -12.3535  -45.5693 H         1 UNK         0.0800 
    133 H133       -3.9674  -12.6479  -44.4655 H         1 UNK         0.0800 
    134 H134       -4.0656  -13.7446  -47.0676 H         1 UNK         0.0800 
    135 H135       -5.1618  -14.7039  -46.1013 H         1 UNK         0.0800 
    136 H136       -3.1914  -14.6591  -49.0703 H         1 UNK         0.1150 
    137 H137       -3.4072  -18.8558  -49.8336 H         1 UNK         0.1150 
    138 H138       -4.7255  -17.2883  -46.0604 H         1 UNK         0.1150 
    139 H139       -3.7650  -20.3616  -47.9279 H         1 UNK         0.0800 
    140 H140       -5.4548  -19.9123  -48.0130 H         1 UNK         0.0800 
    141 H141       -5.5208  -22.0746  -46.6210 H         1 UNK         0.0800 
    142 H142       -5.4985  -22.0886  -44.8758 H         1 UNK         0.0800 
    143 H143       -3.0197  -22.2579  -46.6529 H         1 UNK         0.0600 
    144 H144       -3.0702  -21.4771  -44.0343 H         1 UNK         0.3000 
    145 H145       -1.2816  -21.7538  -42.4738 H         1 UNK         0.0600 
    146 H146        1.1889  -21.9393  -42.2073 H         1 UNK         0.0600 
    147 H147        0.4778  -23.4985  -42.5979 H         1 UNK         0.0600 
    148 H148        1.3360  -22.5935  -43.8367 H         1 UNK         0.0600 
    149 H149        0.4607  -20.3656  -44.4287 H         1 UNK         0.3000 
    150 H150       -1.8380  -17.8492  -45.1375 H         1 UNK         0.0600 
    151 H151        0.5604  -17.3452  -43.2938 H         1 UNK         0.0600 
    152 H152       -1.0940  -16.8303  -42.9746 H         1 UNK         0.0600 
    153 H153       -0.2168  -16.1522  -44.3329 H         1 UNK         0.0600 
    154 H154        0.9736  -18.0118  -45.6234 H         1 UNK         0.3000 
    155 H155        1.0700  -20.5689  -47.9566 H         1 UNK         0.0600 
    156 H156        0.8224  -17.6564  -48.8606 H         1 UNK         0.0600 
    157 H157       -0.0192  -19.0327  -49.5403 H         1 UNK         0.0600 
    158 H158        1.7254  -18.9053  -49.7184 H         1 UNK         0.0600 
    159 H159        2.8569  -18.3845  -47.5183 H         1 UNK         0.3000 
    160 H160        4.2567  -19.4125  -44.4821 H         1 UNK         0.0600 
    161 H161        5.4838  -20.2204  -47.1735 H         1 UNK         0.0600 
    162 H162        5.2033  -21.3038  -45.8159 H         1 UNK         0.0600 
    163 H163        6.3611  -19.9932  -45.6594 H         1 UNK         0.0600 
    164 H164        5.3924  -17.8283  -46.5423 H         1 UNK         0.3000 
    165 H165        4.8245  -14.9960  -45.0916 H         1 UNK         0.0600 
    166 H166        5.9144  -14.5542  -47.2926 H         1 UNK         0.0600 
    167 H167        5.3374  -16.0967  -47.9079 H         1 UNK         0.0600 
    168 H168        6.4857  -16.0437  -46.5708 H         1 UNK         0.0600 
    169 H169        3.1400  -13.8498  -45.9649 H         1 UNK         0.3000 
    170 H170        1.2782  -13.9492  -48.8886 H         1 UNK         0.0600 
    171 H171       -0.1286  -15.6909  -47.8055 H         1 UNK         0.0600 
    172 H172        0.0325  -14.8808  -46.2537 H         1 UNK         0.0600 
    173 H173       -0.8311  -14.0999  -47.5744 H         1 UNK         0.0600 
    174 H174        0.8738  -12.5840  -46.3699 H         1 UNK         0.3000 
    175 H175        2.9105   -9.7670  -47.3216 H         1 UNK         0.0600 
    176 H176       -0.1075  -10.2251  -47.0390 H         1 UNK         0.0600 
    177 H177        0.7201   -8.6734  -46.9216 H         1 UNK         0.0600 
    178 H178        0.7008   -9.5447  -48.4475 H         1 UNK         0.0600 
    179 H179        1.3753  -11.0932  -45.1100 H         1 UNK         0.3000 
    180 H180        3.9860  -10.5005  -42.8330 H         1 UNK         0.0600 
    181 H181        1.2838   -9.0490  -42.7871 H         1 UNK         0.0600 
    182 H182        2.8574   -8.2767  -42.6318 H         1 UNK         0.0600 
    183 H183        2.3035   -9.3848  -41.3870 H         1 UNK         0.0600 
    184 H184        1.3355  -11.4947  -42.4606 H         1 UNK         0.3000 
    185 H185        1.6478  -14.6276  -43.9629 H         1 UNK         0.0600 
    186 H186        1.9508  -14.1907  -40.9433 H         1 UNK         0.0600 
    187 H187        1.3374  -15.6535  -41.7120 H         1 UNK         0.0600 
    188 H188        3.0081  -15.1746  -41.9507 H         1 UNK         0.0600 
    189 H189       -0.2943  -13.9024  -42.1307 H         1 UNK         0.3000 
    190 H190       -3.1034  -24.5083  -44.1118 H         1 UNK         0.3000 
    191 H191       -4.3362  -26.7416  -45.4321 H         1 UNK         0.0600 
    192 H192       -3.0425  -28.0659  -43.7504 H         1 UNK         0.0600 
    193 H193       -3.8813  -26.7223  -42.9913 H         1 UNK         0.0600 
    194 H194       -2.1449  -26.6249  -43.2873 H         1 UNK         0.0600 
    195 H195       -1.0915  -25.2493  -45.6171 H         1 UNK         0.3000 
    196 H196        0.1000  -27.3593  -47.2280 H         1 UNK         0.0600 
    197 H197        0.9934  -24.4640  -46.7522 H         1 UNK         0.0600 
    198 H198        1.4519  -25.8428  -45.7534 H         1 UNK         0.0600 
    199 H199        1.9686  -25.7588  -47.4309 H         1 UNK         0.0600 
    200 H200       -1.9073  -24.5782  -47.8064 H         1 UNK         0.3000 
    201 H201       -1.4878  -24.5249  -50.7280 H         1 UNK         0.0600 
    202 H202       -3.5496  -22.9491  -49.1046 H         1 UNK         0.0600 
    203 H203       -2.8609  -22.5694  -50.6771 H         1 UNK         0.0600 
    204 H204       -1.8786  -22.4206  -49.2286 H         1 UNK         0.0600 
    205 H205       -3.0056  -26.6263  -48.7202 H         1 UNK         0.3000 
    206 H206       -4.6617  -28.0794  -48.7450 H         1 UNK         0.0600 
    207 H207       -3.5782  -28.7224  -50.9173 H         1 UNK         0.0600 
    208 H208       -5.2963  -29.0801  -50.9116 H         1 UNK         0.0600 
    209 H209       -4.6999  -27.6745  -51.7847 H         1 UNK         0.0600 
    210 H210       -5.3792  -25.2854  -48.3660 H         1 UNK         0.3000 
    211 H211       -7.0173  -23.8652  -48.1210 H         1 UNK         0.0600 
    212 H212       -9.3314  -24.6226  -47.8093 H         1 UNK         0.0600 
    213 H213       -8.2416  -25.7860  -47.0753 H         1 UNK         0.0600 
    214 H214       -9.0016  -26.1418  -48.6265 H         1 UNK         0.0600 
    215 H215       -6.1081  -24.7532  -51.0378 H         1 UNK         0.3000 
    216 H216       -8.2571  -23.5843  -52.6743 H         1 UNK         0.0600 
    217 H217       -5.4688  -24.6123  -53.4260 H         1 UNK         0.0600 
    218 H218       -6.7558  -24.1844  -54.5437 H         1 UNK         0.0600 
    219 H219       -6.9509  -25.5637  -53.4726 H         1 UNK         0.0600 
    220 H220       -5.4403  -22.5611  -51.0201 H         1 UNK         0.3000 
    221 H221       -4.4294  -20.6701  -50.6030 H         1 UNK         0.0600 
    222 H222       -6.6237  -19.5994  -50.3766 H         1 UNK         0.0600 
    223 H223       -6.7104  -19.2776  -52.1053 H         1 UNK         0.0600 
    224 H224       -5.5148  -18.4616  -51.1239 H         1 UNK         0.0600 
    225 H225       -5.5274  -20.3784  -53.9832 H         1 UNK         0.3000 
    226 H226       -3.2951  -18.9036  -54.9683 H         1 UNK         0.0600 
    227 H227       -5.3251  -20.6773  -56.4324 H         1 UNK         0.0600 
    228 H228       -5.5035  -18.9551  -56.0977 H         1 UNK         0.0600 
    229 H229       -4.2550  -19.5100  -57.2018 H         1 UNK         0.0600 
    230 H230       -3.7098  -22.3204  -54.3882 H         1 UNK         0.3000 
    231 H231       -1.6552  -23.3830  -56.0431 H         1 UNK         0.0600 
    232 H232       -2.7994  -24.3830  -53.3814 H         1 UNK         0.0600 
    233 H233       -1.8315  -25.3419  -54.4928 H         1 UNK         0.0600 
    234 H234       -3.4195  -24.7759  -54.9853 H         1 UNK         0.0600 
    235 H235       -1.4911  -21.6092  -53.0037 H         1 UNK         0.3000 
    236 H236        1.4167  -22.2420  -52.6938 H         1 UNK         0.0600 
    237 H237        0.1085  -22.6477  -50.6664 H         1 UNK         0.0600 
    238 H238        1.1452  -21.2562  -50.4349 H         1 UNK         0.0600 
    239 H239       -0.5776  -21.0207  -50.7303 H         1 UNK         0.0600 
    240 H240       -0.9506  -19.4962  -52.8712 H         1 UNK         0.3000 
    241 H241        1.1624  -17.5380  -52.9286 H         1 UNK         0.0600 
    242 H242        0.5660  -18.3749  -56.8455 H         1 UNK         0.3800 
    243 H243       -0.2298  -19.3700  -55.6601 H         1 UNK         0.3800 
    244 H244       -1.8116  -17.2128  -53.4778 H         1 UNK         0.0800 
    245 H245       -0.6837  -15.8811  -53.3854 H         1 UNK         0.0800 
    246 H246       -3.3542  -17.1982  -51.6973 H         1 UNK         0.0800 
    247 H247       -3.0404  -15.5104  -51.3711 H         1 UNK         0.0800 
@<TRIPOS>BOND
     1    1    2 1    
     2    1  127 1    
     3    1  128 1    
     4    1  129 1    
     5    2    3 2    
     6    2    4 am   BACKBONE|DICT|INTERRES
     7    4    5 1    
     8    4  130 1    
     9    5    6 1    
    10    5   65 1    
    11    5  131 1    
    12    6    7 1    
    13    6  132 1    
    14    6  133 1    
    15    7    8 1    
    16    8    9 1    
    17    8  134 1    
    18    8  135 1    
    19    9   10 ar   
    20    9   14 ar   
    21   10   11 ar   
    22   10  136 1    
    23   11   12 ar   
    24   11  126 1    
    25   12   13 ar   
    26   12  137 1    
    27   13   14 ar   
    28   13   15 1    
    29   14  138 1    
    30   15   16 1    
    31   15  139 1    
    32   15  140 1    
    33   16   17 1    
    34   17   18 1    
    35   17  141 1    
    36   17  142 1    
    37   18   19 1    
    38   18   67 1    
    39   18  143 1    
    40   19   20 am   BACKBONE|DICT|INTERRES
    41   19  144 1    
    42   20   21 2    
    43   20   22 1    
    44   22   23 1    
    45   22   24 1    
    46   22  145 1    
    47   23  146 1    
    48   23  147 1    
    49   23  148 1    
    50   24   25 am   BACKBONE|DICT|INTERRES
    51   24  149 1    
    52   25   26 2    
    53   25   27 1    
    54   27   28 1    
    55   27   29 1    
    56   27  150 1    
    57   28  151 1    
    58   28  152 1    
    59   28  153 1    
    60   29   30 am   BACKBONE|DICT|INTERRES
    61   29  154 1    
    62   30   31 2    
    63   30   32 1    
    64   32   33 1    
    65   32   34 1    
    66   32  155 1    
    67   33  156 1    
    68   33  157 1    
    69   33  158 1    
    70   34   35 am   BACKBONE|DICT|INTERRES
    71   34  159 1    
    72   35   36 2    
    73   35   37 1    
    74   37   38 1    
    75   37   39 1    
    76   37  160 1    
    77   38  161 1    
    78   38  162 1    
    79   38  163 1    
    80   39   40 am   BACKBONE|DICT|INTERRES
    81   39  164 1    
    82   40   41 2    
    83   40   42 1    
    84   42   43 1    
    85   42   44 1    
    86   42  165 1    
    87   43  166 1    
    88   43  167 1    
    89   43  168 1    
    90   44   45 am   BACKBONE|DICT|INTERRES
    91   44  169 1    
    92   45   46 2    
    93   45   47 1    
    94   47   48 1    
    95   47   49 1    
    96   47  170 1    
    97   48  171 1    
    98   48  172 1    
    99   48  173 1    
   100   49   50 am   BACKBONE|DICT|INTERRES
   101   49  174 1    
   102   50   51 2    
   103   50   52 1    
   104   52   53 1    
   105   52   54 1    
   106   52  175 1    
   107   53  176 1    
   108   53  177 1    
   109   53  178 1    
   110   54   55 am   BACKBONE|DICT|INTERRES
   111   54  179 1    
   112   55   56 2    
   113   55   57 1    
   114   57   58 1    
   115   57   59 1    
   116   57  180 1    
   117   58  181 1    
   118   58  182 1    
   119   58  183 1    
   120   59   60 am   BACKBONE|DICT|INTERRES
   121   59  184 1    
   122   60   61 2    
   123   60   62 1    
   124   62   63 1    
   125   62   64 1    
   126   62  185 1    
   127   63  186 1    
   128   63  187 1    
   129   63  188 1    
   130   64   65 am   BACKBONE|DICT|INTERRES
   131   64  189 1    
   132   65   66 2    
   133   67   68 2    
   134   67   69 am   BACKBONE|DICT|INTERRES
   135   69   70 1    
   136   69  190 1    
   137   70   71 1    
   138   70   72 1    
   139   70  191 1    
   140   71  192 1    
   141   71  193 1    
   142   71  194 1    
   143   72   73 2    
   144   72   74 am   BACKBONE|DICT|INTERRES
   145   74   75 1    
   146   74  195 1    
   147   75   76 1    
   148   75   77 1    
   149   75  196 1    
   150   76  197 1    
   151   76  198 1    
   152   76  199 1    
   153   77   78 2    
   154   77   79 am   BACKBONE|DICT|INTERRES
   155   79   80 1    
   156   79  200 1    
   157   80   81 1    
   158   80   82 1    
   159   80  201 1    
   160   81  202 1    
   161   81  203 1    
   162   81  204 1    
   163   82   83 2    
   164   82   84 am   BACKBONE|DICT|INTERRES
   165   84   85 1    
   166   84  205 1    
   167   85   86 1    
   168   85   87 1    
   169   85  206 1    
   170   86  207 1    
   171   86  208 1    
   172   86  209 1    
   173   87   88 2    
   174   87   89 am   BACKBONE|DICT|INTERRES
   175   89   90 1    
   176   89  210 1    
   177   90   91 1    
   178   90   92 1    
   179   90  211 1    
   180   91  212 1    
   181   91  213 1    
   182   91  214 1    
   183   92   93 2    
   184   92   94 am   BACKBONE|DICT|INTERRES
   185   94   95 1    
   186   94  215 1    
   187   95   96 1    
   188   95   97 1    
   189   95  216 1    
   190   96  217 1    
   191   96  218 1    
   192   96  219 1    
   193   97   98 2    
   194   97   99 am   BACKBONE|DICT|INTERRES
   195   99  100 1    
   196   99  220 1    
   197  100  101 1    
   198  100  102 1    
   199  100  221 1    
   200  101  222 1    
   201  101  223 1    
   202  101  224 1    
   203  102  103 2    
   204  102  104 am   BACKBONE|DICT|INTERRES
   205  104  105 1    
   206  104  225 1    
   207  105  106 1    
   208  105  107 1    
   209  105  226 1    
   210  106  227 1    
   211  106  228 1    
   212  106  229 1    
   213  107  108 2    
   214  107  109 am   BACKBONE|DICT|INTERRES
   215  109  110 1    
   216  109  230 1    
   217  110  111 1    
   218  110  112 1    
   219  110  231 1    
   220  111  232 1    
   221  111  233 1    
   222  111  234 1    
   223  112  113 2    
   224  112  114 am   BACKBONE|DICT|INTERRES
   225  114  115 1    
   226  114  235 1    
   227  115  116 1    
   228  115  117 1    
   229  115  236 1    
   230  116  237 1    
   231  116  238 1    
   232  116  239 1    
   233  117  118 2    
   234  117  119 am   BACKBONE|DICT|INTERRES
   235  119  120 1    
   236  119  240 1    
   237  120  121 1    
   238  120  124 1    
   239  120  241 1    
   240  121  122 am   BACKBONE|DICT|INTERRES
   241  121  123 2    
   242  122  242 1    
   243  122  243 1    
   244  124  125 1    
   245  124  244 1    
   246  124  245 1    
   247  125  126 1    
   248  126  246 1    
   249  126  247 1    
@<TRIPOS>SUBSTRUCTURE
     1 UNK         1 GROUP             0       ****    0 ROOT    
