@<TRIPOS>MOLECULE
3R540
247   249    1
SMALL
USER_CHARGES


@<TRIPOS>ATOM
      1 CA         -3.3353  -14.2789  -43.2289 C.3       0 UNK        -0.1800 
      2 C          -3.0467  -14.0511  -44.7066 C.2       0 UNK         0.5000 
      3 O          -3.9428  -13.6423  -45.4445 O.2       0 UNK        -0.5000 
      4 N          -1.8099  -14.3103  -45.1426 N.am      1 UNK        -0.5000 
      5 CA         -1.3535  -14.1286  -46.5180 C.3       1 UNK         0.1400 
      6 C6         -1.7685  -15.2971  -47.4562 C.3       23 UNK        -0.0398 
      7 S7         -2.3176  -14.7035  -49.0882 S.3       23 UNK        -0.2404 
      8 C8         -0.7874  -14.7977  -50.0732 C.3       23 UNK        -0.0205 
      9 C9         -0.4515  -16.2059  -50.5483 C.ar      23 UNK        -0.0193 
     10 C10        -1.3603  -16.9214  -51.3341 C.ar      23 UNK        -0.1150 
     11 C11        -1.0208  -18.1720  -51.8579 C.ar      23 UNK        -0.0193 
     12 C12         0.2438  -18.7048  -51.5927 C.ar      23 UNK        -0.1150 
     13 C13         1.1625  -18.0072  -50.7995 C.ar      23 UNK        -0.0193 
     14 C14         0.8024  -16.7615  -50.2737 C.ar      23 UNK        -0.1150 
     15 C15         2.5738  -18.5444  -50.5763 C.3       23 UNK        -0.0205 
     16 S16         2.6408  -20.3242  -50.1854 S.3       23 UNK        -0.2404 
     17 C17         2.1603  -20.3215  -48.4287 C.3       23 UNK        -0.0398 
     18 CA          2.1618  -21.7461  -47.8106 C.3       11 UNK         0.1400 
     19 N           2.5160  -21.6997  -46.3871 N.am      11 UNK        -0.5000 
     20 C           3.1204  -22.6895  -45.7172 C.2       10 UNK         0.5000 
     21 O           3.4669  -23.7522  -46.2337 O.2       10 UNK        -0.5000 
     22 CA          3.3647  -22.4631  -44.2139 C.3       10 UNK         0.1400 
     23 CB          4.6183  -21.6036  -43.9956 C.3       10 UNK        -0.1800 
     24 N           2.2259  -21.8609  -43.5142 N.am      10 UNK        -0.5000 
     25 C           1.0393  -22.4622  -43.3384 C.2       9 UNK         0.5000 
     26 O           0.7511  -23.5598  -43.8150 O.2       9 UNK        -0.5000 
     27 CA         -0.0091  -21.7064  -42.5039 C.3       9 UNK         0.1400 
     28 CB          0.3316  -21.7628  -41.0070 C.3       9 UNK        -0.1800 
     29 N          -0.1374  -20.3149  -42.9229 N.am      9 UNK        -0.5000 
     30 C          -0.7105  -19.9228  -44.0671 C.2       8 UNK         0.5000 
     31 O          -1.2717  -20.6867  -44.8518 O.2       8 UNK        -0.5000 
     32 CA         -0.6223  -18.4258  -44.4074 C.3       8 UNK         0.1400 
     33 CB         -1.7568  -17.6601  -43.7177 C.3       8 UNK        -0.1800 
     34 N           0.6769  -17.8406  -44.0676 N.am      8 UNK        -0.5000 
     35 C           1.8334  -18.2333  -44.6242 C.2       7 UNK         0.5000 
     36 O           1.9076  -19.0950  -45.4995 O.2       7 UNK        -0.5000 
     37 CA          3.1346  -17.6211  -44.0811 C.3       7 UNK         0.1400 
     38 CB          3.5401  -16.3762  -44.8720 C.3       7 UNK        -0.1800 
     39 N           3.0661  -17.3183  -42.6524 N.am      7 UNK        -0.5000 
     40 C           3.0260  -18.2662  -41.7055 C.2       6 UNK         0.5000 
     41 O           3.0821  -19.4740  -41.9424 O.2       6 UNK        -0.5000 
     42 CA          2.8222  -17.7840  -40.2608 C.3       6 UNK         0.1400 
     43 CB          4.0806  -17.0851  -39.7234 C.3       6 UNK        -0.1800 
     44 N           1.6720  -16.8886  -40.1422 N.am      6 UNK        -0.5000 
     45 C           0.4013  -17.2431  -40.3839 C.2       5 UNK         0.5000 
     46 O           0.0604  -18.3779  -40.7153 O.2       5 UNK        -0.5000 
     47 CA         -0.6711  -16.1462  -40.2505 C.3       5 UNK         0.1400 
     48 CB         -1.3277  -16.2032  -38.8636 C.3       5 UNK        -0.1800 
     49 N          -0.1533  -14.7974  -40.4795 N.am      5 UNK        -0.5000 
     50 C           0.2815  -14.3294  -41.6569 C.2       4 UNK         0.5000 
     51 O           0.2609  -14.9924  -42.6966 O.2       4 UNK        -0.5000 
     52 CA          0.7833  -12.8684  -41.6754 C.3       4 UNK         0.1400 
     53 CB          1.2094  -12.3420  -40.2859 C.3       4 UNK        -0.1800 
     54 N           1.8576  -12.6271  -42.6398 N.am      4 UNK        -0.5000 
     55 C           3.0460  -13.2387  -42.7237 C.2       3 UNK         0.5000 
     56 O           3.3779  -14.2078  -42.0351 O.2       3 UNK        -0.5000 
     57 CA          4.0203  -12.6434  -43.7654 C.3       3 UNK         0.1400 
     58 CB          5.4494  -13.1998  -43.6378 C.3       3 UNK        -0.1800 
     59 N           3.5439  -12.8332  -45.1381 N.am      3 UNK        -0.5000 
     60 C           2.5576  -12.1351  -45.7172 C.2       2 UNK         0.5000 
     61 O           1.9754  -11.2010  -45.1604 O.2       2 UNK        -0.5000 
     62 CA          2.1143  -12.5406  -47.1399 C.3       2 UNK         0.1400 
     63 CB          3.0031  -13.6105  -47.8156 C.3       2 UNK        -0.1800 
     64 N           0.7036  -12.9441  -47.1475 N.am      2 UNK        -0.5000 
     65 C           0.1690  -13.9639  -46.4605 C.2       1 UNK         0.5000 
     66 O           0.8215  -14.7679  -45.7965 O.2       1 UNK        -0.5000 
     67 C           0.8175  -22.4732  -48.0505 C.2       11 UNK         0.5000 
     68 O           0.4730  -22.7499  -49.1991 O.2       11 UNK        -0.5000 
     69 N           0.0708  -22.7428  -46.9675 N.am      12 UNK        -0.5000 
     70 CA         -1.2829  -23.3069  -46.9199 C.3       12 UNK         0.1400 
     71 CB         -1.3296  -24.7281  -47.5168 C.3       12 UNK        -0.1800 
     72 C          -2.3589  -22.3771  -47.5177 C.2       12 UNK         0.5000 
     73 O          -3.4813  -22.8195  -47.7652 O.2       12 UNK        -0.5000 
     74 N          -2.0305  -21.0889  -47.6908 N.am      13 UNK        -0.5000 
     75 CA         -2.9194  -20.0278  -48.1664 C.3       13 UNK         0.1400 
     76 CB         -2.1045  -18.7496  -48.3853 C.3       13 UNK        -0.1800 
     77 C          -4.1139  -19.7650  -47.2285 C.2       13 UNK         0.5000 
     78 O          -5.1470  -19.2842  -47.6925 O.2       13 UNK        -0.5000 
     79 N          -3.9905  -20.1621  -45.9525 N.am      14 UNK        -0.5000 
     80 CA         -5.0866  -20.2432  -44.9816 C.3       14 UNK         0.1400 
     81 CB         -4.5101  -20.6451  -43.6149 C.3       14 UNK        -0.1800 
     82 C          -6.2113  -21.2197  -45.3986 C.2       14 UNK         0.5000 
     83 O          -7.3552  -21.0360  -44.9823 O.2       14 UNK        -0.5000 
     84 N          -5.8731  -22.2134  -46.2319 N.am      15 UNK        -0.5000 
     85 CA         -6.7863  -23.1602  -46.8725 C.3       15 UNK         0.1400 
     86 CB         -6.3465  -24.5886  -46.5043 C.3       15 UNK        -0.1800 
     87 C          -6.8086  -22.9406  -48.4014 C.2       15 UNK         0.5000 
     88 O          -7.0468  -23.8862  -49.1556 O.2       15 UNK        -0.5000 
     89 N          -6.5148  -21.7045  -48.8393 N.am      16 UNK        -0.5000 
     90 CA         -6.4452  -21.2298  -50.2284 C.3       16 UNK         0.1400 
     91 CB         -7.8475  -21.2470  -50.8717 C.3       16 UNK        -0.1800 
     92 C          -5.3960  -21.9555  -51.0998 C.2       16 UNK         0.5000 
     93 O          -5.5047  -21.9218  -52.3247 O.2       16 UNK        -0.5000 
     94 N          -4.4167  -22.6111  -50.4557 N.am      17 UNK        -0.5000 
     95 CA         -3.3954  -23.4929  -51.0310 C.3       17 UNK         0.1400 
     96 CB         -2.4120  -22.6943  -51.9106 C.3       17 UNK        -0.1800 
     97 C          -3.9939  -24.7282  -51.7392 C.2       17 UNK         0.5000 
     98 O          -3.3808  -25.2605  -52.6650 O.2       17 UNK        -0.5000 
     99 N          -5.1961  -25.1461  -51.3074 N.am      18 UNK        -0.5000 
    100 CA        -6.0834  -26.1736  -51.8724 C.3       18 UNK         0.1400 
    101 CB        -5.4014  -27.5528  -51.9504 C.3       18 UNK        -0.1800 
    102 C         -6.7137  -25.7719  -53.2226 C.2       18 UNK         0.5000 
    103 O         -7.9098  -25.9899  -53.4200 O.2       18 UNK        -0.5000 
    104 N         -5.9208  -25.1616  -54.1056 N.am      19 UNK        -0.5000 
    105 CA        -6.3349  -24.4880  -55.3271 C.3       19 UNK         0.1400 
    106 CB        -6.1346  -25.4230  -56.5300 C.3       19 UNK        -0.1800 
    107 C         -5.4764  -23.2236  -55.4562 C.2       19 UNK         0.5000 
    108 O         -4.2960  -23.2527  -55.0969 O.2       19 UNK        -0.5000 
    109 N         -6.0666  -22.1419  -55.9784 N.am      20 UNK        -0.5000 
    110 CA        -5.4690  -20.8058  -56.0746 C.3       20 UNK         0.1400 
    111 CB        -6.5983  -19.7712  -56.2276 C.3       20 UNK        -0.1800 
    112 C         -4.3956  -20.6821  -57.1805 C.2       20 UNK         0.5000 
    113 O         -4.4552  -19.7739  -58.0123 O.2       20 UNK        -0.5000 
    114 N         -3.4071  -21.5846  -57.1551 N.am      21 UNK        -0.5000 
    115 CA        -2.2534  -21.6384  -58.0588 C.3       21 UNK         0.1400 
    116 CB        -1.4656  -22.9264  -57.7756 C.3       21 UNK        -0.1800 
    117 C         -1.3324  -20.4046  -57.9607 C.2       21 UNK         0.5000 
    118 O         -0.5973  -20.1158  -58.9057 O.2       21 UNK        -0.5000 
    119 N         -1.4131  -19.6894  -56.8326 N.am      22 UNK        -0.5000 
    120 CA        -0.8162  -18.3668  -56.6087 C.3       22 UNK         0.1400 
    121 C         -1.4522  -17.2080  -57.4378 C.2       22 UNK         0.5000 
    122 N         -2.6045  -17.3864  -58.0758 N.am      22 UNK        -0.7600 
    123 O         -0.8772  -16.1256  -57.5145 O.2       22 UNK        -0.5000 
    124 C124       -0.7635  -18.0278  -55.0963 C.3       23 UNK        -0.0398 
    125 S125       -2.3993  -18.0716  -54.2727 S.3       23 UNK        -0.2404 
    126 C126       -2.0137  -18.9416  -52.7192 C.3       23 UNK        -0.0205 
    127 H127       -2.4513  -14.6050  -42.6847 H         1 UNK         0.0600 
    128 H128       -4.1045  -15.0420  -43.1114 H         1 UNK         0.0600 
    129 H129       -3.6939  -13.3578  -42.7697 H         1 UNK         0.0600 
    130 H130       -1.0822  -14.6198  -44.5040 H         1 UNK         0.3000 
    131 H131       -1.7806  -13.1898  -46.8784 H         1 UNK         0.0600 
    132 H132       -0.9783  -16.0413  -47.5746 H         1 UNK         0.0800 
    133 H133       -2.6127  -15.8423  -47.0319 H         1 UNK         0.0800 
    134 H134       -0.9086  -14.1645  -50.9530 H         1 UNK         0.0800 
    135 H135        0.0396  -14.3688  -49.5072 H         1 UNK         0.0800 
    136 H136       -2.3280  -16.4943  -51.5574 H         1 UNK         0.1150 
    137 H137        0.5193  -19.6608  -52.0151 H         1 UNK         0.1150 
    138 H138        1.5163  -16.2037  -49.6837 H         1 UNK         0.1150 
    139 H139        3.1469  -18.3725  -51.4881 H         1 UNK         0.0800 
    140 H140        3.0820  -17.9880  -49.7872 H         1 UNK         0.0800 
    141 H141        1.1976  -19.8217  -48.3045 H         1 UNK         0.0800 
    142 H142        2.8896  -19.6926  -47.9161 H         1 UNK         0.0800 
    143 H143        2.9292  -22.3347  -48.3183 H         1 UNK         0.0600 
    144 H144        2.2824  -20.8356  -45.9002 H         1 UNK         0.3000 
    145 H145        3.5473  -23.4399  -43.7610 H         1 UNK         0.0600 
    146 H146        4.8401  -21.4898  -42.9343 H         1 UNK         0.0600 
    147 H147        5.4914  -22.0604  -44.4631 H         1 UNK         0.0600 
    148 H148        4.5014  -20.6083  -44.4229 H         1 UNK         0.0600 
    149 H149        2.3928  -20.9655  -43.0642 H         1 UNK         0.3000 
    150 H150       -0.9731  -22.1991  -42.6488 H         1 UNK         0.0600 
    151 H151        0.4276  -22.7943  -40.6660 H         1 UNK         0.0600 
    152 H152       -0.4499  -21.2930  -40.4095 H         1 UNK         0.0600 
    153 H153        1.2698  -21.2529  -40.7856 H         1 UNK         0.0600 
    154 H154        0.2406  -19.6117  -42.2959 H         1 UNK         0.3000 
    155 H155       -0.7423  -18.3150  -45.4839 H         1 UNK         0.0600 
    156 H156       -1.8360  -17.9146  -42.6613 H         1 UNK         0.0600 
    157 H157       -1.6073  -16.5877  -43.7919 H         1 UNK         0.0600 
    158 H158       -2.7164  -17.8894  -44.1819 H         1 UNK         0.0600 
    159 H159        0.6875  -17.0832  -43.3956 H         1 UNK         0.3000 
    160 H160        3.9200  -18.3635  -44.2309 H         1 UNK         0.0600 
    161 H161        2.9256  -15.5208  -44.6000 H         1 UNK         0.0600 
    162 H162        3.4343  -16.5376  -45.9455 H         1 UNK         0.0600 
    163 H163        4.5822  -16.1249  -44.6848 H         1 UNK         0.0600 
    164 H164        3.0026  -16.3416  -42.3865 H         1 UNK         0.3000 
    165 H165        2.6301  -18.6625  -39.6410 H         1 UNK         0.0600 
    166 H166        3.9656  -16.8220  -38.6719 H         1 UNK         0.0600 
    167 H167        4.9516  -17.7371  -39.8014 H         1 UNK         0.0600 
    168 H168        4.3044  -16.1709  -40.2744 H         1 UNK         0.0600 
    169 H169        1.8662  -15.9268  -39.9060 H         1 UNK         0.3000 
    170 H170       -1.4422  -16.3410  -40.9969 H         1 UNK         0.0600 
    171 H171       -0.6106  -15.9930  -38.0690 H         1 UNK         0.0600 
    172 H172       -2.1417  -15.4826  -38.7823 H         1 UNK         0.0600 
    173 H173       -1.7498  -17.1907  -38.6722 H         1 UNK         0.0600 
    174 H174       -0.1156  -14.1880  -39.6754 H         1 UNK         0.3000 
    175 H175       -0.0623  -12.2681  -42.0134 H         1 UNK         0.0600 
    176 H176        1.5859  -11.3212  -40.3546 H         1 UNK         0.0600 
    177 H177        1.9976  -12.9539  -39.8449 H         1 UNK         0.0600 
    178 H178        0.3710  -12.3185  -39.5888 H         1 UNK         0.0600 
    179 H179        1.6728  -11.9084  -43.3326 H         1 UNK         0.3000 
    180 H180        4.0798  -11.5709  -43.5675 H         1 UNK         0.0600 
    181 H181        5.4902  -14.2734  -43.8107 H         1 UNK         0.0600 
    182 H182        5.8478  -13.0173  -42.6390 H         1 UNK         0.0600 
    183 H183        6.1241  -12.7200  -44.3471 H         1 UNK         0.0600 
    184 H184        3.9370  -13.6122  -45.6447 H         1 UNK         0.3000 
    185 H185        2.1800  -11.6349  -47.7444 H         1 UNK         0.0600 
    186 H186        4.0403  -13.2787  -47.8763 H         1 UNK         0.0600 
    187 H187        2.9885  -14.5622  -47.2859 H         1 UNK         0.0600 
    188 H188        2.6698  -13.8007  -48.8359 H         1 UNK         0.0600 
    189 H189        0.0823  -12.3180  -47.6402 H         1 UNK         0.3000 
    190 H190        0.4538  -22.4880  -46.0670 H         1 UNK         0.3000 
    191 H191       -1.5276  -23.3922  -45.8602 H         1 UNK         0.0600 
    192 H192       -0.5829  -25.3724  -47.0527 H         1 UNK         0.0600 
    193 H193       -2.3033  -25.1906  -47.3506 H         1 UNK         0.0600 
    194 H194       -1.1502  -24.7277  -48.5917 H         1 UNK         0.0600 
    195 H195       -1.1100  -20.8064  -47.3904 H         1 UNK         0.3000 
    196 H196       -3.3195  -20.3410  -49.1320 H         1 UNK         0.0600 
    197 H197       -2.7134  -17.9755  -48.8537 H         1 UNK         0.0600 
    198 H198       -1.2507  -18.9321  -49.0368 H         1 UNK         0.0600 
    199 H199       -1.7287  -18.3475  -47.4482 H         1 UNK         0.0600 
    200 H200       -3.0906  -20.5223  -45.6489 H         1 UNK         0.3000 
    201 H201       -5.5297  -19.2494  -44.8921 H         1 UNK         0.0600 
    202 H202       -3.7937  -19.9082  -43.2534 H         1 UNK         0.0600 
    203 H203       -4.0024  -21.6095  -43.6613 H         1 UNK         0.0600 
    204 H204       -5.2978  -20.7233  -42.8644 H         1 UNK         0.0600 
    205 H205       -4.9098  -22.2821  -46.5454 H         1 UNK         0.3000 
    206 H206       -7.8070  -23.0117  -46.5153 H         1 UNK         0.0600 
    207 H207       -6.3228  -24.7261  -45.4232 H         1 UNK         0.0600 
    208 H208       -7.0356  -25.3307  -46.9091 H         1 UNK         0.0600 
    209 H209       -5.3523  -24.8142  -46.8925 H         1 UNK         0.0600 
    210 H210       -6.3012  -20.9977  -48.1450 H         1 UNK         0.3000 
    211 H211       -6.1202  -20.1899  -50.1764 H         1 UNK         0.0600 
    212 H212       -8.2092  -22.2642  -51.0253 H         1 UNK         0.0600 
    213 H213       -7.8404  -20.7533  -51.8442 H         1 UNK         0.0600 
    214 H214       -8.5731  -20.7225  -50.2501 H         1 UNK         0.0600 
    215 H215       -4.4104  -22.5840  -49.4404 H         1 UNK         0.3000 
    216 H216       -2.8264  -23.8885  -50.1901 H         1 UNK         0.0600 
    217 H217       -1.5813  -23.3204  -52.2373 H         1 UNK         0.0600 
    218 H218       -1.9847  -21.8582  -51.3566 H         1 UNK         0.0600 
    219 H219       -2.8945  -22.2991  -52.8048 H         1 UNK         0.0600 
    220 H220       -5.6216  -24.6119  -50.5567 H         1 UNK         0.3000 
    221 H221       -6.9061  -26.2600  -51.1606 H         1 UNK         0.0600 
    222 H222       -4.5997  -27.5744  -52.6886 H         1 UNK         0.0600 
    223 H223       -4.9805  -27.8401  -50.9869 H         1 UNK         0.0600 
    224 H224       -6.1205  -28.3221  -52.2341 H         1 UNK         0.0600 
    225 H225       -4.9499  -25.0006  -53.8468 H         1 UNK         0.3000 
    226 H226       -7.3852  -24.1973  -55.2567 H         1 UNK         0.0600 
    227 H227       -6.7367  -26.3263  -56.4306 H         1 UNK         0.0600 
    228 H228       -6.4307  -24.9335  -57.4585 H         1 UNK         0.0600 
    229 H229       -5.0917  -25.7253  -56.6342 H         1 UNK         0.0600 
    230 H230       -7.0235  -22.2172  -56.2915 H         1 UNK         0.3000 
    231 H231       -4.9641  -20.5954  -55.1288 H         1 UNK         0.0600 
    232 H232       -7.1543  -19.9163  -57.1546 H         1 UNK         0.0600 
    233 H233       -6.2010  -18.7552  -56.2364 H         1 UNK         0.0600 
    234 H234       -7.3034  -19.8321  -55.3984 H         1 UNK         0.0600 
    235 H235       -3.4552  -22.2952  -56.4277 H         1 UNK         0.3000 
    236 H236       -2.6326  -21.6823  -59.0816 H         1 UNK         0.0600 
    237 H237       -0.6118  -23.0198  -58.4479 H         1 UNK         0.0600 
    238 H238       -1.0846  -22.9467  -56.7537 H         1 UNK         0.0600 
    239 H239       -2.0892  -23.8093  -57.9181 H         1 UNK         0.0600 
    240 H240       -2.0492  -20.0054  -56.1161 H         1 UNK         0.3000 
    241 H241        0.2177  -18.4295  -56.9534 H         1 UNK         0.0600 
    242 H242       -3.1101  -18.2639  -58.0219 H         1 UNK         0.3800 
    243 H243       -2.9927  -16.6255  -58.6100 H         1 UNK         0.3800 
    244 H244       -0.0978  -18.7364  -54.6023 H         1 UNK         0.0800 
    245 H245       -0.3160  -17.0462  -54.9308 H         1 UNK         0.0800 
    246 H246       -2.9358  -19.0884  -52.1549 H         1 UNK         0.0800 
    247 H247       -1.6366  -19.9376  -52.9549 H         1 UNK         0.0800 
@<TRIPOS>BOND
     1    1    2 1    
     2    1  127 1    
     3    1  128 1    
     4    1  129 1    
     5    2    3 2    
     6    2    4 am   BACKBONE|DICT|INTERRES
     7    4    5 1    
     8    4  130 1    
     9    5    6 1    
    10    5   65 1    
    11    5  131 1    
    12    6    7 1    
    13    6  132 1    
    14    6  133 1    
    15    7    8 1    
    16    8    9 1    
    17    8  134 1    
    18    8  135 1    
    19    9   10 ar   
    20    9   14 ar   
    21   10   11 ar   
    22   10  136 1    
    23   11   12 ar   
    24   11  126 1    
    25   12   13 ar   
    26   12  137 1    
    27   13   14 ar   
    28   13   15 1    
    29   14  138 1    
    30   15   16 1    
    31   15  139 1    
    32   15  140 1    
    33   16   17 1    
    34   17   18 1    
    35   17  141 1    
    36   17  142 1    
    37   18   19 1    
    38   18   67 1    
    39   18  143 1    
    40   19   20 am   BACKBONE|DICT|INTERRES
    41   19  144 1    
    42   20   21 2    
    43   20   22 1    
    44   22   23 1    
    45   22   24 1    
    46   22  145 1    
    47   23  146 1    
    48   23  147 1    
    49   23  148 1    
    50   24   25 am   BACKBONE|DICT|INTERRES
    51   24  149 1    
    52   25   26 2    
    53   25   27 1    
    54   27   28 1    
    55   27   29 1    
    56   27  150 1    
    57   28  151 1    
    58   28  152 1    
    59   28  153 1    
    60   29   30 am   BACKBONE|DICT|INTERRES
    61   29  154 1    
    62   30   31 2    
    63   30   32 1    
    64   32   33 1    
    65   32   34 1    
    66   32  155 1    
    67   33  156 1    
    68   33  157 1    
    69   33  158 1    
    70   34   35 am   BACKBONE|DICT|INTERRES
    71   34  159 1    
    72   35   36 2    
    73   35   37 1    
    74   37   38 1    
    75   37   39 1    
    76   37  160 1    
    77   38  161 1    
    78   38  162 1    
    79   38  163 1    
    80   39   40 am   BACKBONE|DICT|INTERRES
    81   39  164 1    
    82   40   41 2    
    83   40   42 1    
    84   42   43 1    
    85   42   44 1    
    86   42  165 1    
    87   43  166 1    
    88   43  167 1    
    89   43  168 1    
    90   44   45 am   BACKBONE|DICT|INTERRES
    91   44  169 1    
    92   45   46 2    
    93   45   47 1    
    94   47   48 1    
    95   47   49 1    
    96   47  170 1    
    97   48  171 1    
    98   48  172 1    
    99   48  173 1    
   100   49   50 am   BACKBONE|DICT|INTERRES
   101   49  174 1    
   102   50   51 2    
   103   50   52 1    
   104   52   53 1    
   105   52   54 1    
   106   52  175 1    
   107   53  176 1    
   108   53  177 1    
   109   53  178 1    
   110   54   55 am   BACKBONE|DICT|INTERRES
   111   54  179 1    
   112   55   56 2    
   113   55   57 1    
   114   57   58 1    
   115   57   59 1    
   116   57  180 1    
   117   58  181 1    
   118   58  182 1    
   119   58  183 1    
   120   59   60 am   BACKBONE|DICT|INTERRES
   121   59  184 1    
   122   60   61 2    
   123   60   62 1    
   124   62   63 1    
   125   62   64 1    
   126   62  185 1    
   127   63  186 1    
   128   63  187 1    
   129   63  188 1    
   130   64   65 am   BACKBONE|DICT|INTERRES
   131   64  189 1    
   132   65   66 2    
   133   67   68 2    
   134   67   69 am   BACKBONE|DICT|INTERRES
   135   69   70 1    
   136   69  190 1    
   137   70   71 1    
   138   70   72 1    
   139   70  191 1    
   140   71  192 1    
   141   71  193 1    
   142   71  194 1    
   143   72   73 2    
   144   72   74 am   BACKBONE|DICT|INTERRES
   145   74   75 1    
   146   74  195 1    
   147   75   76 1    
   148   75   77 1    
   149   75  196 1    
   150   76  197 1    
   151   76  198 1    
   152   76  199 1    
   153   77   78 2    
   154   77   79 am   BACKBONE|DICT|INTERRES
   155   79   80 1    
   156   79  200 1    
   157   80   81 1    
   158   80   82 1    
   159   80  201 1    
   160   81  202 1    
   161   81  203 1    
   162   81  204 1    
   163   82   83 2    
   164   82   84 am   BACKBONE|DICT|INTERRES
   165   84   85 1    
   166   84  205 1    
   167   85   86 1    
   168   85   87 1    
   169   85  206 1    
   170   86  207 1    
   171   86  208 1    
   172   86  209 1    
   173   87   88 2    
   174   87   89 am   BACKBONE|DICT|INTERRES
   175   89   90 1    
   176   89  210 1    
   177   90   91 1    
   178   90   92 1    
   179   90  211 1    
   180   91  212 1    
   181   91  213 1    
   182   91  214 1    
   183   92   93 2    
   184   92   94 am   BACKBONE|DICT|INTERRES
   185   94   95 1    
   186   94  215 1    
   187   95   96 1    
   188   95   97 1    
   189   95  216 1    
   190   96  217 1    
   191   96  218 1    
   192   96  219 1    
   193   97   98 2    
   194   97   99 am   BACKBONE|DICT|INTERRES
   195   99  100 1    
   196   99  220 1    
   197  100  101 1    
   198  100  102 1    
   199  100  221 1    
   200  101  222 1    
   201  101  223 1    
   202  101  224 1    
   203  102  103 2    
   204  102  104 am   BACKBONE|DICT|INTERRES
   205  104  105 1    
   206  104  225 1    
   207  105  106 1    
   208  105  107 1    
   209  105  226 1    
   210  106  227 1    
   211  106  228 1    
   212  106  229 1    
   213  107  108 2    
   214  107  109 am   BACKBONE|DICT|INTERRES
   215  109  110 1    
   216  109  230 1    
   217  110  111 1    
   218  110  112 1    
   219  110  231 1    
   220  111  232 1    
   221  111  233 1    
   222  111  234 1    
   223  112  113 2    
   224  112  114 am   BACKBONE|DICT|INTERRES
   225  114  115 1    
   226  114  235 1    
   227  115  116 1    
   228  115  117 1    
   229  115  236 1    
   230  116  237 1    
   231  116  238 1    
   232  116  239 1    
   233  117  118 2    
   234  117  119 am   BACKBONE|DICT|INTERRES
   235  119  120 1    
   236  119  240 1    
   237  120  121 1    
   238  120  124 1    
   239  120  241 1    
   240  121  122 am   BACKBONE|DICT|INTERRES
   241  121  123 2    
   242  122  242 1    
   243  122  243 1    
   244  124  125 1    
   245  124  244 1    
   246  124  245 1    
   247  125  126 1    
   248  126  246 1    
   249  126  247 1    
@<TRIPOS>SUBSTRUCTURE
     1 UNK         1 GROUP             0       ****    0 ROOT    
