@<TRIPOS>MOLECULE
3R540
247   249    1
SMALL
USER_CHARGES


@<TRIPOS>ATOM
      1 CA          6.9200  -13.5733  -49.2367 C.3       0 UNK        -0.1800 
      2 C           5.6919  -13.6201  -48.3391 C.2       0 UNK         0.5000 
      3 O           5.6511  -14.4114  -47.3972 O.2       0 UNK        -0.5000 
      4 N           4.6923  -12.7778  -48.6261 N.am      1 UNK        -0.5000 
      5 CA          3.4409  -12.6516  -47.8734 C.3       1 UNK         0.1400 
      6 C6          2.3056  -12.0435  -48.7376 C.3       23 UNK        -0.0398 
      7 S7          1.8698  -13.1060  -50.1563 S.3       23 UNK        -0.2404 
      8 C8          0.4637  -14.0170  -49.4525 C.3       23 UNK        -0.0205 
      9 C9          0.0496  -15.1841  -50.3329 C.ar      23 UNK        -0.0193 
     10 C10        -0.9999  -15.0458  -51.2480 C.ar      23 UNK        -0.1150 
     11 C11        -1.3844  -16.1241  -52.0513 C.ar      23 UNK        -0.0193 
     12 C12        -0.6961  -17.3353  -51.9464 C.ar      23 UNK        -0.1150 
     13 C13         0.3317  -17.4962  -51.0142 C.ar      23 UNK        -0.0193 
     14 C14         0.7042  -16.4143  -50.2121 C.ar      23 UNK        -0.1150 
     15 C15         1.0322  -18.8403  -50.8830 C.3       23 UNK        -0.0205 
     16 S16        -0.1399  -20.1798  -50.4945 S.3       23 UNK        -0.2404 
     17 C17        -0.4699  -19.9292  -48.7180 C.3       23 UNK        -0.0398 
     18 CA         -0.0914  -21.1866  -47.8954 C.3       11 UNK         0.1400 
     19 N           0.2578  -20.8550  -46.5124 N.am      11 UNK        -0.5000 
     20 C           1.1139  -21.5640  -45.7633 C.2       10 UNK         0.5000 
     21 O           1.7602  -22.5230  -46.1849 O.2       10 UNK        -0.5000 
     22 CA          1.2841  -21.1343  -44.2943 C.3       10 UNK         0.1400 
     23 CB          2.5115  -20.2241  -44.1442 C.3       10 UNK        -0.1800 
     24 N           0.1028  -20.4613  -43.7490 N.am      10 UNK        -0.5000 
     25 C          -1.0477  -21.0851  -43.4586 C.2       9 UNK         0.5000 
     26 O          -1.2331  -22.2935  -43.6106 O.2       9 UNK        -0.5000 
     27 CA         -2.2011  -20.1987  -42.9578 C.3       9 UNK         0.1400 
     28 CB         -2.0553  -19.9228  -41.4538 C.3       9 UNK        -0.1800 
     29 N          -2.3032  -18.9236  -43.6674 N.am      9 UNK        -0.5000 
     30 C          -2.5081  -18.7651  -44.9807 C.2       8 UNK         0.5000 
     31 O          -2.5797  -19.7078  -45.7672 O.2       8 UNK        -0.5000 
     32 CA         -2.5894  -17.3305  -45.5357 C.3       8 UNK         0.1400 
     33 CB         -3.9029  -17.0845  -46.3012 C.3       8 UNK        -0.1800 
     34 N          -2.3333  -16.2729  -44.5507 N.am      8 UNK        -0.5000 
     35 C          -3.0870  -15.8664  -43.5173 C.2       7 UNK         0.5000 
     36 O          -4.1767  -16.3595  -43.2282 O.2       7 UNK        -0.5000 
     37 CA         -2.5091  -14.7444  -42.6250 C.3       7 UNK         0.1400 
     38 CB         -2.1624  -15.2982  -41.2338 C.3       7 UNK        -0.1800 
     39 N          -1.3099  -14.1154  -43.1836 N.am      7 UNK        -0.5000 
     40 C          -1.2910  -13.2807  -44.2317 C.2       6 UNK         0.5000 
     41 O          -2.3020  -12.8463  -44.7829 O.2       6 UNK        -0.5000 
     42 CA          0.0990  -12.9290  -44.7931 C.3       6 UNK         0.1400 
     43 CB          0.6813  -11.7105  -44.0621 C.3       6 UNK        -0.1800 
     44 N           1.0285  -14.0651  -44.7197 N.am      6 UNK        -0.5000 
     45 C           0.8961  -15.1865  -45.4457 C.2       5 UNK         0.5000 
     46 O           0.0180  -15.3416  -46.2897 O.2       5 UNK        -0.5000 
     47 CA          1.8427  -16.3581  -45.1421 C.3       5 UNK         0.1400 
     48 CB          3.1223  -16.2739  -45.9835 C.3       5 UNK        -0.1800 
     49 N           2.1719  -16.4290  -43.7187 N.am      5 UNK        -0.5000 
     50 C           1.3667  -16.9911  -42.8049 C.2       4 UNK         0.5000 
     51 O           0.3320  -17.5911  -43.0966 O.2       4 UNK        -0.5000 
     52 CA          1.7572  -16.8647  -41.3195 C.3       4 UNK         0.1400 
     53 CB          2.4263  -18.1551  -40.8265 C.3       4 UNK        -0.1800 
     54 N           2.6295  -15.7272  -41.0239 N.am      4 UNK        -0.5000 
     55 C           2.2890  -14.4394  -41.1640 C.2       3 UNK         0.5000 
     56 O           1.1856  -14.0745  -41.5732 O.2       3 UNK        -0.5000 
     57 CA          3.3644  -13.3783  -40.8377 C.3       3 UNK         0.1400 
     58 CB          4.6383  -13.9567  -40.1811 C.3       3 UNK        -0.1800 
     59 N           3.7336  -12.5720  -42.0085 N.am      3 UNK        -0.5000 
     60 C           4.1345  -13.0267  -43.2037 C.2       2 UNK         0.5000 
     61 O           4.1989  -14.2229  -43.4995 O.2       2 UNK        -0.5000 
     62 CA          4.5333  -11.9678  -44.2415 C.3       2 UNK         0.1400 
     63 CB          6.0248  -11.6205  -44.1174 C.3       2 UNK        -0.1800 
     64 N           4.2767  -12.4962  -45.5774 N.am      2 UNK        -0.5000 
     65 C           3.6794  -11.8444  -46.5794 C.2       1 UNK         0.5000 
     66 O           3.3406  -10.6613  -46.5184 O.2       1 UNK        -0.5000 
     67 C          -1.1940  -22.2669  -47.9337 C.2       11 UNK         0.5000 
     68 O          -1.1571  -23.1494  -48.7907 O.2       11 UNK        -0.5000 
     69 N          -2.1470  -22.1965  -46.9923 N.am      12 UNK        -0.5000 
     70 CA         -3.1991  -23.1876  -46.7888 C.3       12 UNK         0.1400 
     71 CB         -4.2012  -22.6847  -45.7370 C.3       12 UNK        -0.1800 
     72 C          -2.6129  -24.5555  -46.4084 C.2       12 UNK         0.5000 
     73 O          -2.7696  -25.5019  -47.1813 O.2       12 UNK        -0.5000 
     74 N          -1.9130  -24.6102  -45.2626 N.am      13 UNK        -0.5000 
     75 CA         -1.1880  -25.7603  -44.7087 C.3       13 UNK         0.1400 
     76 CB          0.2026  -25.8455  -45.3757 C.3       13 UNK        -0.1800 
     77 C          -2.0055  -27.0704  -44.7893 C.2       13 UNK         0.5000 
     78 O          -3.0279  -27.1899  -44.1119 O.2       13 UNK        -0.5000 
     79 N          -1.5741  -27.9866  -45.6624 N.am      14 UNK        -0.5000 
     80 CA         -2.3387  -29.1343  -46.1488 C.3       14 UNK         0.1400 
     81 CB         -1.7928  -30.4187  -45.4991 C.3       14 UNK        -0.1800 
     82 C          -2.2909  -29.1826  -47.6926 C.2       14 UNK         0.5000 
     83 O          -2.4335  -30.2582  -48.2764 O.2       14 UNK        -0.5000 
     84 N          -2.0607  -28.0232  -48.3260 N.am      15 UNK        -0.5000 
     85 CA         -1.8903  -27.8582  -49.7707 C.3       15 UNK         0.1400 
     86 CB         -0.6237  -27.0223  -50.0186 C.3       15 UNK        -0.1800 
     87 C          -3.1008  -27.1712  -50.4258 C.2       15 UNK         0.5000 
     88 O          -3.3620  -27.4143  -51.6040 O.2       15 UNK        -0.5000 
     89 N          -3.8000  -26.3174  -49.6617 N.am      16 UNK        -0.5000 
     90 CA         -4.9494  -25.4929  -50.0545 C.3       16 UNK         0.1400 
     91 CB         -6.1493  -26.3666  -50.4739 C.3       16 UNK        -0.1800 
     92 C          -4.6165  -24.4067  -51.1006 C.2       16 UNK         0.5000 
     93 O          -5.5263  -23.8834  -51.7490 O.2       16 UNK        -0.5000 
     94 N          -3.3317  -24.0382  -51.2265 N.am      17 UNK        -0.5000 
     95 CA         -2.8471  -23.0253  -52.1703 C.3       17 UNK         0.1400 
     96 CB         -1.3170  -23.0803  -52.2651 C.3       17 UNK        -0.1800 
     97 C          -3.3662  -21.6057  -51.8689 C.2       17 UNK         0.5000 
     98 O          -3.4979  -20.8080  -52.7956 O.2       17 UNK        -0.5000 
     99 N          -3.7665  -21.3580  -50.6128 N.am      18 UNK        -0.5000 
    100 CA        -4.5033  -20.1701  -50.1662 C.3       18 UNK         0.1400 
    101 CB        -4.7455  -20.2789  -48.6543 C.3       18 UNK        -0.1800 
    102 C         -5.8461  -19.9374  -50.8964 C.2       18 UNK         0.5000 
    103 O         -6.3538  -18.8161  -50.8777 O.2       18 UNK        -0.5000 
    104 N         -6.3927  -20.9866  -51.5237 N.am      19 UNK        -0.5000 
    105 CA        -7.5076  -20.9068  -52.4595 C.3       19 UNK         0.1400 
    106 CB        -8.6071  -21.8909  -52.0278 C.3       19 UNK        -0.1800 
    107 C         -7.0174  -21.2189  -53.8822 C.2       19 UNK         0.5000 
    108 O         -7.2693  -20.4339  -54.7972 O.2       19 UNK        -0.5000 
    109 N         -6.3314  -22.3598  -54.0468 N.am      20 UNK        -0.5000 
    110 CA        -5.9951  -22.9417  -55.3473 C.3       20 UNK         0.1400 
    111 CB        -5.5089  -24.3859  -55.1487 C.3       20 UNK        -0.1800 
    112 C         -4.9888  -22.1343  -56.1886 C.2       20 UNK         0.5000 
    113 O         -5.0977  -22.1549  -57.4156 O.2       20 UNK        -0.5000 
    114 N         -4.0376  -21.4457  -55.5424 N.am      21 UNK        -0.5000 
    115 CA        -3.0568  -20.5955  -56.2209 C.3       21 UNK         0.1400 
    116 CB        -1.7005  -20.6688  -55.4996 C.3       21 UNK        -0.1800 
    117 C         -3.5461  -19.1418  -56.3142 C.2       21 UNK         0.5000 
    118 O         -3.2665  -18.4796  -57.3147 O.2       21 UNK        -0.5000 
    119 N         -4.2603  -18.6683  -55.2834 N.am      22 UNK        -0.5000 
    120 CA        -4.8081  -17.3026  -55.2276 C.3       22 UNK         0.1400 
    121 C         -6.0152  -17.0673  -56.1787 C.2       22 UNK         0.5000 
    122 N         -6.8498  -18.0652  -56.4440 N.am      22 UNK        -0.7600 
    123 O         -6.1941  -15.9634  -56.6859 O.2       22 UNK        -0.5000 
    124 C124       -5.1694  -16.8489  -53.7899 C.3       23 UNK        -0.0398 
    125 S125       -3.8783  -17.1659  -52.5432 S.3       23 UNK        -0.2404 
    126 C126       -2.5573  -16.0062  -53.0137 C.3       23 UNK        -0.0205 
    127 H127        7.0834  -14.5468  -49.6990 H         1 UNK         0.0600 
    128 H128        7.8032  -13.3204  -48.6502 H         1 UNK         0.0600 
    129 H129        6.8147  -12.8332  -50.0304 H         1 UNK         0.0600 
    130 H130        4.7910  -12.1472  -49.4089 H         1 UNK         0.3000 
    131 H131        3.1153  -13.6493  -47.5717 H         1 UNK         0.0600 
    132 H132        1.4105  -11.8735  -48.1360 H         1 UNK         0.0800 
    133 H133        2.5983  -11.0651  -49.1226 H         1 UNK         0.0800 
    134 H134        0.7494  -14.3914  -48.4719 H         1 UNK         0.0800 
    135 H135       -0.3757  -13.3379  -49.2947 H         1 UNK         0.0800 
    136 H136       -1.5215  -14.1023  -51.3267 H         1 UNK         0.1150 
    137 H137       -0.9926  -18.1717  -52.5648 H         1 UNK         0.1150 
    138 H138        1.5041  -16.5253  -49.4935 H         1 UNK         0.1150 
    139 H139        1.5230  -19.0697  -51.8297 H         1 UNK         0.0800 
    140 H140        1.8190  -18.8091  -50.1277 H         1 UNK         0.0800 
    141 H141       -1.5150  -19.6486  -48.5782 H         1 UNK         0.0800 
    142 H142        0.1124  -19.0712  -48.3792 H         1 UNK         0.0800 
    143 H143        0.7961  -21.6260  -48.3573 H         1 UNK         0.0600 
    144 H144       -0.2718  -20.1167  -46.0723 H         1 UNK         0.3000 
    145 H145        1.4612  -22.0386  -43.7080 H         1 UNK         0.0600 
    146 H146        2.6926  -19.9762  -43.0998 H         1 UNK         0.0600 
    147 H147        3.4103  -20.7164  -44.5178 H         1 UNK         0.0600 
    148 H148        2.3952  -19.2944  -44.6997 H         1 UNK         0.0600 
    149 H149        0.1647  -19.4596  -43.5868 H         1 UNK         0.3000 
    150 H150       -3.1336  -20.7424  -43.1194 H         1 UNK         0.0600 
    151 H151       -1.9929  -20.8542  -40.8893 H         1 UNK         0.0600 
    152 H152       -2.9115  -19.3674  -41.0704 H         1 UNK         0.0600 
    153 H153       -1.1563  -19.3444  -41.2358 H         1 UNK         0.0600 
    154 H154       -2.1832  -18.0894  -43.1125 H         1 UNK         0.3000 
    155 H155       -1.7799  -17.2572  -46.2622 H         1 UNK         0.0600 
    156 H156       -4.7786  -17.2412  -45.6710 H         1 UNK         0.0600 
    157 H157       -3.9874  -17.7622  -47.1504 H         1 UNK         0.0600 
    158 H158       -3.9460  -16.0688  -46.6945 H         1 UNK         0.0600 
    159 H159       -1.4565  -15.7894  -44.6914 H         1 UNK         0.3000 
    160 H160       -3.2810  -13.9806  -42.5117 H         1 UNK         0.0600 
    161 H161       -1.4271  -16.1005  -41.2944 H         1 UNK         0.0600 
    162 H162       -3.0475  -15.7021  -40.7408 H         1 UNK         0.0600 
    163 H163       -1.7572  -14.5197  -40.5869 H         1 UNK         0.0600 
    164 H164       -0.4265  -14.3443  -42.7387 H         1 UNK         0.3000 
    165 H165       -0.0272  -12.6620  -45.8447 H         1 UNK         0.0600 
    166 H166        1.6110  -11.3819  -44.5195 H         1 UNK         0.0600 
    167 H167       -0.0086  -10.8667  -44.1049 H         1 UNK         0.0600 
    168 H168        0.8759  -11.9165  -43.0102 H         1 UNK         0.0600 
    169 H169        1.7312  -14.0380  -43.9947 H         1 UNK         0.3000 
    170 H170        1.3246  -17.2740  -45.4347 H         1 UNK         0.0600 
    171 H171        2.8895  -16.2515  -47.0490 H         1 UNK         0.0600 
    172 H172        3.6992  -15.3797  -45.7572 H         1 UNK         0.0600 
    173 H173        3.7647  -17.1371  -45.8095 H         1 UNK         0.0600 
    174 H174        3.0019  -15.9295  -43.4164 H         1 UNK         0.3000 
    175 H175        0.8336  -16.7284  -40.7542 H         1 UNK         0.0600 
    176 H176        3.3728  -18.3378  -41.3368 H         1 UNK         0.0600 
    177 H177        2.6253  -18.1117  -39.7556 H         1 UNK         0.0600 
    178 H178        1.7835  -19.0196  -40.9994 H         1 UNK         0.0600 
    179 H179        3.5652  -15.9443  -40.7130 H         1 UNK         0.3000 
    180 H180        2.9042  -12.6962  -40.1216 H         1 UNK         0.0600 
    181 H181        5.3239  -13.1576  -39.8986 H         1 UNK         0.0600 
    182 H182        5.1786  -14.6280  -40.8498 H         1 UNK         0.0600 
    183 H183        4.4007  -14.5067  -39.2696 H         1 UNK         0.0600 
    184 H184        3.6839  -11.5723  -41.8699 H         1 UNK         0.3000 
    185 H185        3.9412  -11.0678  -44.0647 H         1 UNK         0.0600 
    186 H186        6.2554  -11.2258  -43.1271 H         1 UNK         0.0600 
    187 H187        6.6556  -12.4957  -44.2792 H         1 UNK         0.0600 
    188 H188        6.3131  -10.8620  -44.8455 H         1 UNK         0.0600 
    189 H189        4.5618  -13.4593  -45.7194 H         1 UNK         0.3000 
    190 H190       -2.1617  -21.3929  -46.3696 H         1 UNK         0.3000 
    191 H191       -3.7342  -23.3043  -47.7330 H         1 UNK         0.0600 
    192 H192       -5.0074  -23.4046  -45.5920 H         1 UNK         0.0600 
    193 H193       -4.6570  -21.7431  -46.0422 H         1 UNK         0.0600 
    194 H194       -3.7297  -22.5208  -44.7684 H         1 UNK         0.0600 
    195 H195       -1.8301  -23.7568  -44.7158 H         1 UNK         0.3000 
    196 H196       -1.0374  -25.5556  -43.6478 H         1 UNK         0.0600 
    197 H197        0.1344  -25.9579  -46.4587 H         1 UNK         0.0600 
    198 H198        0.7770  -24.9399  -45.1802 H         1 UNK         0.0600 
    199 H199        0.7839  -26.6802  -44.9819 H         1 UNK         0.0600 
    200 H200       -0.7175  -27.7962  -46.1637 H         1 UNK         0.3000 
    201 H201       -3.3910  -29.0276  -45.8775 H         1 UNK         0.0600 
    202 H202       -0.7552  -30.6005  -45.7813 H         1 UNK         0.0600 
    203 H203       -2.3752  -31.2908  -45.7986 H         1 UNK         0.0600 
    204 H204       -1.8387  -30.3585  -44.4116 H         1 UNK         0.0600 
    205 H205       -2.0649  -27.1682  -47.7767 H         1 UNK         0.3000 
    206 H206       -1.7585  -28.8287  -50.2533 H         1 UNK         0.0600 
    207 H207        0.2600  -27.5207  -49.6199 H         1 UNK         0.0600 
    208 H208       -0.4565  -26.8692  -51.0857 H         1 UNK         0.0600 
    209 H209       -0.6912  -26.0381  -49.5516 H         1 UNK         0.0600 
    210 H210       -3.4675  -26.1560  -48.7132 H         1 UNK         0.3000 
    211 H211       -5.2437  -24.9520  -49.1543 H         1 UNK         0.0600 
    212 H212       -7.0491  -25.7625  -50.5966 H         1 UNK         0.0600 
    213 H213       -6.3689  -27.1233  -49.7207 H         1 UNK         0.0600 
    214 H214       -5.9701  -26.8761  -51.4210 H         1 UNK         0.0600 
    215 H215       -2.6394  -24.4723  -50.6321 H         1 UNK         0.3000 
    216 H216       -3.2330  -23.2866  -53.1556 H         1 UNK         0.0600 
    217 H217       -0.8424  -22.9327  -51.2977 H         1 UNK         0.0600 
    218 H218       -0.9372  -22.3083  -52.9352 H         1 UNK         0.0600 
    219 H219       -0.9833  -24.0420  -52.6546 H         1 UNK         0.0600 
    220 H220       -3.6088  -22.0783  -49.9251 H         1 UNK         0.3000 
    221 H221       -3.8724  -19.2995  -50.3551 H         1 UNK         0.0600 
    222 H222       -5.3263  -19.4324  -48.2863 H         1 UNK         0.0600 
    223 H223       -3.8069  -20.2848  -48.1044 H         1 UNK         0.0600 
    224 H224       -5.2954  -21.1856  -48.4005 H         1 UNK         0.0600 
    225 H225       -5.9168  -21.8795  -51.4755 H         1 UNK         0.3000 
    226 H226       -7.9382  -19.9034  -52.4717 H         1 UNK         0.0600 
    227 H227       -9.0010  -21.6293  -51.0457 H         1 UNK         0.0600 
    228 H228       -9.4428  -21.8747  -52.7285 H         1 UNK         0.0600 
    229 H229       -8.2400  -22.9168  -51.9757 H         1 UNK         0.0600 
    230 H230       -6.1466  -22.9459  -53.2369 H         1 UNK         0.3000 
    231 H231       -6.9216  -22.9869  -55.9239 H         1 UNK         0.0600 
    232 H232       -4.5873  -24.4307  -54.5706 H         1 UNK         0.0600 
    233 H233       -5.3157  -24.8677  -56.1080 H         1 UNK         0.0600 
    234 H234       -6.2567  -24.9860  -54.6298 H         1 UNK         0.0600 
    235 H235       -4.0256  -21.4221  -54.5277 H         1 UNK         0.3000 
    236 H236       -2.8975  -20.9585  -57.2385 H         1 UNK         0.0600 
    237 H237       -1.3768  -21.7013  -55.3693 H         1 UNK         0.0600 
    238 H238       -0.9306  -20.1576  -56.0785 H         1 UNK         0.0600 
    239 H239       -1.7280  -20.1953  -54.5186 H         1 UNK         0.0600 
    240 H240       -4.4142  -19.2556  -54.4758 H         1 UNK         0.3000 
    241 H241       -4.0194  -16.6335  -55.5765 H         1 UNK         0.0600 
    242 H242       -7.6259  -17.9056  -57.0660 H         1 UNK         0.3800 
    243 H243       -6.7727  -18.9580  -55.9654 H         1 UNK         0.3800 
    244 H244       -6.0695  -17.3655  -53.4509 H         1 UNK         0.0800 
    245 H245       -5.4080  -15.7840  -53.7746 H         1 UNK         0.0800 
    246 H246       -2.2129  -16.2291  -54.0241 H         1 UNK         0.0800 
    247 H247       -2.9531  -14.9896  -53.0266 H         1 UNK         0.0800 
@<TRIPOS>BOND
     1    1    2 1    
     2    1  127 1    
     3    1  128 1    
     4    1  129 1    
     5    2    3 2    
     6    2    4 am   BACKBONE|DICT|INTERRES
     7    4    5 1    
     8    4  130 1    
     9    5    6 1    
    10    5   65 1    
    11    5  131 1    
    12    6    7 1    
    13    6  132 1    
    14    6  133 1    
    15    7    8 1    
    16    8    9 1    
    17    8  134 1    
    18    8  135 1    
    19    9   10 ar   
    20    9   14 ar   
    21   10   11 ar   
    22   10  136 1    
    23   11   12 ar   
    24   11  126 1    
    25   12   13 ar   
    26   12  137 1    
    27   13   14 ar   
    28   13   15 1    
    29   14  138 1    
    30   15   16 1    
    31   15  139 1    
    32   15  140 1    
    33   16   17 1    
    34   17   18 1    
    35   17  141 1    
    36   17  142 1    
    37   18   19 1    
    38   18   67 1    
    39   18  143 1    
    40   19   20 am   BACKBONE|DICT|INTERRES
    41   19  144 1    
    42   20   21 2    
    43   20   22 1    
    44   22   23 1    
    45   22   24 1    
    46   22  145 1    
    47   23  146 1    
    48   23  147 1    
    49   23  148 1    
    50   24   25 am   BACKBONE|DICT|INTERRES
    51   24  149 1    
    52   25   26 2    
    53   25   27 1    
    54   27   28 1    
    55   27   29 1    
    56   27  150 1    
    57   28  151 1    
    58   28  152 1    
    59   28  153 1    
    60   29   30 am   BACKBONE|DICT|INTERRES
    61   29  154 1    
    62   30   31 2    
    63   30   32 1    
    64   32   33 1    
    65   32   34 1    
    66   32  155 1    
    67   33  156 1    
    68   33  157 1    
    69   33  158 1    
    70   34   35 am   BACKBONE|DICT|INTERRES
    71   34  159 1    
    72   35   36 2    
    73   35   37 1    
    74   37   38 1    
    75   37   39 1    
    76   37  160 1    
    77   38  161 1    
    78   38  162 1    
    79   38  163 1    
    80   39   40 am   BACKBONE|DICT|INTERRES
    81   39  164 1    
    82   40   41 2    
    83   40   42 1    
    84   42   43 1    
    85   42   44 1    
    86   42  165 1    
    87   43  166 1    
    88   43  167 1    
    89   43  168 1    
    90   44   45 am   BACKBONE|DICT|INTERRES
    91   44  169 1    
    92   45   46 2    
    93   45   47 1    
    94   47   48 1    
    95   47   49 1    
    96   47  170 1    
    97   48  171 1    
    98   48  172 1    
    99   48  173 1    
   100   49   50 am   BACKBONE|DICT|INTERRES
   101   49  174 1    
   102   50   51 2    
   103   50   52 1    
   104   52   53 1    
   105   52   54 1    
   106   52  175 1    
   107   53  176 1    
   108   53  177 1    
   109   53  178 1    
   110   54   55 am   BACKBONE|DICT|INTERRES
   111   54  179 1    
   112   55   56 2    
   113   55   57 1    
   114   57   58 1    
   115   57   59 1    
   116   57  180 1    
   117   58  181 1    
   118   58  182 1    
   119   58  183 1    
   120   59   60 am   BACKBONE|DICT|INTERRES
   121   59  184 1    
   122   60   61 2    
   123   60   62 1    
   124   62   63 1    
   125   62   64 1    
   126   62  185 1    
   127   63  186 1    
   128   63  187 1    
   129   63  188 1    
   130   64   65 am   BACKBONE|DICT|INTERRES
   131   64  189 1    
   132   65   66 2    
   133   67   68 2    
   134   67   69 am   BACKBONE|DICT|INTERRES
   135   69   70 1    
   136   69  190 1    
   137   70   71 1    
   138   70   72 1    
   139   70  191 1    
   140   71  192 1    
   141   71  193 1    
   142   71  194 1    
   143   72   73 2    
   144   72   74 am   BACKBONE|DICT|INTERRES
   145   74   75 1    
   146   74  195 1    
   147   75   76 1    
   148   75   77 1    
   149   75  196 1    
   150   76  197 1    
   151   76  198 1    
   152   76  199 1    
   153   77   78 2    
   154   77   79 am   BACKBONE|DICT|INTERRES
   155   79   80 1    
   156   79  200 1    
   157   80   81 1    
   158   80   82 1    
   159   80  201 1    
   160   81  202 1    
   161   81  203 1    
   162   81  204 1    
   163   82   83 2    
   164   82   84 am   BACKBONE|DICT|INTERRES
   165   84   85 1    
   166   84  205 1    
   167   85   86 1    
   168   85   87 1    
   169   85  206 1    
   170   86  207 1    
   171   86  208 1    
   172   86  209 1    
   173   87   88 2    
   174   87   89 am   BACKBONE|DICT|INTERRES
   175   89   90 1    
   176   89  210 1    
   177   90   91 1    
   178   90   92 1    
   179   90  211 1    
   180   91  212 1    
   181   91  213 1    
   182   91  214 1    
   183   92   93 2    
   184   92   94 am   BACKBONE|DICT|INTERRES
   185   94   95 1    
   186   94  215 1    
   187   95   96 1    
   188   95   97 1    
   189   95  216 1    
   190   96  217 1    
   191   96  218 1    
   192   96  219 1    
   193   97   98 2    
   194   97   99 am   BACKBONE|DICT|INTERRES
   195   99  100 1    
   196   99  220 1    
   197  100  101 1    
   198  100  102 1    
   199  100  221 1    
   200  101  222 1    
   201  101  223 1    
   202  101  224 1    
   203  102  103 2    
   204  102  104 am   BACKBONE|DICT|INTERRES
   205  104  105 1    
   206  104  225 1    
   207  105  106 1    
   208  105  107 1    
   209  105  226 1    
   210  106  227 1    
   211  106  228 1    
   212  106  229 1    
   213  107  108 2    
   214  107  109 am   BACKBONE|DICT|INTERRES
   215  109  110 1    
   216  109  230 1    
   217  110  111 1    
   218  110  112 1    
   219  110  231 1    
   220  111  232 1    
   221  111  233 1    
   222  111  234 1    
   223  112  113 2    
   224  112  114 am   BACKBONE|DICT|INTERRES
   225  114  115 1    
   226  114  235 1    
   227  115  116 1    
   228  115  117 1    
   229  115  236 1    
   230  116  237 1    
   231  116  238 1    
   232  116  239 1    
   233  117  118 2    
   234  117  119 am   BACKBONE|DICT|INTERRES
   235  119  120 1    
   236  119  240 1    
   237  120  121 1    
   238  120  124 1    
   239  120  241 1    
   240  121  122 am   BACKBONE|DICT|INTERRES
   241  121  123 2    
   242  122  242 1    
   243  122  243 1    
   244  124  125 1    
   245  124  244 1    
   246  124  245 1    
   247  125  126 1    
   248  126  246 1    
   249  126  247 1    
@<TRIPOS>SUBSTRUCTURE
     1 UNK         1 GROUP             0       ****    0 ROOT    
