@<TRIPOS>MOLECULE
3R540
247   249    1
SMALL
USER_CHARGES


@<TRIPOS>ATOM
      1 CA          1.2336  -11.1177  -51.2312 C.3       0 UNK        -0.1800 
      2 C           2.1598  -11.3564  -50.0471 C.2       0 UNK         0.5000 
      3 O           3.2057  -10.7147  -49.9484 O.2       0 UNK        -0.5000 
      4 N           1.7789  -12.2768  -49.1518 N.am      1 UNK        -0.5000 
      5 CA          2.5381  -12.6430  -47.9476 C.3       1 UNK         0.1400 
      6 C6          2.0599  -13.9894  -47.3558 C.3       23 UNK        -0.0398 
      7 S7          2.4770  -15.3840  -48.4530 S.3       23 UNK        -0.2404 
      8 C8          0.8276  -15.9548  -48.9757 C.3       23 UNK        -0.0205 
      9 C9          0.8901  -17.2065  -49.8434 C.ar      23 UNK        -0.0193 
     10 C10         0.1548  -17.2812  -51.0302 C.ar      23 UNK        -0.1150 
     11 C11         0.1674  -18.4389  -51.8172 C.ar      23 UNK        -0.0193 
     12 C12         0.9307  -19.5361  -51.3924 C.ar      23 UNK        -0.1150 
     13 C13         1.6704  -19.4781  -50.2054 C.ar      23 UNK        -0.0193 
     14 C14         1.6461  -18.3099  -49.4409 C.ar      23 UNK        -0.1150 
     15 C15         2.4707  -20.6895  -49.7324 C.3       23 UNK        -0.0205 
     16 S16         2.1024  -21.1795  -48.0072 S.3       23 UNK        -0.2404 
     17 C17         0.2807  -21.1136  -47.9817 C.3       23 UNK        -0.0398 
     18 CA         -0.3722  -22.3061  -47.2522 C.3       11 UNK         0.1400 
     19 N          -0.2074  -22.2275  -45.7973 N.am      11 UNK        -0.5000 
     20 C          -0.6433  -23.1279  -44.9031 C.2       10 UNK         0.5000 
     21 O          -1.2791  -24.1424  -45.1993 O.2       10 UNK        -0.5000 
     22 CA         -0.3706  -22.8011  -43.4257 C.3       10 UNK         0.1400 
     23 CB          1.1216  -22.9394  -43.0855 C.3       10 UNK        -0.1800 
     24 N          -0.8341  -21.4533  -43.0981 N.am      10 UNK        -0.5000 
     25 C          -2.1241  -21.1280  -42.9358 C.2       9 UNK         0.5000 
     26 O          -3.0386  -21.9519  -42.9383 O.2       9 UNK        -0.5000 
     27 CA         -2.4616  -19.6362  -42.7553 C.3       9 UNK         0.1400 
     28 CB         -2.4573  -19.2635  -41.2652 C.3       9 UNK        -0.1800 
     29 N          -1.5646  -18.7367  -43.4826 N.am      9 UNK        -0.5000 
     30 C          -1.4501  -18.6748  -44.8168 C.2       8 UNK         0.5000 
     31 O          -2.1040  -19.3702  -45.5927 O.2       8 UNK        -0.5000 
     32 CA         -0.3869  -17.7098  -45.3770 C.3       8 UNK         0.1400 
     33 CB         -0.9103  -16.2660  -45.3854 C.3       8 UNK        -0.1800 
     34 N           0.8801  -17.7668  -44.6454 N.am      8 UNK        -0.5000 
     35 C           1.6265  -18.8719  -44.4996 C.2       7 UNK         0.5000 
     36 O           1.3280  -19.9693  -44.9670 O.2       7 UNK        -0.5000 
     37 CA          2.8800  -18.7439  -43.6225 C.3       7 UNK         0.1400 
     38 CB          4.0178  -18.0435  -44.3815 C.3       7 UNK        -0.1800 
     39 N           2.5799  -18.0265  -42.3843 N.am      7 UNK        -0.5000 
     40 C           1.8431  -18.5343  -41.3846 C.2       6 UNK         0.5000 
     41 O           1.4059  -19.6854  -41.3724 O.2       6 UNK        -0.5000 
     42 CA          1.5062  -17.5832  -40.2208 C.3       6 UNK         0.1400 
     43 CB          2.6306  -17.5876  -39.1745 C.3       6 UNK        -0.1800 
     44 N           1.2630  -16.2094  -40.6650 N.am      6 UNK        -0.5000 
     45 C           0.2318  -15.8324  -41.4346 C.2       5 UNK         0.5000 
     46 O          -0.6477  -16.6007  -41.8184 O.2       5 UNK        -0.5000 
     47 CA          0.1998  -14.3627  -41.8890 C.3       5 UNK         0.1400 
     48 CB         -0.5845  -13.5018  -40.8887 C.3       5 UNK        -0.1800 
     49 N           1.5320  -13.7893  -42.0755 N.am      5 UNK        -0.5000 
     50 C           2.4294  -14.1846  -42.9866 C.2       4 UNK         0.5000 
     51 O           2.2295  -15.1131  -43.7730 O.2       4 UNK        -0.5000 
     52 CA          3.7621  -13.4052  -43.0012 C.3       4 UNK         0.1400 
     53 CB          4.7430  -13.9019  -44.0776 C.3       4 UNK        -0.1800 
     54 N           3.5448  -11.9643  -43.1637 N.am      4 UNK        -0.5000 
     55 C           3.1847  -11.1266  -42.1791 C.2       3 UNK         0.5000 
     56 O           3.0224  -11.4911  -41.0132 O.2       3 UNK        -0.5000 
     57 CA          2.9324   -9.6497  -42.5400 C.3       3 UNK         0.1400 
     58 CB          4.1718   -8.8008  -42.2188 C.3       3 UNK        -0.1800 
     59 N           2.5603   -9.4339  -43.9378 N.am      3 UNK        -0.5000 
     60 C           1.4203   -9.8404  -44.5130 C.2       2 UNK         0.5000 
     61 O           0.5283  -10.4447  -43.9160 O.2       2 UNK        -0.5000 
     62 CA          1.2498   -9.5340  -46.0163 C.3       2 UNK         0.1400 
     63 CB          2.1353   -8.3717  -46.5190 C.3       2 UNK        -0.1800 
     64 N           1.4552  -10.7162  -46.8591 N.am      2 UNK        -0.5000 
     65 C           2.5219  -11.5323  -46.8756 C.2       1 UNK         0.5000 
     66 O           3.4806  -11.4281  -46.1086 O.2       1 UNK        -0.5000 
     67 C          -1.8405  -22.4219  -47.7010 C.2       11 UNK         0.5000 
     68 O          -2.0817  -23.0092  -48.7563 O.2       11 UNK        -0.5000 
     69 N          -2.7833  -21.8811  -46.9132 N.am      12 UNK        -0.5000 
     70 CA         -4.2317  -21.9189  -47.1331 C.3       12 UNK         0.1400 
     71 CB         -4.9558  -21.4011  -45.8820 C.3       12 UNK        -0.1800 
     72 C          -4.7583  -23.3096  -47.5240 C.2       12 UNK         0.5000 
     73 O          -5.4992  -23.4206  -48.5036 O.2       12 UNK        -0.5000 
     74 N          -4.2946  -24.3274  -46.7880 N.am      13 UNK        -0.5000 
     75 CA         -4.5500  -25.7367  -47.0574 C.3       13 UNK         0.1400 
     76 CB         -4.9104  -26.4416  -45.7404 C.3       13 UNK        -0.1800 
     77 C          -3.3375  -26.4179  -47.7144 C.2       13 UNK         0.5000 
     78 O          -3.5285  -27.1884  -48.6549 O.2       13 UNK        -0.5000 
     79 N          -2.1184  -26.1441  -47.2194 N.am      14 UNK        -0.5000 
     80 CA         -0.9020  -26.8750  -47.5982 C.3       14 UNK         0.1400 
     81 CB          0.2271  -26.5524  -46.6075 C.3       14 UNK        -0.1800 
     82 C          -0.4273  -26.6239  -49.0406 C.2       14 UNK         0.5000 
     83 O           0.1472  -27.5277  -49.6489 O.2       14 UNK        -0.5000 
     84 N          -0.6730  -25.4149  -49.5571 N.am      15 UNK        -0.5000 
     85 CA         -0.3331  -24.9976  -50.9187 C.3       15 UNK         0.1400 
     86 CB          0.6140  -23.7891  -50.8422 C.3       15 UNK        -0.1800 
     87 C          -1.5911  -24.6468  -51.7325 C.2       15 UNK         0.5000 
     88 O          -1.4568  -24.2094  -52.8737 O.2       15 UNK        -0.5000 
     89 N          -2.7791  -24.8238  -51.1333 N.am      16 UNK        -0.5000 
     90 CA         -4.1014  -24.4675  -51.6515 C.3       16 UNK         0.1400 
     91 CB         -4.4448  -25.3017  -52.9047 C.3       16 UNK        -0.1800 
     92 C          -4.2735  -22.9509  -51.8801 C.2       16 UNK         0.5000 
     93 O          -4.9658  -22.5509  -52.8182 O.2       16 UNK        -0.5000 
     94 N          -3.6594  -22.1165  -51.0265 N.am      17 UNK        -0.5000 
     95 CA         -3.7187  -20.6531  -51.1319 C.3       17 UNK         0.1400 
     96 CB         -2.6667  -20.0016  -50.2263 C.3       17 UNK        -0.1800 
     97 C          -5.1162  -20.0578  -50.8831 C.2       17 UNK         0.5000 
     98 O          -5.4019  -18.9790  -51.4006 O.2       17 UNK        -0.5000 
     99 N          -5.9656  -20.7692  -50.1309 N.am      18 UNK        -0.5000 
    100 CA        -7.3678  -20.4059  -49.9264 C.3       18 UNK         0.1400 
    101 CB        -7.7615  -20.6946  -48.4699 C.3       18 UNK        -0.1800 
    102 C         -8.2875  -21.1678  -50.8950 C.2       18 UNK         0.5000 
    103 O         -9.2843  -20.6075  -51.3511 O.2       18 UNK        -0.5000 
    104 N         -7.9474  -22.4323  -51.1805 N.am      19 UNK        -0.5000 
    105 CA        -8.7723  -23.3480  -51.9672 C.3       19 UNK         0.1400 
    106 CB        -8.3725  -24.7926  -51.6304 C.3       19 UNK        -0.1800 
    107 C         -8.7105  -23.1046  -53.4867 C.2       19 UNK         0.5000 
    108 O         -9.7260  -23.2896  -54.1592 O.2       19 UNK        -0.5000 
    109 N         -7.5375  -22.7203  -54.0076 N.am      20 UNK        -0.5000 
    110 CA        -7.2755  -22.5982  -55.4454 C.3       20 UNK         0.1400 
    111 CB        -6.7697  -23.9514  -55.9821 C.3       20 UNK        -0.1800 
    112 C         -6.3027  -21.4499  -55.7739 C.2       20 UNK         0.5000 
    113 O         -5.6934  -21.4608  -56.8461 O.2       20 UNK        -0.5000 
    114 N         -6.1422  -20.4935  -54.8443 N.am      21 UNK        -0.5000 
    115 CA        -5.2484  -19.3262  -54.9247 C.3       21 UNK         0.1400 
    116 CB        -5.7810  -18.3193  -55.9655 C.3       21 UNK        -0.1800 
    117 C         -3.7630  -19.6926  -55.1589 C.2       21 UNK         0.5000 
    118 O         -3.0294  -18.9132  -55.7666 O.2       21 UNK        -0.5000 
    119 N         -3.3761  -20.8902  -54.6973 N.am      22 UNK        -0.5000 
    120 CA        -2.1063  -21.5958  -54.9345 C.3       22 UNK         0.1400 
    121 C         -1.7281  -21.8413  -56.4286 C.2       22 UNK         0.5000 
    122 N         -2.6742  -21.7966  -57.3611 N.am      22 UNK        -0.7600 
    123 O         -0.5771  -22.1248  -56.7499 O.2       22 UNK        -0.5000 
    124 C124       -0.9361  -21.1495  -54.0046 C.3       23 UNK        -0.0398 
    125 S125       -0.1085  -19.5717  -54.4183 S.3       23 UNK        -0.2404 
    126 C126       -0.6908  -18.4653  -53.0865 C.3       23 UNK        -0.0205 
    127 H127        1.7600  -11.3159  -52.1648 H         1 UNK         0.0600 
    128 H128        0.8976  -10.0808  -51.2413 H         1 UNK         0.0600 
    129 H129        0.3536  -11.7602  -51.1946 H         1 UNK         0.0600 
    130 H130        0.9175  -12.7812  -49.3008 H         1 UNK         0.3000 
    131 H131        3.5839  -12.7618  -48.2407 H         1 UNK         0.0600 
    132 H132        0.9875  -13.9657  -47.1580 H         1 UNK         0.0800 
    133 H133        2.5360  -14.1896  -46.3957 H         1 UNK         0.0800 
    134 H134        0.2240  -16.1758  -48.0962 H         1 UNK         0.0800 
    135 H135        0.3266  -15.1444  -49.5067 H         1 UNK         0.0800 
    136 H136       -0.4438  -16.4353  -51.3385 H         1 UNK         0.1150 
    137 H137        0.9429  -20.4456  -51.9742 H         1 UNK         0.1150 
    138 H138        2.2045  -18.2681  -48.5162 H         1 UNK         0.1150 
    139 H139        2.2933  -21.5444  -50.3845 H         1 UNK         0.0800 
    140 H140        3.5341  -20.4612  -49.8125 H         1 UNK         0.0800 
    141 H141       -0.0567  -21.0801  -49.0160 H         1 UNK         0.0800 
    142 H142       -0.0314  -20.1684  -47.5355 H         1 UNK         0.0800 
    143 H143        0.1233  -23.2214  -47.5807 H         1 UNK         0.0600 
    144 H144        0.3138  -21.4199  -45.4596 H         1 UNK         0.3000 
    145 H145       -0.9198  -23.5207  -42.8148 H         1 UNK         0.0600 
    146 H146        1.3013  -22.7491  -42.0272 H         1 UNK         0.0600 
    147 H147        1.4772  -23.9477  -43.3008 H         1 UNK         0.0600 
    148 H148        1.7392  -22.2458  -43.6559 H         1 UNK         0.0600 
    149 H149       -0.1377  -20.7200  -43.0783 H         1 UNK         0.3000 
    150 H150       -3.4707  -19.4808  -43.1425 H         1 UNK         0.0600 
    151 H151       -3.1216  -19.9146  -40.6955 H         1 UNK         0.0600 
    152 H152       -2.7993  -18.2395  -41.1143 H         1 UNK         0.0600 
    153 H153       -1.4595  -19.3506  -40.8334 H         1 UNK         0.0600 
    154 H154       -1.0311  -18.0807  -42.9176 H         1 UNK         0.3000 
    155 H155       -0.1781  -18.0028  -46.4075 H         1 UNK         0.0600 
    156 H156       -1.2313  -15.9469  -44.3943 H         1 UNK         0.0600 
    157 H157       -1.7676  -16.1689  -46.0524 H         1 UNK         0.0600 
    158 H158       -0.1468  -15.5680  -45.7270 H         1 UNK         0.0600 
    159 H159        1.2132  -16.9010  -44.2358 H         1 UNK         0.3000 
    160 H160        3.2165  -19.7505  -43.3645 H         1 UNK         0.0600 
    161 H161        3.7344  -17.0456  -44.7156 H         1 UNK         0.0600 
    162 H162        4.2964  -18.6137  -45.2686 H         1 UNK         0.0600 
    163 H163        4.9091  -17.9505  -43.7611 H         1 UNK         0.0600 
    164 H164        2.8558  -17.0565  -42.3427 H         1 UNK         0.3000 
    165 H165        0.5946  -17.9512  -39.7451 H         1 UNK         0.0600 
    166 H166        2.3675  -16.9770  -38.3106 H         1 UNK         0.0600 
    167 H167        2.8206  -18.5983  -38.8109 H         1 UNK         0.0600 
    168 H168        3.5659  -17.2049  -39.5849 H         1 UNK         0.0600 
    169 H169        1.9382  -15.5114  -40.3903 H         1 UNK         0.3000 
    170 H170       -0.3155  -14.3234  -42.8503 H         1 UNK         0.0600 
    171 H171       -1.5936  -13.8906  -40.7457 H         1 UNK         0.0600 
    172 H172       -0.0996  -13.4761  -39.9120 H         1 UNK         0.0600 
    173 H173       -0.6793  -12.4752  -41.2437 H         1 UNK         0.0600 
    174 H174        1.7863  -13.0100  -41.4774 H         1 UNK         0.3000 
    175 H175        4.2374  -13.5809  -42.0340 H         1 UNK         0.0600 
    176 H176        4.3521  -13.7612  -45.0836 H         1 UNK         0.0600 
    177 H177        5.6935  -13.3721  -44.0150 H         1 UNK         0.0600 
    178 H178        4.9571  -14.9638  -43.9530 H         1 UNK         0.0600 
    179 H179        3.6024  -11.6069  -44.1129 H         1 UNK         0.3000 
    180 H180        2.1076   -9.2989  -41.9163 H         1 UNK         0.0600 
    181 H181        5.0272   -9.0910  -42.8302 H         1 UNK         0.0600 
    182 H182        4.4624   -8.9128  -41.1732 H         1 UNK         0.0600 
    183 H183        3.9800   -7.7412  -42.3890 H         1 UNK         0.0600 
    184 H184        3.2476   -8.9781  -44.5202 H         1 UNK         0.3000 
    185 H185        0.2095   -9.2331  -46.1487 H         1 UNK         0.0600 
    186 H186        1.9905   -7.4750  -45.9148 H         1 UNK         0.0600 
    187 H187        3.1969   -8.6205  -46.5010 H         1 UNK         0.0600 
    188 H188        1.8810   -8.1094  -47.5461 H         1 UNK         0.0600 
    189 H189        0.7175  -10.9064  -47.5219 H         1 UNK         0.3000 
    190 H190       -2.4720  -21.3251  -46.1241 H         1 UNK         0.3000 
    191 H191       -4.4543  -21.2361  -47.9500 H         1 UNK         0.0600 
    192 H192       -4.6741  -20.3721  -45.6587 H         1 UNK         0.0600 
    193 H193       -6.0376  -21.4195  -46.0166 H         1 UNK         0.0600 
    194 H194       -4.7281  -22.0088  -45.0063 H         1 UNK         0.0600 
    195 H195       -3.6529  -24.1157  -46.0356 H         1 UNK         0.3000 
    196 H196       -5.3994  -25.8415  -47.7362 H         1 UNK         0.0600 
    197 H197       -5.1081  -27.5015  -45.9054 H         1 UNK         0.0600 
    198 H198       -5.8076  -26.0092  -45.2973 H         1 UNK         0.0600 
    199 H199       -4.1061  -26.3665  -45.0072 H         1 UNK         0.0600 
    200 H200       -2.0161  -25.4815  -46.4568 H         1 UNK         0.3000 
    201 H201       -1.1219  -27.9413  -47.5120 H         1 UNK         0.0600 
    202 H202       -0.0770  -26.7522  -45.5799 H         1 UNK         0.0600 
    203 H203        0.5343  -25.5084  -46.6716 H         1 UNK         0.0600 
    204 H204        1.1082  -27.1627  -46.8094 H         1 UNK         0.0600 
    205 H205       -1.1721  -24.7281  -49.0018 H         1 UNK         0.3000 
    206 H206        0.1780  -25.7993  -51.4549 H         1 UNK         0.0600 
    207 H207        1.4792  -24.0015  -50.2140 H         1 UNK         0.0600 
    208 H208        0.9876  -23.5210  -51.8312 H         1 UNK         0.0600 
    209 H209        0.1094  -22.9128  -50.4380 H         1 UNK         0.0600 
    210 H210       -2.7690  -25.2065  -50.1991 H         1 UNK         0.3000 
    211 H211       -4.8149  -24.7371  -50.8719 H         1 UNK         0.0600 
    212 H212       -3.8057  -25.0479  -53.7508 H         1 UNK         0.0600 
    213 H213       -5.4737  -25.1363  -53.2227 H         1 UNK         0.0600 
    214 H214       -4.3351  -26.3683  -52.7094 H         1 UNK         0.0600 
    215 H215       -3.1007  -22.5066  -50.2715 H         1 UNK         0.3000 
    216 H216       -3.4524  -20.3895  -52.1527 H         1 UNK         0.0600 
    217 H217       -2.6220  -18.9251  -50.3957 H         1 UNK         0.0600 
    218 H218       -1.6772  -20.4012  -50.4384 H         1 UNK         0.0600 
    219 H219       -2.8780  -20.1478  -49.1700 H         1 UNK         0.0600 
    220 H220       -5.6585  -21.6523  -49.7430 H         1 UNK         0.3000 
    221 H221       -7.5142  -19.3377  -50.1008 H         1 UNK         0.0600 
    222 H222       -7.6482  -21.7494  -48.2180 H         1 UNK         0.0600 
    223 H223       -7.1510  -20.1141  -47.7786 H         1 UNK         0.0600 
    224 H224       -8.8023  -20.4246  -48.2869 H         1 UNK         0.0600 
    225 H225       -7.1208  -22.8211  -50.7545 H         1 UNK         0.3000 
    226 H226       -9.8131  -23.2167  -51.6624 H         1 UNK         0.0600 
    227 H227       -8.5396  -25.0104  -50.5753 H         1 UNK         0.0600 
    228 H228       -8.9622  -25.5075  -52.2059 H         1 UNK         0.0600 
    229 H229       -7.3225  -24.9828  -51.8469 H         1 UNK         0.0600 
    230 H230       -6.7252  -22.6185  -53.4032 H         1 UNK         0.3000 
    231 H231       -8.2027  -22.3493  -55.9652 H         1 UNK         0.0600 
    232 H232       -7.4732  -24.7545  -55.7620 H         1 UNK         0.0600 
    233 H233       -5.8077  -24.2179  -55.5432 H         1 UNK         0.0600 
    234 H234       -6.6418  -23.9253  -57.0649 H         1 UNK         0.0600 
    235 H235       -6.6783  -20.5763  -53.9925 H         1 UNK         0.3000 
    236 H236       -5.2876  -18.8359  -53.9536 H         1 UNK         0.0600 
    237 H237       -5.2142  -17.3880  -55.9369 H         1 UNK         0.0600 
    238 H238       -5.7131  -18.7126  -56.9802 H         1 UNK         0.0600 
    239 H239       -6.8237  -18.0673  -55.7723 H         1 UNK         0.0600 
    240 H240       -4.0765  -21.4435  -54.2142 H         1 UNK         0.3000 
    241 H241       -2.3512  -22.6051  -54.6080 H         1 UNK         0.0600 
    242 H242       -2.4285  -21.9705  -58.3225 H         1 UNK         0.3800 
    243 H243       -3.6380  -21.5929  -57.1199 H         1 UNK         0.3800 
    244 H244       -0.1649  -21.9213  -54.0144 H         1 UNK         0.0800 
    245 H245       -1.2820  -21.1203  -52.9716 H         1 UNK         0.0800 
    246 H246       -1.7180  -18.7175  -52.8238 H         1 UNK         0.0800 
    247 H247       -0.7295  -17.4598  -53.5082 H         1 UNK         0.0800 
@<TRIPOS>BOND
     1    1    2 1    
     2    1  127 1    
     3    1  128 1    
     4    1  129 1    
     5    2    3 2    
     6    2    4 am   BACKBONE|DICT|INTERRES
     7    4    5 1    
     8    4  130 1    
     9    5    6 1    
    10    5   65 1    
    11    5  131 1    
    12    6    7 1    
    13    6  132 1    
    14    6  133 1    
    15    7    8 1    
    16    8    9 1    
    17    8  134 1    
    18    8  135 1    
    19    9   10 ar   
    20    9   14 ar   
    21   10   11 ar   
    22   10  136 1    
    23   11   12 ar   
    24   11  126 1    
    25   12   13 ar   
    26   12  137 1    
    27   13   14 ar   
    28   13   15 1    
    29   14  138 1    
    30   15   16 1    
    31   15  139 1    
    32   15  140 1    
    33   16   17 1    
    34   17   18 1    
    35   17  141 1    
    36   17  142 1    
    37   18   19 1    
    38   18   67 1    
    39   18  143 1    
    40   19   20 am   BACKBONE|DICT|INTERRES
    41   19  144 1    
    42   20   21 2    
    43   20   22 1    
    44   22   23 1    
    45   22   24 1    
    46   22  145 1    
    47   23  146 1    
    48   23  147 1    
    49   23  148 1    
    50   24   25 am   BACKBONE|DICT|INTERRES
    51   24  149 1    
    52   25   26 2    
    53   25   27 1    
    54   27   28 1    
    55   27   29 1    
    56   27  150 1    
    57   28  151 1    
    58   28  152 1    
    59   28  153 1    
    60   29   30 am   BACKBONE|DICT|INTERRES
    61   29  154 1    
    62   30   31 2    
    63   30   32 1    
    64   32   33 1    
    65   32   34 1    
    66   32  155 1    
    67   33  156 1    
    68   33  157 1    
    69   33  158 1    
    70   34   35 am   BACKBONE|DICT|INTERRES
    71   34  159 1    
    72   35   36 2    
    73   35   37 1    
    74   37   38 1    
    75   37   39 1    
    76   37  160 1    
    77   38  161 1    
    78   38  162 1    
    79   38  163 1    
    80   39   40 am   BACKBONE|DICT|INTERRES
    81   39  164 1    
    82   40   41 2    
    83   40   42 1    
    84   42   43 1    
    85   42   44 1    
    86   42  165 1    
    87   43  166 1    
    88   43  167 1    
    89   43  168 1    
    90   44   45 am   BACKBONE|DICT|INTERRES
    91   44  169 1    
    92   45   46 2    
    93   45   47 1    
    94   47   48 1    
    95   47   49 1    
    96   47  170 1    
    97   48  171 1    
    98   48  172 1    
    99   48  173 1    
   100   49   50 am   BACKBONE|DICT|INTERRES
   101   49  174 1    
   102   50   51 2    
   103   50   52 1    
   104   52   53 1    
   105   52   54 1    
   106   52  175 1    
   107   53  176 1    
   108   53  177 1    
   109   53  178 1    
   110   54   55 am   BACKBONE|DICT|INTERRES
   111   54  179 1    
   112   55   56 2    
   113   55   57 1    
   114   57   58 1    
   115   57   59 1    
   116   57  180 1    
   117   58  181 1    
   118   58  182 1    
   119   58  183 1    
   120   59   60 am   BACKBONE|DICT|INTERRES
   121   59  184 1    
   122   60   61 2    
   123   60   62 1    
   124   62   63 1    
   125   62   64 1    
   126   62  185 1    
   127   63  186 1    
   128   63  187 1    
   129   63  188 1    
   130   64   65 am   BACKBONE|DICT|INTERRES
   131   64  189 1    
   132   65   66 2    
   133   67   68 2    
   134   67   69 am   BACKBONE|DICT|INTERRES
   135   69   70 1    
   136   69  190 1    
   137   70   71 1    
   138   70   72 1    
   139   70  191 1    
   140   71  192 1    
   141   71  193 1    
   142   71  194 1    
   143   72   73 2    
   144   72   74 am   BACKBONE|DICT|INTERRES
   145   74   75 1    
   146   74  195 1    
   147   75   76 1    
   148   75   77 1    
   149   75  196 1    
   150   76  197 1    
   151   76  198 1    
   152   76  199 1    
   153   77   78 2    
   154   77   79 am   BACKBONE|DICT|INTERRES
   155   79   80 1    
   156   79  200 1    
   157   80   81 1    
   158   80   82 1    
   159   80  201 1    
   160   81  202 1    
   161   81  203 1    
   162   81  204 1    
   163   82   83 2    
   164   82   84 am   BACKBONE|DICT|INTERRES
   165   84   85 1    
   166   84  205 1    
   167   85   86 1    
   168   85   87 1    
   169   85  206 1    
   170   86  207 1    
   171   86  208 1    
   172   86  209 1    
   173   87   88 2    
   174   87   89 am   BACKBONE|DICT|INTERRES
   175   89   90 1    
   176   89  210 1    
   177   90   91 1    
   178   90   92 1    
   179   90  211 1    
   180   91  212 1    
   181   91  213 1    
   182   91  214 1    
   183   92   93 2    
   184   92   94 am   BACKBONE|DICT|INTERRES
   185   94   95 1    
   186   94  215 1    
   187   95   96 1    
   188   95   97 1    
   189   95  216 1    
   190   96  217 1    
   191   96  218 1    
   192   96  219 1    
   193   97   98 2    
   194   97   99 am   BACKBONE|DICT|INTERRES
   195   99  100 1    
   196   99  220 1    
   197  100  101 1    
   198  100  102 1    
   199  100  221 1    
   200  101  222 1    
   201  101  223 1    
   202  101  224 1    
   203  102  103 2    
   204  102  104 am   BACKBONE|DICT|INTERRES
   205  104  105 1    
   206  104  225 1    
   207  105  106 1    
   208  105  107 1    
   209  105  226 1    
   210  106  227 1    
   211  106  228 1    
   212  106  229 1    
   213  107  108 2    
   214  107  109 am   BACKBONE|DICT|INTERRES
   215  109  110 1    
   216  109  230 1    
   217  110  111 1    
   218  110  112 1    
   219  110  231 1    
   220  111  232 1    
   221  111  233 1    
   222  111  234 1    
   223  112  113 2    
   224  112  114 am   BACKBONE|DICT|INTERRES
   225  114  115 1    
   226  114  235 1    
   227  115  116 1    
   228  115  117 1    
   229  115  236 1    
   230  116  237 1    
   231  116  238 1    
   232  116  239 1    
   233  117  118 2    
   234  117  119 am   BACKBONE|DICT|INTERRES
   235  119  120 1    
   236  119  240 1    
   237  120  121 1    
   238  120  124 1    
   239  120  241 1    
   240  121  122 am   BACKBONE|DICT|INTERRES
   241  121  123 2    
   242  122  242 1    
   243  122  243 1    
   244  124  125 1    
   245  124  244 1    
   246  124  245 1    
   247  125  126 1    
   248  126  246 1    
   249  126  247 1    
@<TRIPOS>SUBSTRUCTURE
     1 UNK         1 GROUP             0       ****    0 ROOT    
