@<TRIPOS>MOLECULE
3R540
247   249    1
SMALL
USER_CHARGES


@<TRIPOS>ATOM
      1 CA         -2.0777  -16.1077  -46.3196 C.3       0 UNK        -0.1800 
      2 C          -1.9981  -14.6597  -46.7687 C.2       0 UNK         0.5000 
      3 O          -1.2080  -13.8892  -46.2291 O.2       0 UNK        -0.5000 
      4 N          -2.8136  -14.2797  -47.7575 N.am      1 UNK        -0.5000 
      5 CA         -2.9666  -12.8951  -48.2272 C.3       1 UNK         0.1400 
      6 C6         -4.2026  -12.7221  -49.1444 C.3       23 UNK        -0.0398 
      7 S7         -5.7621  -13.1965  -48.3167 S.3       23 UNK        -0.2404 
      8 C8         -6.3298  -14.6079  -49.3188 C.3       23 UNK        -0.0205 
      9 C9         -5.4509  -15.8353  -49.1343 C.ar      23 UNK        -0.0193 
     10 C10        -4.4657  -16.1408  -50.0740 C.ar      23 UNK        -0.1150 
     11 C11        -3.6561  -17.2652  -49.9099 C.ar      23 UNK        -0.0193 
     12 C12        -3.8453  -18.0983  -48.8054 C.ar      23 UNK        -0.1150 
     13 C13        -4.8243  -17.8038  -47.8467 C.ar      23 UNK        -0.0193 
     14 C14        -5.6214  -16.6672  -48.0242 C.ar      23 UNK        -0.1150 
     15 C15        -5.0310  -18.6486  -46.5876 C.3       23 UNK        -0.0205 
     16 S16        -4.5528  -20.4009  -46.7273 S.3       23 UNK        -0.2404 
     17 C17        -2.7786  -20.3728  -46.2887 C.3       23 UNK        -0.0398 
     18 CA         -2.0270  -21.6225  -46.8143 C.3       11 UNK         0.1400 
     19 N          -0.5719  -21.4688  -46.7484 N.am      11 UNK        -0.5000 
     20 C           0.3247  -22.3582  -47.2026 C.2       10 UNK         0.5000 
     21 O           0.0247  -23.3838  -47.8118 O.2       10 UNK        -0.5000 
     22 CA          1.8014  -22.0941  -46.8586 C.3       10 UNK         0.1400 
     23 CB          2.4266  -21.0865  -47.8313 C.3       10 UNK        -0.1800 
     24 N           1.9681  -21.6276  -45.4820 N.am      10 UNK        -0.5000 
     25 C           1.7163  -22.3771  -44.3989 C.2       9 UNK         0.5000 
     26 O           1.3732  -23.5579  -44.4497 O.2       9 UNK        -0.5000 
     27 CA          1.8134  -21.6737  -43.0346 C.3       9 UNK         0.1400 
     28 CB          3.2631  -21.6565  -42.5283 C.3       9 UNK        -0.1800 
     29 N           1.2917  -20.3078  -43.0896 N.am      9 UNK        -0.5000 
     30 C          -0.0088  -20.0083  -43.2262 C.2       8 UNK         0.5000 
     31 O          -0.9015  -20.8549  -43.2757 O.2       8 UNK        -0.5000 
     32 CA         -0.3662  -18.5191  -43.3960 C.3       8 UNK         0.1400 
     33 CB         -0.5383  -17.8389  -42.0314 C.3       8 UNK        -0.1800 
     34 N           0.6261  -17.7884  -44.1867 N.am      8 UNK        -0.5000 
     35 C           0.8829  -18.0395  -45.4783 C.2       7 UNK         0.5000 
     36 O           0.2553  -18.8640  -46.1397 O.2       7 UNK        -0.5000 
     37 CA          2.0401  -17.2781  -46.1440 C.3       7 UNK         0.1400 
     38 CB          1.4983  -16.1470  -47.0274 C.3       7 UNK        -0.1800 
     39 N           3.0179  -16.7300  -45.2034 N.am      7 UNK        -0.5000 
     40 C           3.8393  -17.4615  -44.4380 C.2       6 UNK         0.5000 
     41 O           3.7795  -18.6898  -44.3666 O.2       6 UNK        -0.5000 
     42 CA          4.8848  -16.7042  -43.6038 C.3       6 UNK         0.1400 
     43 CB          6.1326  -16.4049  -44.4493 C.3       6 UNK        -0.1800 
     44 N           4.3525  -15.4487  -43.0703 N.am      6 UNK        -0.5000 
     45 C           4.4152  -15.0758  -41.7841 C.2       5 UNK         0.5000 
     46 O           4.9602  -15.7435  -40.9040 O.2       5 UNK        -0.5000 
     47 CA          3.7604  -13.7301  -41.4004 C.3       5 UNK         0.1400 
     48 CB          4.8184  -12.6174  -41.3462 C.3       5 UNK        -0.1800 
     49 N           2.6833  -13.3125  -42.3001 N.am      5 UNK        -0.5000 
     50 C           1.5379  -13.9800  -42.4902 C.2       4 UNK         0.5000 
     51 O           1.2275  -14.9893  -41.8581 O.2       4 UNK        -0.5000 
     52 CA          0.5919  -13.4707  -43.5958 C.3       4 UNK         0.1400 
     53 CB         -0.5754  -12.6858  -42.9784 C.3       4 UNK        -0.1800 
     54 N           1.1946  -12.6608  -44.6669 N.am      4 UNK        -0.5000 
     55 C           2.2507  -12.9922  -45.4205 C.2       3 UNK         0.5000 
     56 O           2.9712  -13.9668  -45.1959 O.2       3 UNK        -0.5000 
     57 CA          2.5032  -12.1304  -46.6649 C.3       3 UNK         0.1400 
     58 CB          3.9764  -12.2430  -47.1232 C.3       3 UNK        -0.1800 
     59 N           1.5785  -12.5772  -47.7101 N.am      3 UNK        -0.5000 
     60 C           1.4778  -12.0730  -48.9481 C.2       2 UNK         0.5000 
     61 O           2.1058  -11.0903  -49.3439 O.2       2 UNK        -0.5000 
     62 CA          0.5143  -12.7845  -49.9196 C.3       2 UNK         0.1400 
     63 CB          1.1848  -14.0237  -50.5325 C.3       2 UNK        -0.1800 
     64 N          -0.7557  -13.1746  -49.3069 N.am      2 UNK        -0.5000 
     65 C          -1.6991  -12.3134  -48.8974 C.2       1 UNK         0.5000 
     66 O          -1.6025  -11.0923  -49.0292 O.2       1 UNK        -0.5000 
     67 C          -2.4898  -22.9049  -46.0928 C.2       11 UNK         0.5000 
     68 O          -3.2331  -23.6885  -46.6825 O.2       11 UNK        -0.5000 
     69 N          -2.0109  -23.1175  -44.8583 N.am      12 UNK        -0.5000 
     70 CA         -2.3045  -24.3036  -44.0524 C.3       12 UNK         0.1400 
     71 CB         -1.7196  -24.1273  -42.6432 C.3       12 UNK        -0.1800 
     72 C          -1.8071  -25.6121  -44.6957 C.2       12 UNK         0.5000 
     73 O          -2.5349  -26.6051  -44.6805 O.2       12 UNK        -0.5000 
     74 N          -0.5981  -25.5822  -45.2737 N.am      13 UNK        -0.5000 
     75 CA          0.0084  -26.7052  -45.9900 C.3       13 UNK         0.1400 
     76 CB          1.4873  -26.3961  -46.2691 C.3       13 UNK        -0.1800 
     77 C          -0.7313  -27.0575  -47.2946 C.2       13 UNK         0.5000 
     78 O          -0.9438  -28.2387  -47.5713 O.2       13 UNK        -0.5000 
     79 N          -1.1179  -26.0324  -48.0660 N.am      14 UNK        -0.5000 
     80 CA         -1.8491  -26.1728  -49.3276 C.3       14 UNK         0.1400 
     81 CB         -1.7104  -24.8672  -50.1289 C.3       14 UNK        -0.1800 
     82 C          -3.3408  -26.5105  -49.1440 C.2       14 UNK         0.5000 
     83 O          -3.9648  -26.9871  -50.0921 O.2       14 UNK        -0.5000 
     84 N          -3.8884  -26.2107  -47.9560 N.am      15 UNK        -0.5000 
     85 CA         -5.3176  -26.1393  -47.6294 C.3       15 UNK         0.1400 
     86 CB         -5.9928  -27.5233  -47.7221 C.3       15 UNK        -0.1800 
     87 C          -6.0129  -25.0510  -48.4756 C.2       15 UNK         0.5000 
     88 O          -7.0644  -25.2910  -49.0726 O.2       15 UNK        -0.5000 
     89 N          -5.3523  -23.8863  -48.5549 N.am      16 UNK        -0.5000 
     90 CA         -5.6192  -22.6981  -49.3746 C.3       16 UNK         0.1400 
     91 CB         -6.9784  -22.0623  -49.0295 C.3       16 UNK        -0.1800 
     92 C          -5.4831  -22.9204  -50.8917 C.2       16 UNK         0.5000 
     93 O          -4.8790  -22.0845  -51.5668 O.2       16 UNK        -0.5000 
     94 N          -6.0587  -24.0202  -51.3973 N.am      17 UNK        -0.5000 
     95 CA         -6.0913  -24.4554  -52.7973 C.3       17 UNK         0.1400 
     96 CB         -4.6987  -24.9547  -53.2314 C.3       17 UNK        -0.1800 
     97 C          -6.6955  -23.3889  -53.7372 C.2       17 UNK         0.5000 
     98 O          -6.1641  -23.1355  -54.8188 O.2       17 UNK        -0.5000 
     99 N          -7.7932  -22.7694  -53.2732 N.am      18 UNK        -0.5000 
    100 CA        -8.5111  -21.6478  -53.8921 C.3       18 UNK         0.1400 
    101 CB        -9.1470  -22.0673  -55.2349 C.3       18 UNK        -0.1800 
    102 C         -7.6476  -20.3705  -53.9955 C.2       18 UNK         0.5000 
    103 O         -7.7262  -19.6524  -54.9936 O.2       18 UNK        -0.5000 
    104 N         -6.8474  -20.1216  -52.9464 N.am      19 UNK        -0.5000 
    105 CA        -5.8676  -19.0407  -52.7976 C.3       19 UNK         0.1400 
    106 CB        -6.5538  -17.6588  -52.7638 C.3       19 UNK        -0.1800 
    107 C         -4.7517  -19.1496  -53.8542 C.2       19 UNK         0.5000 
    108 O         -4.6206  -18.2833  -54.7219 O.2       19 UNK        -0.5000 
    109 N         -3.9934  -20.2504  -53.7698 N.am      20 UNK        -0.5000 
    110 CA        -2.8587  -20.5707  -54.6385 C.3       20 UNK         0.1400 
    111 CB        -2.5949  -22.0853  -54.5547 C.3       20 UNK        -0.1800 
    112 C         -1.5993  -19.7286  -54.3247 C.2       20 UNK         0.5000 
    113 O         -1.6895  -18.6628  -53.7136 O.2       20 UNK        -0.5000 
    114 N         -0.4275  -20.2107  -54.7572 N.am      21 UNK        -0.5000 
    115 CA         0.8780  -19.5740  -54.5726 C.3       21 UNK         0.1400 
    116 CB         1.8582  -20.1593  -55.6057 C.3       21 UNK        -0.1800 
    117 C          1.3983  -19.6985  -53.1228 C.2       21 UNK         0.5000 
    118 O          2.4024  -20.3705  -52.8793 O.2       21 UNK        -0.5000 
    119 N          0.6981  -19.0533  -52.1828 N.am      22 UNK        -0.5000 
    120 CA         1.0781  -18.9487  -50.7644 C.3       22 UNK         0.1400 
    121 C          2.3004  -18.0224  -50.4828 C.2       22 UNK         0.5000 
    122 N          2.7170  -17.1665  -51.4085 N.am      22 UNK        -0.7600 
    123 O          2.8942  -18.0970  -49.4128 O.2       22 UNK        -0.5000 
    124 C124       -0.1360  -18.6001  -49.8617 C.3       23 UNK        -0.0398 
    125 S125       -0.9430  -17.0175  -50.3039 S.3       23 UNK        -0.2404 
    126 C126       -2.5655  -17.5649  -50.9202 C.3       23 UNK        -0.0205 
    127 H127       -1.6952  -16.7756  -47.0915 H         1 UNK         0.0600 
    128 H128       -3.1095  -16.3732  -46.1007 H         1 UNK         0.0600 
    129 H129       -1.4974  -16.2566  -45.4102 H         1 UNK         0.0600 
    130 H130       -3.4455  -14.9542  -48.1689 H         1 UNK         0.3000 
    131 H131       -3.1370  -12.2829  -47.3388 H         1 UNK         0.0600 
    132 H132       -4.3071  -11.6776  -49.4439 H         1 UNK         0.0800 
    133 H133       -4.0786  -13.2848  -50.0699 H         1 UNK         0.0800 
    134 H134       -7.3535  -14.8522  -49.0314 H         1 UNK         0.0800 
    135 H135       -6.3735  -14.3173  -50.3698 H         1 UNK         0.0800 
    136 H136       -4.3235  -15.5003  -50.9330 H         1 UNK         0.1150 
    137 H137       -3.2091  -18.9627  -48.6986 H         1 UNK         0.1150 
    138 H138       -6.3763  -16.4211  -47.2903 H         1 UNK         0.1150 
    139 H139       -4.5006  -18.1958  -45.7501 H         1 UNK         0.0800 
    140 H140       -6.0887  -18.6292  -46.3208 H         1 UNK         0.0800 
    141 H141       -2.6872  -20.2834  -45.2056 H         1 UNK         0.0800 
    142 H142       -2.3282  -19.4685  -46.6979 H         1 UNK         0.0800 
    143 H143       -2.2713  -21.7390  -47.8725 H         1 UNK         0.0600 
    144 H144       -0.2286  -20.6113  -46.3216 H         1 UNK         0.3000 
    145 H145        2.3416  -23.0377  -46.9594 H         1 UNK         0.0600 
    146 H146        2.3959  -21.4666  -48.8528 H         1 UNK         0.0600 
    147 H147        1.9005  -20.1331  -47.8193 H         1 UNK         0.0600 
    148 H148        3.4718  -20.8948  -47.5882 H         1 UNK         0.0600 
    149 H149        2.2412  -20.6642  -45.3507 H         1 UNK         0.3000 
    150 H150        1.2128  -22.2418  -42.3210 H         1 UNK         0.0600 
    151 H151        3.3330  -21.1871  -41.5470 H         1 UNK         0.0600 
    152 H152        3.9238  -21.1162  -43.2068 H         1 UNK         0.0600 
    153 H153        3.6524  -22.6708  -42.4322 H         1 UNK         0.0600 
    154 H154        1.9737  -19.5616  -43.1155 H         1 UNK         0.3000 
    155 H155       -1.3213  -18.4674  -43.9231 H         1 UNK         0.0600 
    156 H156        0.3985  -17.8104  -41.4735 H         1 UNK         0.0600 
    157 H157       -1.2708  -18.3675  -41.4200 H         1 UNK         0.0600 
    158 H158       -0.8913  -16.8138  -42.1459 H         1 UNK         0.0600 
    159 H159        1.1816  -17.0969  -43.7039 H         1 UNK         0.3000 
    160 H160        2.5653  -17.9886  -46.7838 H         1 UNK         0.0600 
    161 H161        0.8124  -16.5280  -47.7829 H         1 UNK         0.0600 
    162 H162        2.3054  -15.6357  -47.5523 H         1 UNK         0.0600 
    163 H163        0.9563  -15.4120  -46.4359 H         1 UNK         0.0600 
    164 H164        3.1121  -15.7165  -45.2123 H         1 UNK         0.3000 
    165 H165        5.1773  -17.3712  -42.7903 H         1 UNK         0.0600 
    166 H166        6.9132  -15.9414  -43.8460 H         1 UNK         0.0600 
    167 H167        6.5483  -17.3204  -44.8724 H         1 UNK         0.0600 
    168 H168        5.9052  -15.7317  -45.2771 H         1 UNK         0.0600 
    169 H169        3.8812  -14.8357  -43.7287 H         1 UNK         0.3000 
    170 H170        3.3340  -13.8474  -40.4020 H         1 UNK         0.0600 
    171 H171        4.3879  -11.6793  -40.9953 H         1 UNK         0.0600 
    172 H172        5.6262  -12.8787  -40.6613 H         1 UNK         0.0600 
    173 H173        5.2635  -12.4387  -42.3259 H         1 UNK         0.0600 
    174 H174        2.8605  -12.5025  -42.8754 H         1 UNK         0.3000 
    175 H175        0.1820  -14.3640  -44.0699 H         1 UNK         0.0600 
    176 H176       -0.2371  -11.7509  -42.5301 H         1 UNK         0.0600 
    177 H177       -1.0708  -13.2656  -42.1983 H         1 UNK         0.0600 
    178 H178       -1.3296  -12.4472  -43.7287 H         1 UNK         0.0600 
    179 H179        0.6516  -11.8581  -44.9501 H         1 UNK         0.3000 
    180 H180        2.2864  -11.0899  -46.4166 H         1 UNK         0.0600 
    181 H181        4.2181  -11.5185  -47.8998 H         1 UNK         0.0600 
    182 H182        4.2018  -13.2373  -47.5109 H         1 UNK         0.0600 
    183 H183        4.6592  -12.0520  -46.2942 H         1 UNK         0.0600 
    184 H184        0.9678  -13.3404  -47.4484 H         1 UNK         0.3000 
    185 H185        0.2942  -12.0886  -50.7320 H         1 UNK         0.0600 
    186 H186        1.3815  -14.7911  -49.7834 H         1 UNK         0.0600 
    187 H187        0.5600  -14.4666  -51.3082 H         1 UNK         0.0600 
    188 H188        2.1383  -13.7656  -50.9948 H         1 UNK         0.0600 
    189 H189       -0.9162  -14.1620  -49.1694 H         1 UNK         0.3000 
    190 H190       -1.4309  -22.4065  -44.4239 H         1 UNK         0.3000 
    191 H191       -3.3902  -24.3753  -43.9598 H         1 UNK         0.0600 
    192 H192       -0.6346  -24.0262  -42.6658 H         1 UNK         0.0600 
    193 H193       -1.9564  -24.9848  -42.0121 H         1 UNK         0.0600 
    194 H194       -2.1273  -23.2417  -42.1553 H         1 UNK         0.0600 
    195 H195       -0.0379  -24.7392  -45.1908 H         1 UNK         0.3000 
    196 H196       -0.0352  -27.5801  -45.3379 H         1 UNK         0.0600 
    197 H197        1.9703  -27.2274  -46.7840 H         1 UNK         0.0600 
    198 H198        2.0353  -26.2246  -45.3424 H         1 UNK         0.0600 
    199 H199        1.6030  -25.5102  -46.8939 H         1 UNK         0.0600 
    200 H200       -0.8525  -25.0874  -47.7992 H         1 UNK         0.3000 
    201 H201       -1.3952  -26.9797  -49.9066 H         1 UNK         0.0600 
    202 H202       -0.6642  -24.6372  -50.3311 H         1 UNK         0.0600 
    203 H203       -2.1416  -24.0203  -49.5929 H         1 UNK         0.0600 
    204 H204       -2.2195  -24.9390  -51.0910 H         1 UNK         0.0600 
    205 H205       -3.2783  -25.7774  -47.2734 H         1 UNK         0.3000 
    206 H206       -5.3787  -25.8103  -46.5910 H         1 UNK         0.0600 
    207 H207       -7.0170  -27.4792  -47.3502 H         1 UNK         0.0600 
    208 H208       -6.0363  -27.8916  -48.7472 H         1 UNK         0.0600 
    209 H209       -5.4602  -28.2611  -47.1222 H         1 UNK         0.0600 
    210 H210       -4.5092  -23.8198  -47.9873 H         1 UNK         0.3000 
    211 H211       -4.8415  -21.9826  -49.1083 H         1 UNK         0.0600 
    212 H212       -7.8141  -22.7068  -49.3025 H         1 UNK         0.0600 
    213 H213       -7.1087  -21.1156  -49.5554 H         1 UNK         0.0600 
    214 H214       -7.0536  -21.8518  -47.9628 H         1 UNK         0.0600 
    215 H215       -6.5347  -24.6257  -50.7321 H         1 UNK         0.3000 
    216 H216       -6.7701  -25.3082  -52.8409 H         1 UNK         0.0600 
    217 H217       -4.6958  -25.2766  -54.2733 H         1 UNK         0.0600 
    218 H218       -4.3890  -25.8090  -52.6297 H         1 UNK         0.0600 
    219 H219       -3.9392  -24.1835  -53.1178 H         1 UNK         0.0600 
    220 H220       -8.1442  -23.0650  -52.3729 H         1 UNK         0.3000 
    221 H221       -9.3277  -21.4000  -53.2125 H         1 UNK         0.0600 
    222 H222       -8.3943  -22.2632  -55.9989 H         1 UNK         0.0600 
    223 H223       -9.7519  -22.9667  -55.1210 H         1 UNK         0.0600 
    224 H224       -9.8019  -21.2837  -55.6175 H         1 UNK         0.0600 
    225 H225       -6.8164  -20.8209  -52.2189 H         1 UNK         0.3000 
    226 H226       -5.3907  -19.1854  -51.8264 H         1 UNK         0.0600 
    227 H227       -7.2807  -17.6007  -51.9537 H         1 UNK         0.0600 
    228 H228       -5.8213  -16.8683  -52.5991 H         1 UNK         0.0600 
    229 H229       -7.0696  -17.4311  -53.6966 H         1 UNK         0.0600 
    230 H230       -4.1957  -20.9162  -53.0296 H         1 UNK         0.3000 
    231 H231       -3.1438  -20.3380  -55.6663 H         1 UNK         0.0600 
    232 H232       -2.2802  -22.3836  -53.5536 H         1 UNK         0.0600 
    233 H233       -3.4953  -22.6441  -54.8065 H         1 UNK         0.0600 
    234 H234       -1.8277  -22.4082  -55.2587 H         1 UNK         0.0600 
    235 H235       -0.4201  -21.1040  -55.2270 H         1 UNK         0.3000 
    236 H236        0.7767  -18.5078  -54.7866 H         1 UNK         0.0600 
    237 H237        1.9918  -21.2337  -55.4728 H         1 UNK         0.0600 
    238 H238        1.5065  -19.9887  -56.6234 H         1 UNK         0.0600 
    239 H239        2.8404  -19.6923  -55.5216 H         1 UNK         0.0600 
    240 H240       -0.1462  -18.5648  -52.4656 H         1 UNK         0.3000 
    241 H241        1.4052  -19.9445  -50.4619 H         1 UNK         0.0600 
    242 H242        3.5164  -16.5851  -51.2165 H         1 UNK         0.3800 
    243 H243        2.2348  -17.0859  -52.2881 H         1 UNK         0.3800 
    244 H244       -0.8624  -19.4118  -49.9031 H         1 UNK         0.0800 
    245 H245        0.1674  -18.5515  -48.8158 H         1 UNK         0.0800 
    246 H246       -2.7714  -17.0458  -51.8575 H         1 UNK         0.0800 
    247 H247       -2.5630  -18.6280  -51.1627 H         1 UNK         0.0800 
@<TRIPOS>BOND
     1    1    2 1    
     2    1  127 1    
     3    1  128 1    
     4    1  129 1    
     5    2    3 2    
     6    2    4 am   BACKBONE|DICT|INTERRES
     7    4    5 1    
     8    4  130 1    
     9    5    6 1    
    10    5   65 1    
    11    5  131 1    
    12    6    7 1    
    13    6  132 1    
    14    6  133 1    
    15    7    8 1    
    16    8    9 1    
    17    8  134 1    
    18    8  135 1    
    19    9   10 ar   
    20    9   14 ar   
    21   10   11 ar   
    22   10  136 1    
    23   11   12 ar   
    24   11  126 1    
    25   12   13 ar   
    26   12  137 1    
    27   13   14 ar   
    28   13   15 1    
    29   14  138 1    
    30   15   16 1    
    31   15  139 1    
    32   15  140 1    
    33   16   17 1    
    34   17   18 1    
    35   17  141 1    
    36   17  142 1    
    37   18   19 1    
    38   18   67 1    
    39   18  143 1    
    40   19   20 am   BACKBONE|DICT|INTERRES
    41   19  144 1    
    42   20   21 2    
    43   20   22 1    
    44   22   23 1    
    45   22   24 1    
    46   22  145 1    
    47   23  146 1    
    48   23  147 1    
    49   23  148 1    
    50   24   25 am   BACKBONE|DICT|INTERRES
    51   24  149 1    
    52   25   26 2    
    53   25   27 1    
    54   27   28 1    
    55   27   29 1    
    56   27  150 1    
    57   28  151 1    
    58   28  152 1    
    59   28  153 1    
    60   29   30 am   BACKBONE|DICT|INTERRES
    61   29  154 1    
    62   30   31 2    
    63   30   32 1    
    64   32   33 1    
    65   32   34 1    
    66   32  155 1    
    67   33  156 1    
    68   33  157 1    
    69   33  158 1    
    70   34   35 am   BACKBONE|DICT|INTERRES
    71   34  159 1    
    72   35   36 2    
    73   35   37 1    
    74   37   38 1    
    75   37   39 1    
    76   37  160 1    
    77   38  161 1    
    78   38  162 1    
    79   38  163 1    
    80   39   40 am   BACKBONE|DICT|INTERRES
    81   39  164 1    
    82   40   41 2    
    83   40   42 1    
    84   42   43 1    
    85   42   44 1    
    86   42  165 1    
    87   43  166 1    
    88   43  167 1    
    89   43  168 1    
    90   44   45 am   BACKBONE|DICT|INTERRES
    91   44  169 1    
    92   45   46 2    
    93   45   47 1    
    94   47   48 1    
    95   47   49 1    
    96   47  170 1    
    97   48  171 1    
    98   48  172 1    
    99   48  173 1    
   100   49   50 am   BACKBONE|DICT|INTERRES
   101   49  174 1    
   102   50   51 2    
   103   50   52 1    
   104   52   53 1    
   105   52   54 1    
   106   52  175 1    
   107   53  176 1    
   108   53  177 1    
   109   53  178 1    
   110   54   55 am   BACKBONE|DICT|INTERRES
   111   54  179 1    
   112   55   56 2    
   113   55   57 1    
   114   57   58 1    
   115   57   59 1    
   116   57  180 1    
   117   58  181 1    
   118   58  182 1    
   119   58  183 1    
   120   59   60 am   BACKBONE|DICT|INTERRES
   121   59  184 1    
   122   60   61 2    
   123   60   62 1    
   124   62   63 1    
   125   62   64 1    
   126   62  185 1    
   127   63  186 1    
   128   63  187 1    
   129   63  188 1    
   130   64   65 am   BACKBONE|DICT|INTERRES
   131   64  189 1    
   132   65   66 2    
   133   67   68 2    
   134   67   69 am   BACKBONE|DICT|INTERRES
   135   69   70 1    
   136   69  190 1    
   137   70   71 1    
   138   70   72 1    
   139   70  191 1    
   140   71  192 1    
   141   71  193 1    
   142   71  194 1    
   143   72   73 2    
   144   72   74 am   BACKBONE|DICT|INTERRES
   145   74   75 1    
   146   74  195 1    
   147   75   76 1    
   148   75   77 1    
   149   75  196 1    
   150   76  197 1    
   151   76  198 1    
   152   76  199 1    
   153   77   78 2    
   154   77   79 am   BACKBONE|DICT|INTERRES
   155   79   80 1    
   156   79  200 1    
   157   80   81 1    
   158   80   82 1    
   159   80  201 1    
   160   81  202 1    
   161   81  203 1    
   162   81  204 1    
   163   82   83 2    
   164   82   84 am   BACKBONE|DICT|INTERRES
   165   84   85 1    
   166   84  205 1    
   167   85   86 1    
   168   85   87 1    
   169   85  206 1    
   170   86  207 1    
   171   86  208 1    
   172   86  209 1    
   173   87   88 2    
   174   87   89 am   BACKBONE|DICT|INTERRES
   175   89   90 1    
   176   89  210 1    
   177   90   91 1    
   178   90   92 1    
   179   90  211 1    
   180   91  212 1    
   181   91  213 1    
   182   91  214 1    
   183   92   93 2    
   184   92   94 am   BACKBONE|DICT|INTERRES
   185   94   95 1    
   186   94  215 1    
   187   95   96 1    
   188   95   97 1    
   189   95  216 1    
   190   96  217 1    
   191   96  218 1    
   192   96  219 1    
   193   97   98 2    
   194   97   99 am   BACKBONE|DICT|INTERRES
   195   99  100 1    
   196   99  220 1    
   197  100  101 1    
   198  100  102 1    
   199  100  221 1    
   200  101  222 1    
   201  101  223 1    
   202  101  224 1    
   203  102  103 2    
   204  102  104 am   BACKBONE|DICT|INTERRES
   205  104  105 1    
   206  104  225 1    
   207  105  106 1    
   208  105  107 1    
   209  105  226 1    
   210  106  227 1    
   211  106  228 1    
   212  106  229 1    
   213  107  108 2    
   214  107  109 am   BACKBONE|DICT|INTERRES
   215  109  110 1    
   216  109  230 1    
   217  110  111 1    
   218  110  112 1    
   219  110  231 1    
   220  111  232 1    
   221  111  233 1    
   222  111  234 1    
   223  112  113 2    
   224  112  114 am   BACKBONE|DICT|INTERRES
   225  114  115 1    
   226  114  235 1    
   227  115  116 1    
   228  115  117 1    
   229  115  236 1    
   230  116  237 1    
   231  116  238 1    
   232  116  239 1    
   233  117  118 2    
   234  117  119 am   BACKBONE|DICT|INTERRES
   235  119  120 1    
   236  119  240 1    
   237  120  121 1    
   238  120  124 1    
   239  120  241 1    
   240  121  122 am   BACKBONE|DICT|INTERRES
   241  121  123 2    
   242  122  242 1    
   243  122  243 1    
   244  124  125 1    
   245  124  244 1    
   246  124  245 1    
   247  125  126 1    
   248  126  246 1    
   249  126  247 1    
@<TRIPOS>SUBSTRUCTURE
     1 UNK         1 GROUP             0       ****    0 ROOT    
