@<TRIPOS>MOLECULE
3R540
247   249    1
SMALL
USER_CHARGES


@<TRIPOS>ATOM
      1 CA          2.7856  -14.9665  -52.0139 C.3       0 UNK        -0.1800 
      2 C           3.5790  -14.0173  -51.1285 C.2       0 UNK         0.5000 
      3 O           4.2638  -13.1277  -51.6349 O.2       0 UNK        -0.5000 
      4 N           3.4938  -14.2122  -49.8079 N.am      1 UNK        -0.5000 
      5 CA          4.1425  -13.3825  -48.7886 C.3       1 UNK         0.1400 
      6 C6          4.0682  -14.0296  -47.3842 C.3       23 UNK        -0.0398 
      7 S7          5.0037  -15.5933  -47.2890 S.3       23 UNK        -0.2404 
      8 C8          3.6957  -16.8049  -46.9262 C.3       23 UNK        -0.0205 
      9 C9          2.8713  -17.1477  -48.1578 C.ar      23 UNK        -0.0193 
     10 C10         1.6161  -16.5667  -48.3561 C.ar      23 UNK        -0.1150 
     11 C11         0.8554  -16.8911  -49.4826 C.ar      23 UNK        -0.0193 
     12 C12         1.3502  -17.8159  -50.4069 C.ar      23 UNK        -0.1150 
     13 C13         2.6000  -18.4108  -50.2154 C.ar      23 UNK        -0.0193 
     14 C14         3.3591  -18.0650  -49.0928 C.ar      23 UNK        -0.1150 
     15 C15         3.1324  -19.4244  -51.2205 C.3       23 UNK        -0.0205 
     16 S16         2.3419  -21.0608  -51.0560 S.3       23 UNK        -0.2404 
     17 C17         2.7832  -21.5021  -49.3380 C.3       23 UNK        -0.0398 
     18 CA          2.1631  -22.8064  -48.7677 C.3       11 UNK         0.1400 
     19 N           2.5450  -22.9320  -47.3565 N.am      11 UNK        -0.5000 
     20 C           2.2215  -23.9179  -46.5089 C.2       10 UNK         0.5000 
     21 O           1.5921  -24.9266  -46.8235 O.2       10 UNK        -0.5000 
     22 CA          2.6167  -23.6868  -45.0365 C.3       10 UNK         0.1400 
     23 CB          4.0512  -24.1710  -44.7791 C.3       10 UNK        -0.1800 
     24 N           2.4919  -22.2831  -44.6191 N.am      10 UNK        -0.5000 
     25 C           1.3427  -21.5931  -44.6222 C.2       9 UNK         0.5000 
     26 O           0.2704  -22.0655  -45.0005 O.2       9 UNK        -0.5000 
     27 CA          1.4087  -20.1144  -44.2090 C.3       9 UNK         0.1400 
     28 CB          1.4675  -19.2238  -45.4594 C.3       9 UNK        -0.1800 
     29 N           0.2401  -19.7454  -43.4119 N.am      9 UNK        -0.5000 
     30 C           0.0656  -20.0976  -42.1289 C.2       8 UNK         0.5000 
     31 O           0.9204  -20.6876  -41.4663 O.2       8 UNK        -0.5000 
     32 CA         -1.2761  -19.7327  -41.4596 C.3       8 UNK         0.1400 
     33 CB         -1.1334  -18.4361  -40.6485 C.3       8 UNK        -0.1800 
     34 N          -2.3716  -19.5808  -42.4164 N.am      8 UNK        -0.5000 
     35 C          -2.9402  -20.5924  -43.0874 C.2       7 UNK         0.5000 
     36 O          -2.6943  -21.7759  -42.8560 O.2       7 UNK        -0.5000 
     37 CA         -3.9486  -20.2435  -44.2058 C.3       7 UNK         0.1400 
     38 CB         -5.3594  -20.7297  -43.8382 C.3       7 UNK        -0.1800 
     39 N          -4.0289  -18.8262  -44.5821 N.am      7 UNK        -0.5000 
     40 C          -3.0312  -18.0661  -45.0547 C.2       6 UNK         0.5000 
     41 O          -1.8706  -18.4650  -45.1638 O.2       6 UNK        -0.5000 
     42 CA         -3.3755  -16.6150  -45.4545 C.3       6 UNK         0.1400 
     43 CB         -4.7051  -16.0909  -44.8678 C.3       6 UNK        -0.1800 
     44 N          -2.2761  -15.7004  -45.1460 N.am      6 UNK        -0.5000 
     45 C          -1.7253  -15.4529  -43.9516 C.2       5 UNK         0.5000 
     46 O          -2.1666  -15.8966  -42.8906 O.2       5 UNK        -0.5000 
     47 CA         -0.4579  -14.5716  -43.9266 C.3       5 UNK         0.1400 
     48 CB          0.7955  -15.4265  -44.1926 C.3       5 UNK        -0.1800 
     49 N          -0.4768  -13.3896  -44.8025 N.am      5 UNK        -0.5000 
     50 C          -0.5468  -13.3150  -46.1387 C.2       4 UNK         0.5000 
     51 O          -0.6616  -14.2913  -46.8758 O.2       4 UNK        -0.5000 
     52 CA         -0.4511  -11.9165  -46.7695 C.3       4 UNK         0.1400 
     53 CB         -1.7492  -11.1089  -46.5774 C.3       4 UNK        -0.1800 
     54 N           0.7408  -11.1752  -46.3444 N.am      4 UNK        -0.5000 
     55 C           1.0270  -10.6365  -45.1489 C.2       3 UNK         0.5000 
     56 O           0.2534  -10.6631  -44.1904 O.2       3 UNK        -0.5000 
     57 CA          2.4231   -9.9992  -44.9668 C.3       3 UNK         0.1400 
     58 CB          3.1956  -10.7084  -43.8418 C.3       3 UNK        -0.1800 
     59 N           3.2447  -10.0343  -46.1789 N.am      3 UNK        -0.5000 
     60 C           3.1225   -9.2114  -47.2293 C.2       2 UNK         0.5000 
     61 O           2.3444   -8.2581  -47.2642 O.2       2 UNK        -0.5000 
     62 CA          3.9916   -9.5348  -48.4627 C.3       2 UNK         0.1400 
     63 CB          5.2589   -8.6665  -48.4690 C.3       2 UNK        -0.1800 
     64 N           4.3793  -10.9486  -48.5619 N.am      2 UNK        -0.5000 
     65 C           3.5283  -11.9681  -48.7477 C.2       1 UNK         0.5000 
     66 O           2.3056  -11.8286  -48.8248 O.2       1 UNK        -0.5000 
     67 C           0.6285  -22.8565  -48.9608 C.2       11 UNK         0.5000 
     68 O           0.1434  -23.5038  -49.8886 O.2       11 UNK        -0.5000 
     69 N          -0.0953  -22.1740  -48.0674 N.am      12 UNK        -0.5000 
     70 CA         -1.5462  -22.0479  -48.0863 C.3       12 UNK         0.1400 
     71 CB         -1.8933  -20.7208  -47.4073 C.3       12 UNK        -0.1800 
     72 C          -2.2380  -23.2244  -47.3773 C.2       12 UNK         0.5000 
     73 O          -3.3086  -23.6495  -47.8110 O.2       12 UNK        -0.5000 
     74 N          -1.6246  -23.7268  -46.2980 N.am      13 UNK        -0.5000 
     75 CA         -2.1128  -24.8592  -45.5137 C.3       13 UNK         0.1400 
     76 CB         -1.2956  -24.9734  -44.2188 C.3       13 UNK        -0.1800 
     77 C          -2.0736  -26.1861  -46.2915 C.2       13 UNK         0.5000 
     78 O          -3.0011  -26.9868  -46.1592 O.2       13 UNK        -0.5000 
     79 N          -1.0146  -26.3882  -47.0916 N.am      14 UNK        -0.5000 
     80 CA         -0.7922  -27.5573  -47.9447 C.3       14 UNK         0.1400 
     81 CB          0.5196  -27.3773  -48.7249 C.3       14 UNK        -0.1800 
     82 C          -1.9699  -27.8059  -48.9035 C.2       14 UNK         0.5000 
     83 O          -2.2179  -26.9866  -49.7889 O.2       14 UNK        -0.5000 
     84 N          -2.7040  -28.9018  -48.6607 N.am      15 UNK        -0.5000 
     85 CA         -3.9159  -29.3366  -49.3693 C.3       15 UNK         0.1400 
     86 CB         -3.5663  -29.7668  -50.8095 C.3       15 UNK        -0.1800 
     87 C          -5.0789  -28.3165  -49.3293 C.2       15 UNK         0.5000 
     88 O          -5.9751  -28.3898  -50.1719 O.2       15 UNK        -0.5000 
     89 N          -5.0416  -27.3832  -48.3631 N.am      16 UNK        -0.5000 
     90 CA         -5.9363  -26.2309  -48.2083 C.3       16 UNK         0.1400 
     91 CB         -7.3445  -26.6872  -47.7744 C.3       16 UNK        -0.1800 
     92 C          -5.9511  -25.3096  -49.4498 C.2       16 UNK         0.5000 
     93 O          -7.0057  -24.8011  -49.8353 O.2       16 UNK        -0.5000 
     94 N          -4.7715  -25.1112  -50.0564 N.am      17 UNK        -0.5000 
     95 CA         -4.5494  -24.2984  -51.2542 C.3       17 UNK         0.1400 
     96 CB         -3.1134  -24.5239  -51.7501 C.3       17 UNK        -0.1800 
     97 C          -4.8153  -22.7902  -51.0812 C.2       17 UNK         0.5000 
     98 O          -4.8880  -22.0927  -52.0918 O.2       17 UNK        -0.5000 
     99 N          -4.9523  -22.3144  -49.8336 N.am      18 UNK        -0.5000 
    100 CA        -5.1492  -20.9256  -49.3964 C.3       18 UNK         0.1400 
    101 CB        -5.6484  -20.9316  -47.9408 C.3       18 UNK        -0.1800 
    102 C         -6.0981  -20.0724  -50.2579 C.2       18 UNK         0.5000 
    103 O         -5.7824  -18.9152  -50.5370 O.2       18 UNK        -0.5000 
    104 N         -7.2164  -20.6663  -50.6947 N.am      19 UNK        -0.5000 
    105 CA        -8.2260  -20.0358  -51.5487 C.3       19 UNK         0.1400 
    106 CB        -9.4246  -20.9871  -51.6834 C.3       19 UNK        -0.1800 
    107 C         -7.7098  -19.6205  -52.9426 C.2       19 UNK         0.5000 
    108 O         -8.2487  -18.6774  -53.5230 O.2       19 UNK        -0.5000 
    109 N         -6.6843  -20.3183  -53.4464 N.am      20 UNK        -0.5000 
    110 CA        -6.0128  -20.0279  -54.7117 C.3       20 UNK         0.1400 
    111 CB        -5.8717  -21.3325  -55.5120 C.3       20 UNK        -0.1800 
    112 C         -4.6317  -19.3922  -54.4789 C.2       20 UNK         0.5000 
    113 O         -4.2417  -18.5049  -55.2385 O.2       20 UNK        -0.5000 
    114 N         -3.9127  -19.8607  -53.4484 N.am      21 UNK        -0.5000 
    115 CA        -2.5595  -19.4263  -53.1024 C.3       21 UNK         0.1400 
    116 CB        -1.9585  -20.3883  -52.0633 C.3       21 UNK        -0.1800 
    117 C         -2.4991  -17.9778  -52.5911 C.2       21 UNK         0.5000 
    118 O         -1.5787  -17.2505  -52.9667 O.2       21 UNK        -0.5000 
    119 N         -3.4698  -17.5936  -51.7529 N.am      22 UNK        -0.5000 
    120 CA        -3.5548  -16.2687  -51.1186 C.3       22 UNK         0.1400 
    121 C         -4.8988  -15.5573  -51.4247 C.2       22 UNK         0.5000 
    122 N         -6.0153  -16.2709  -51.5011 N.am      22 UNK        -0.7600 
    123 O         -4.9289  -14.3431  -51.6046 O.2       22 UNK        -0.5000 
    124 C124       -3.3148  -16.3240  -49.5842 C.3       23 UNK        -0.0398 
    125 S125       -1.8419  -17.2731  -49.0703 S.3       23 UNK        -0.2404 
    126 C126       -0.4953  -16.2359  -49.7124 C.3       23 UNK        -0.0205 
    127 H127        3.2524  -15.9514  -52.0273 H         1 UNK         0.0600 
    128 H128        2.7414  -14.5953  -53.0379 H         1 UNK         0.0600 
    129 H129        1.7636  -15.0706  -51.6502 H         1 UNK         0.0600 
    130 H130        2.9259  -14.9709  -49.4568 H         1 UNK         0.3000 
    131 H131        5.1947  -13.2864  -49.0657 H         1 UNK         0.0600 
    132 H132        4.4950  -13.3632  -46.6324 H         1 UNK         0.0800 
    133 H133        3.0304  -14.1906  -47.0866 H         1 UNK         0.0800 
    134 H134        3.0605  -16.4311  -46.1223 H         1 UNK         0.0800 
    135 H135        4.1620  -17.7135  -46.5429 H         1 UNK         0.0800 
    136 H136        1.2281  -15.8628  -47.6346 H         1 UNK         0.1150 
    137 H137        0.7590  -18.0751  -51.2745 H         1 UNK         0.1150 
    138 H138        4.3289  -18.5173  -48.9391 H         1 UNK         0.1150 
    139 H139        2.9625  -19.0513  -52.2314 H         1 UNK         0.0800 
    140 H140        4.2127  -19.5367  -51.1163 H         1 UNK         0.0800 
    141 H141        2.4889  -20.6689  -48.6989 H         1 UNK         0.0800 
    142 H142        3.8711  -21.5582  -49.2786 H         1 UNK         0.0800 
    143 H143        2.5889  -23.6574  -49.3028 H         1 UNK         0.0600 
    144 H144        3.0698  -22.1596  -46.9747 H         1 UNK         0.3000 
    145 H145        1.9426  -24.2792  -44.4155 H         1 UNK         0.0600 
    146 H146        4.3102  -24.0932  -43.7230 H         1 UNK         0.0600 
    147 H147        4.1664  -25.2178  -45.0639 H         1 UNK         0.0600 
    148 H148        4.7812  -23.5937  -45.3479 H         1 UNK         0.0600 
    149 H149        3.3368  -21.8314  -44.2996 H         1 UNK         0.3000 
    150 H150        2.3103  -19.9444  -43.6168 H         1 UNK         0.0600 
    151 H151        2.3364  -19.4632  -46.0729 H         1 UNK         0.0600 
    152 H152        1.5398  -18.1723  -45.1868 H         1 UNK         0.0600 
    153 H153        0.5826  -19.3421  -46.0860 H         1 UNK         0.0600 
    154 H154       -0.5258  -19.3069  -43.9146 H         1 UNK         0.3000 
    155 H155       -1.5333  -20.5393  -40.7700 H         1 UNK         0.0600 
    156 H156       -0.8368  -17.5982  -41.2801 H         1 UNK         0.0600 
    157 H157       -0.3748  -18.5440  -39.8723 H         1 UNK         0.0600 
    158 H158       -2.0686  -18.1714  -40.1548 H         1 UNK         0.0600 
    159 H159       -2.6152  -18.6357  -42.6779 H         1 UNK         0.3000 
    160 H160       -3.6296  -20.7972  -45.0892 H         1 UNK         0.0600 
    161 H161       -5.7541  -20.1962  -42.9727 H         1 UNK         0.0600 
    162 H162       -5.3587  -21.7934  -43.5964 H         1 UNK         0.0600 
    163 H163       -6.0540  -20.5902  -44.6669 H         1 UNK         0.0600 
    164 H164       -4.9399  -18.4010  -44.4914 H         1 UNK         0.3000 
    165 H165       -3.4703  -16.6158  -46.5402 H         1 UNK         0.0600 
    166 H166       -4.7228  -16.1472  -43.7788 H         1 UNK         0.0600 
    167 H167       -4.8685  -15.0497  -45.1463 H         1 UNK         0.0600 
    168 H168       -5.5574  -16.6559  -45.2466 H         1 UNK         0.0600 
    169 H169       -1.7835  -15.3161  -45.9505 H         1 UNK         0.3000 
    170 H170       -0.3750  -14.1791  -42.9119 H         1 UNK         0.0600 
    171 H171        0.8632  -16.2512  -43.4817 H         1 UNK         0.0600 
    172 H172        0.7797  -15.8612  -45.1920 H         1 UNK         0.0600 
    173 H173        1.7064  -14.8358  -44.0967 H         1 UNK         0.0600 
    174 H174       -0.3858  -12.4991  -44.3210 H         1 UNK         0.3000 
    175 H175       -0.3265  -12.0686  -47.8429 H         1 UNK         0.0600 
    176 H176       -1.9834  -10.9431  -45.5258 H         1 UNK         0.0600 
    177 H177       -1.6821  -10.1358  -47.0638 H         1 UNK         0.0600 
    178 H178       -2.5977  -11.6344  -47.0171 H         1 UNK         0.0600 
    179 H179        1.4595  -11.1298  -47.0578 H         1 UNK         0.3000 
    180 H180        2.2699   -8.9583  -44.6747 H         1 UNK         0.0600 
    181 H181        3.3601  -11.7626  -44.0691 H         1 UNK         0.0600 
    182 H182        2.6515  -10.6577  -42.8977 H         1 UNK         0.0600 
    183 H183        4.1680  -10.2439  -43.6768 H         1 UNK         0.0600 
    184 H184        3.9256  -10.7762  -46.2375 H         1 UNK         0.3000 
    185 H185        3.4031   -9.2874  -49.3487 H         1 UNK         0.0600 
    186 H186        5.8397   -8.8220  -49.3784 H         1 UNK         0.0600 
    187 H187        5.0066   -7.6061  -48.4245 H         1 UNK         0.0600 
    188 H188        5.9024   -8.8868  -47.6163 H         1 UNK         0.0600 
    189 H189        5.3695  -11.1410  -48.5052 H         1 UNK         0.3000 
    190 H190        0.3765  -21.7353  -47.2900 H         1 UNK         0.3000 
    191 H191       -1.8967  -22.0131  -49.1202 H         1 UNK         0.0600 
    192 H192       -2.9578  -20.5085  -47.4387 H         1 UNK         0.0600 
    193 H193       -1.3827  -19.8884  -47.8894 H         1 UNK         0.0600 
    194 H194       -1.5923  -20.7276  -46.3605 H         1 UNK         0.0600 
    195 H195       -0.7954  -23.2548  -45.9461 H         1 UNK         0.3000 
    196 H196       -3.1517  -24.6570  -45.2450 H         1 UNK         0.0600 
    197 H197       -0.2485  -25.1953  -44.4243 H         1 UNK         0.0600 
    198 H198       -1.3349  -24.0486  -43.6430 H         1 UNK         0.0600 
    199 H199       -1.6821  -25.7704  -43.5825 H         1 UNK         0.0600 
    200 H200       -0.2878  -25.6805  -47.1149 H         1 UNK         0.3000 
    201 H201       -0.6789  -28.4249  -47.2919 H         1 UNK         0.0600 
    202 H202        0.5126  -26.4597  -49.3154 H         1 UNK         0.0600 
    203 H203        0.6867  -28.2095  -49.4099 H         1 UNK         0.0600 
    204 H204        1.3758  -27.3359  -48.0518 H         1 UNK         0.0600 
    205 H205       -2.4409  -29.4800  -47.8745 H         1 UNK         0.3000 
    206 H206       -4.2761  -30.2196  -48.8398 H         1 UNK         0.0600 
    207 H207       -2.7523  -30.4916  -50.8184 H         1 UNK         0.0600 
    208 H208       -4.4204  -30.2366  -51.2986 H         1 UNK         0.0600 
    209 H209       -3.2657  -28.9168  -51.4230 H         1 UNK         0.0600 
    210 H210       -4.2660  -27.4133  -47.7084 H         1 UNK         0.3000 
    211 H211       -5.5195  -25.6326  -47.3966 H         1 UNK         0.0600 
    212 H212       -7.9750  -25.8310  -47.5317 H         1 UNK         0.0600 
    213 H213       -7.2980  -27.3164  -46.8856 H         1 UNK         0.0600 
    214 H214       -7.8481  -27.2516  -48.5596 H         1 UNK         0.0600 
    215 H215       -3.9521  -25.5754  -49.6814 H         1 UNK         0.3000 
    216 H216       -5.2351  -24.6535  -52.0257 H         1 UNK         0.0600 
    217 H217       -2.3803  -24.2446  -50.9918 H         1 UNK         0.0600 
    218 H218       -2.9040  -23.9343  -52.6437 H         1 UNK         0.0600 
    219 H219       -2.9463  -25.5695  -52.0088 H         1 UNK         0.0600 
    220 H220       -4.7869  -22.9815  -49.0879 H         1 UNK         0.3000 
    221 H221       -4.1714  -20.4447  -49.4262 H         1 UNK         0.0600 
    222 H222       -5.0031  -21.5214  -47.2910 H         1 UNK         0.0600 
    223 H223       -6.6525  -21.3506  -47.8639 H         1 UNK         0.0600 
    224 H224       -5.6821  -19.9197  -47.5344 H         1 UNK         0.0600 
    225 H225       -7.3758  -21.6303  -50.4384 H         1 UNK         0.3000 
    226 H226       -8.5646  -19.1283  -51.0447 H         1 UNK         0.0600 
    227 H227       -9.1384  -21.9289  -52.1536 H         1 UNK         0.0600 
    228 H228       -9.8590  -21.2156  -50.7099 H         1 UNK         0.0600 
    229 H229      -10.2120  -20.5413  -52.2926 H         1 UNK         0.0600 
    230 H230       -6.2714  -21.0541  -52.8809 H         1 UNK         0.3000 
    231 H231       -6.6035  -19.3298  -55.3083 H         1 UNK         0.0600 
    232 H232       -5.2890  -22.0785  -54.9697 H         1 UNK         0.0600 
    233 H233       -5.3730  -21.1543  -56.4655 H         1 UNK         0.0600 
    234 H234       -6.8477  -21.7657  -55.7312 H         1 UNK         0.0600 
    235 H235       -4.2924  -20.6302  -52.9017 H         1 UNK         0.3000 
    236 H236       -1.9500  -19.4847  -54.0065 H         1 UNK         0.0600 
    237 H237       -1.9347  -21.4121  -52.4367 H         1 UNK         0.0600 
    238 H238       -0.9330  -20.1084  -51.8173 H         1 UNK         0.0600 
    239 H239       -2.5273  -20.3840  -51.1340 H         1 UNK         0.0600 
    240 H240       -4.2070  -18.2448  -51.5094 H         1 UNK         0.3000 
    241 H241       -2.7870  -15.6190  -51.5409 H         1 UNK         0.0600 
    242 H242       -6.8851  -15.8094  -51.7130 H         1 UNK         0.3800 
    243 H243       -6.0128  -17.2593  -51.2630 H         1 UNK         0.3800 
    244 H244       -4.1727  -16.7836  -49.0898 H         1 UNK         0.0800 
    245 H245       -3.2335  -15.3154  -49.1749 H         1 UNK         0.0800 
    246 H246       -0.6317  -16.0673  -50.7799 H         1 UNK         0.0800 
    247 H247       -0.5293  -15.2529  -49.2438 H         1 UNK         0.0800 
@<TRIPOS>BOND
     1    1    2 1    
     2    1  127 1    
     3    1  128 1    
     4    1  129 1    
     5    2    3 2    
     6    2    4 am   BACKBONE|DICT|INTERRES
     7    4    5 1    
     8    4  130 1    
     9    5    6 1    
    10    5   65 1    
    11    5  131 1    
    12    6    7 1    
    13    6  132 1    
    14    6  133 1    
    15    7    8 1    
    16    8    9 1    
    17    8  134 1    
    18    8  135 1    
    19    9   10 ar   
    20    9   14 ar   
    21   10   11 ar   
    22   10  136 1    
    23   11   12 ar   
    24   11  126 1    
    25   12   13 ar   
    26   12  137 1    
    27   13   14 ar   
    28   13   15 1    
    29   14  138 1    
    30   15   16 1    
    31   15  139 1    
    32   15  140 1    
    33   16   17 1    
    34   17   18 1    
    35   17  141 1    
    36   17  142 1    
    37   18   19 1    
    38   18   67 1    
    39   18  143 1    
    40   19   20 am   BACKBONE|DICT|INTERRES
    41   19  144 1    
    42   20   21 2    
    43   20   22 1    
    44   22   23 1    
    45   22   24 1    
    46   22  145 1    
    47   23  146 1    
    48   23  147 1    
    49   23  148 1    
    50   24   25 am   BACKBONE|DICT|INTERRES
    51   24  149 1    
    52   25   26 2    
    53   25   27 1    
    54   27   28 1    
    55   27   29 1    
    56   27  150 1    
    57   28  151 1    
    58   28  152 1    
    59   28  153 1    
    60   29   30 am   BACKBONE|DICT|INTERRES
    61   29  154 1    
    62   30   31 2    
    63   30   32 1    
    64   32   33 1    
    65   32   34 1    
    66   32  155 1    
    67   33  156 1    
    68   33  157 1    
    69   33  158 1    
    70   34   35 am   BACKBONE|DICT|INTERRES
    71   34  159 1    
    72   35   36 2    
    73   35   37 1    
    74   37   38 1    
    75   37   39 1    
    76   37  160 1    
    77   38  161 1    
    78   38  162 1    
    79   38  163 1    
    80   39   40 am   BACKBONE|DICT|INTERRES
    81   39  164 1    
    82   40   41 2    
    83   40   42 1    
    84   42   43 1    
    85   42   44 1    
    86   42  165 1    
    87   43  166 1    
    88   43  167 1    
    89   43  168 1    
    90   44   45 am   BACKBONE|DICT|INTERRES
    91   44  169 1    
    92   45   46 2    
    93   45   47 1    
    94   47   48 1    
    95   47   49 1    
    96   47  170 1    
    97   48  171 1    
    98   48  172 1    
    99   48  173 1    
   100   49   50 am   BACKBONE|DICT|INTERRES
   101   49  174 1    
   102   50   51 2    
   103   50   52 1    
   104   52   53 1    
   105   52   54 1    
   106   52  175 1    
   107   53  176 1    
   108   53  177 1    
   109   53  178 1    
   110   54   55 am   BACKBONE|DICT|INTERRES
   111   54  179 1    
   112   55   56 2    
   113   55   57 1    
   114   57   58 1    
   115   57   59 1    
   116   57  180 1    
   117   58  181 1    
   118   58  182 1    
   119   58  183 1    
   120   59   60 am   BACKBONE|DICT|INTERRES
   121   59  184 1    
   122   60   61 2    
   123   60   62 1    
   124   62   63 1    
   125   62   64 1    
   126   62  185 1    
   127   63  186 1    
   128   63  187 1    
   129   63  188 1    
   130   64   65 am   BACKBONE|DICT|INTERRES
   131   64  189 1    
   132   65   66 2    
   133   67   68 2    
   134   67   69 am   BACKBONE|DICT|INTERRES
   135   69   70 1    
   136   69  190 1    
   137   70   71 1    
   138   70   72 1    
   139   70  191 1    
   140   71  192 1    
   141   71  193 1    
   142   71  194 1    
   143   72   73 2    
   144   72   74 am   BACKBONE|DICT|INTERRES
   145   74   75 1    
   146   74  195 1    
   147   75   76 1    
   148   75   77 1    
   149   75  196 1    
   150   76  197 1    
   151   76  198 1    
   152   76  199 1    
   153   77   78 2    
   154   77   79 am   BACKBONE|DICT|INTERRES
   155   79   80 1    
   156   79  200 1    
   157   80   81 1    
   158   80   82 1    
   159   80  201 1    
   160   81  202 1    
   161   81  203 1    
   162   81  204 1    
   163   82   83 2    
   164   82   84 am   BACKBONE|DICT|INTERRES
   165   84   85 1    
   166   84  205 1    
   167   85   86 1    
   168   85   87 1    
   169   85  206 1    
   170   86  207 1    
   171   86  208 1    
   172   86  209 1    
   173   87   88 2    
   174   87   89 am   BACKBONE|DICT|INTERRES
   175   89   90 1    
   176   89  210 1    
   177   90   91 1    
   178   90   92 1    
   179   90  211 1    
   180   91  212 1    
   181   91  213 1    
   182   91  214 1    
   183   92   93 2    
   184   92   94 am   BACKBONE|DICT|INTERRES
   185   94   95 1    
   186   94  215 1    
   187   95   96 1    
   188   95   97 1    
   189   95  216 1    
   190   96  217 1    
   191   96  218 1    
   192   96  219 1    
   193   97   98 2    
   194   97   99 am   BACKBONE|DICT|INTERRES
   195   99  100 1    
   196   99  220 1    
   197  100  101 1    
   198  100  102 1    
   199  100  221 1    
   200  101  222 1    
   201  101  223 1    
   202  101  224 1    
   203  102  103 2    
   204  102  104 am   BACKBONE|DICT|INTERRES
   205  104  105 1    
   206  104  225 1    
   207  105  106 1    
   208  105  107 1    
   209  105  226 1    
   210  106  227 1    
   211  106  228 1    
   212  106  229 1    
   213  107  108 2    
   214  107  109 am   BACKBONE|DICT|INTERRES
   215  109  110 1    
   216  109  230 1    
   217  110  111 1    
   218  110  112 1    
   219  110  231 1    
   220  111  232 1    
   221  111  233 1    
   222  111  234 1    
   223  112  113 2    
   224  112  114 am   BACKBONE|DICT|INTERRES
   225  114  115 1    
   226  114  235 1    
   227  115  116 1    
   228  115  117 1    
   229  115  236 1    
   230  116  237 1    
   231  116  238 1    
   232  116  239 1    
   233  117  118 2    
   234  117  119 am   BACKBONE|DICT|INTERRES
   235  119  120 1    
   236  119  240 1    
   237  120  121 1    
   238  120  124 1    
   239  120  241 1    
   240  121  122 am   BACKBONE|DICT|INTERRES
   241  121  123 2    
   242  122  242 1    
   243  122  243 1    
   244  124  125 1    
   245  124  244 1    
   246  124  245 1    
   247  125  126 1    
   248  126  246 1    
   249  126  247 1    
@<TRIPOS>SUBSTRUCTURE
     1 UNK         1 GROUP             0       ****    0 ROOT    
