@<TRIPOS>MOLECULE
3R540
247   249    1
SMALL
USER_CHARGES


@<TRIPOS>ATOM
      1 CA          4.1110  -15.0186  -48.9653 C.3       0 UNK        -0.1800 
      2 C           2.8981  -15.3373  -48.1033 C.2       0 UNK         0.5000 
      3 O           2.5963  -16.5089  -47.8822 O.2       0 UNK        -0.5000 
      4 N           2.2120  -14.3018  -47.6131 N.am      1 UNK        -0.5000 
      5 CA          1.0470  -14.3889  -46.7361 C.3       1 UNK         0.1400 
      6 C6         -0.2107  -14.9940  -47.4284 C.3       23 UNK        -0.0398 
      7 S7         -0.8810  -13.9812  -48.7911 S.3       23 UNK        -0.2404 
      8 C8         -2.0572  -15.1489  -49.5447 C.3       23 UNK        -0.0205 
      9 C9         -1.3621  -16.2153  -50.3793 C.ar      23 UNK        -0.0193 
     10 C10        -0.6356  -15.8445  -51.5145 C.ar      23 UNK        -0.1150 
     11 C11        -0.0243  -16.8105  -52.3169 C.ar      23 UNK        -0.0193 
     12 C12        -0.1450  -18.1598  -51.9779 C.ar      23 UNK        -0.1150 
     13 C13        -0.8777  -18.5459  -50.8515 C.ar      23 UNK        -0.0193 
     14 C14        -1.4769  -17.5699  -50.0484 C.ar      23 UNK        -0.1150 
     15 C15        -1.0593  -20.0229  -50.5466 C.3       23 UNK        -0.0205 
     16 S16         0.4117  -20.7507  -49.7711 S.3       23 UNK        -0.2404 
     17 C17         0.0762  -20.4921  -47.9987 C.3       23 UNK        -0.0398 
     18 CA         -0.1172  -21.8321  -47.2371 C.3       11 UNK         0.1400 
     19 N           0.5400  -21.8164  -45.9255 N.am      11 UNK        -0.5000 
     20 C           0.7606  -22.9015  -45.1703 C.2       10 UNK         0.5000 
     21 O           0.4247  -24.0389  -45.4980 O.2       10 UNK        -0.5000 
     22 CA          1.4324  -22.6776  -43.8029 C.3       10 UNK         0.1400 
     23 CB          2.9469  -22.4765  -43.9595 C.3       10 UNK        -0.1800 
     24 N           0.8553  -21.5535  -43.0648 N.am      10 UNK        -0.5000 
     25 C          -0.4115  -21.5117  -42.6280 C.2       9 UNK         0.5000 
     26 O          -1.2162  -22.4293  -42.7785 O.2       9 UNK        -0.5000 
     27 CA         -0.8784  -20.2114  -41.9529 C.3       9 UNK         0.1400 
     28 CB         -0.3990  -20.1478  -40.4953 C.3       9 UNK        -0.1800 
     29 N          -0.4402  -19.0151  -42.6687 N.am      9 UNK        -0.5000 
     30 C          -0.7744  -18.7120  -43.9316 C.2       8 UNK         0.5000 
     31 O          -1.5164  -19.3971  -44.6352 O.2       8 UNK        -0.5000 
     32 CA         -0.1186  -17.4544  -44.5245 C.3       8 UNK         0.1400 
     33 CB         -0.7709  -16.1880  -43.9424 C.3       8 UNK        -0.1800 
     34 N           1.3274  -17.4265  -44.2956 N.am      8 UNK        -0.5000 
     35 C           2.1902  -18.3674  -44.7109 C.2       7 UNK         0.5000 
     36 O           1.8658  -19.3531  -45.3699 O.2       7 UNK        -0.5000 
     37 CA          3.6488  -18.2283  -44.2458 C.3       7 UNK         0.1400 
     38 CB          4.4306  -17.2545  -45.1386 C.3       7 UNK        -0.1800 
     39 N           3.7259  -17.8008  -42.8502 N.am      7 UNK        -0.5000 
     40 C           3.3842  -18.5722  -41.8080 C.2       6 UNK         0.5000 
     41 O           3.0153  -19.7423  -41.9135 O.2       6 UNK        -0.5000 
     42 CA          3.4195  -17.9057  -40.4207 C.3       6 UNK         0.1400 
     43 CB          4.8433  -17.9228  -39.8450 C.3       6 UNK        -0.1800 
     44 N           2.9230  -16.5286  -40.4529 N.am      6 UNK        -0.5000 
     45 C           1.6495  -16.1955  -40.7052 C.2       5 UNK         0.5000 
     46 O           0.7539  -17.0194  -40.8888 O.2       5 UNK        -0.5000 
     47 CA          1.3319  -14.6928  -40.8153 C.3       5 UNK         0.1400 
     48 CB          0.9938  -14.1078  -39.4367 C.3       5 UNK        -0.1800 
     49 N           2.4028  -13.9010  -41.4265 N.am      5 UNK        -0.5000 
     50 C           2.8667  -14.0655  -42.6719 C.2       4 UNK         0.5000 
     51 O           2.4877  -14.9634  -43.4246 O.2       4 UNK        -0.5000 
     52 CA          3.8780  -13.0145  -43.1635 C.3       4 UNK         0.1400 
     53 CB          4.6168  -13.4493  -44.4414 C.3       4 UNK        -0.1800 
     54 N           3.1643  -11.7681  -43.4236 N.am      4 UNK        -0.5000 
     55 C           2.8669  -10.8515  -42.4919 C.2       3 UNK         0.5000 
     56 O           3.2962  -10.8907  -41.3377 O.2       3 UNK        -0.5000 
     57 CA          1.8846   -9.7356  -42.8979 C.3       3 UNK         0.1400 
     58 CB          2.6459   -8.5106  -43.4260 C.3       3 UNK        -0.1800 
     59 N           0.9119  -10.1675  -43.9039 N.am      3 UNK        -0.5000 
     60 C          -0.0155  -11.1190  -43.7249 C.2       2 UNK         0.5000 
     61 O          -0.2051  -11.7007  -42.6560 O.2       2 UNK        -0.5000 
     62 CA         -0.8609  -11.5129  -44.9512 C.3       2 UNK         0.1400 
     63 CB         -0.9800  -10.3974  -46.0142 C.3       2 UNK        -0.1800 
     64 N          -0.3893  -12.7599  -45.5626 N.am      2 UNK        -0.5000 
     65 C           0.8245  -13.0063  -46.0812 C.2       1 UNK         0.5000 
     66 O           1.7506  -12.1885  -46.0668 O.2       1 UNK        -0.5000 
     67 C          -1.6030  -22.2490  -47.1399 C.2       11 UNK         0.5000 
     68 O          -2.0991  -22.9641  -48.0138 O.2       11 UNK        -0.5000 
     69 N          -2.2757  -21.8355  -46.0560 N.am      12 UNK        -0.5000 
     70 CA         -3.6293  -22.2615  -45.7068 C.3       12 UNK         0.1400 
     71 CB         -4.1956  -21.3524  -44.6065 C.3       12 UNK        -0.1800 
     72 C          -3.6909  -23.7418  -45.2915 C.2       12 UNK         0.5000 
     73 O          -4.5532  -24.4664  -45.7870 O.2       12 UNK        -0.5000 
     74 N          -2.7630  -24.1797  -44.4272 N.am      13 UNK        -0.5000 
     75 CA         -2.6455  -25.5640  -43.9532 C.3       13 UNK         0.1400 
     76 CB         -1.5901  -25.6428  -42.8401 C.3       13 UNK        -0.1800 
     77 C          -2.3224  -26.5684  -45.0753 C.2       13 UNK         0.5000 
     78 O          -2.8213  -27.6938  -45.0483 O.2       13 UNK        -0.5000 
     79 N          -1.5319  -26.1283  -46.0627 N.am      14 UNK        -0.5000 
     80 CA         -1.2269  -26.8614  -47.2927 C.3       14 UNK         0.1400 
     81 CB         -0.0176  -26.1952  -47.9696 C.3       14 UNK        -0.1800 
     82 C          -2.4115  -26.9390  -48.2801 C.2       14 UNK         0.5000 
     83 O          -2.3193  -27.6759  -49.2621 O.2       14 UNK        -0.5000 
     84 N          -3.4758  -26.1590  -48.0294 N.am      15 UNK        -0.5000 
     85 CA         -4.6739  -25.9628  -48.8552 C.3       15 UNK         0.1400 
     86 CB         -5.4471  -27.2821  -49.0549 C.3       15 UNK        -0.1800 
     87 C          -4.3965  -25.2319  -50.1851 C.2       15 UNK         0.5000 
     88 O          -5.2711  -25.1831  -51.0505 O.2       15 UNK        -0.5000 
     89 N          -3.2062  -24.6320  -50.3166 N.am      16 UNK        -0.5000 
     90 CA         -2.7820  -23.8608  -51.4821 C.3       16 UNK         0.1400 
     91 CB         -1.2584  -23.6869  -51.4407 C.3       16 UNK        -0.1800 
     92 C          -3.4979  -22.5033  -51.5741 C.2       16 UNK         0.5000 
     93 O          -3.6657  -21.9810  -52.6738 O.2       16 UNK        -0.5000 
     94 N          -3.9547  -21.9704  -50.4325 N.am      17 UNK        -0.5000 
     95 CA         -4.7653  -20.7510  -50.3540 C.3       17 UNK         0.1400 
     96 CB         -4.8727  -20.3201  -48.8830 C.3       17 UNK        -0.1800 
     97 C          -6.1713  -20.9050  -50.9754 C.2       17 UNK         0.5000 
     98 O          -6.8019  -19.8976  -51.2961 O.2       17 UNK        -0.5000 
     99 N          -6.6366  -22.1526  -51.1312 N.am      18 UNK        -0.5000 
    100 CA        -7.9220  -22.5063  -51.7336 C.3       18 UNK         0.1400 
    101 CB        -8.5153  -23.6906  -50.9512 C.3       18 UNK        -0.1800 
    102 C         -7.8078  -22.8416  -53.2359 C.2       18 UNK         0.5000 
    103 O         -8.8264  -23.1600  -53.8525 O.2       18 UNK        -0.5000 
    104 N         -6.5937  -22.7907  -53.8051 N.am      19 UNK        -0.5000 
    105 CA        -6.3302  -23.0571  -55.2205 C.3       19 UNK         0.1400 
    106 CB        -4.8182  -23.2485  -55.4207 C.3       19 UNK        -0.1800 
    107 C         -6.8561  -21.9386  -56.1424 C.2       19 UNK         0.5000 
    108 O         -7.0953  -20.8158  -55.6922 O.2       19 UNK        -0.5000 
    109 N         -6.9932  -22.2655  -57.4343 N.am      20 UNK        -0.5000 
    110 CA        -7.4246  -21.3414  -58.4888 C.3       20 UNK         0.1400 
    111 CB        -7.8590  -22.1592  -59.7155 C.3       20 UNK        -0.1800 
    112 C         -6.3496  -20.3064  -58.8839 C.2       20 UNK         0.5000 
    113 O         -6.6904  -19.2802  -59.4748 O.2       20 UNK        -0.5000 
    114 N         -5.0813  -20.5972  -58.5640 N.am      21 UNK        -0.5000 
    115 CA        -3.9330  -19.7089  -58.7373 C.3       21 UNK         0.1400 
    116 CB        -2.6976  -20.5687  -59.0757 C.3       21 UNK        -0.1800 
    117 C         -3.7559  -18.8221  -57.4838 C.2       21 UNK         0.5000 
    118 O         -4.7389  -18.2716  -56.9838 O.2       21 UNK        -0.5000 
    119 N         -2.5161  -18.6867  -56.9940 N.am      22 UNK        -0.5000 
    120 CA        -2.1943  -18.0011  -55.7296 C.3       22 UNK         0.1400 
    121 C         -2.7065  -18.7770  -54.4807 C.2       22 UNK         0.5000 
    122 N         -2.6122  -20.1021  -54.4788 N.am      22 UNK        -0.7600 
    123 O         -3.2226  -18.1826  -53.5397 O.2       22 UNK        -0.5000 
    124 C124       -0.6756  -17.6812  -55.6333 C.3       23 UNK        -0.0398 
    125 S125       -0.3328  -16.0207  -54.9568 S.3       23 UNK        -0.2404 
    126 C126        0.7611  -16.3873  -53.5474 C.3       23 UNK        -0.0205 
    127 H127        5.0089  -15.4478  -48.5207 H         1 UNK         0.0600 
    128 H128        4.2630  -13.9441  -49.0701 H         1 UNK         0.0600 
    129 H129        3.9845  -15.4437  -49.9610 H         1 UNK         0.0600 
    130 H130        2.5236  -13.3523  -47.7749 H         1 UNK         0.3000 
    131 H131        1.3312  -15.0545  -45.9205 H         1 UNK         0.0600 
    132 H132       -1.0076  -15.1635  -46.7045 H         1 UNK         0.0800 
    133 H133        0.0269  -15.9830  -47.8212 H         1 UNK         0.0800 
    134 H134       -2.6747  -15.5982  -48.7654 H         1 UNK         0.0800 
    135 H135       -2.7378  -14.5913  -50.1896 H         1 UNK         0.0800 
    136 H136       -0.5533  -14.7995  -51.7787 H         1 UNK         0.1150 
    137 H137        0.3142  -18.9150  -52.6000 H         1 UNK         0.1150 
    138 H138       -2.0522  -17.8663  -49.1828 H         1 UNK         0.1150 
    139 H139       -1.9283  -20.1839  -49.9108 H         1 UNK         0.0800 
    140 H140       -1.2597  -20.5501  -51.4800 H         1 UNK         0.0800 
    141 H141        0.9517  -19.9631  -47.6252 H         1 UNK         0.0800 
    142 H142       -0.7582  -19.8051  -47.8462 H         1 UNK         0.0800 
    143 H143        0.3840  -22.6216  -47.8017 H         1 UNK         0.0600 
    144 H144        0.8817  -20.9149  -45.5987 H         1 UNK         0.3000 
    145 H145        1.2749  -23.5791  -43.2073 H         1 UNK         0.0600 
    146 H146        3.4354  -22.3939  -42.9884 H         1 UNK         0.0600 
    147 H147        3.4003  -23.3200  -44.4815 H         1 UNK         0.0600 
    148 H148        3.1795  -21.5758  -44.5274 H         1 UNK         0.0600 
    149 H149        1.4680  -20.7679  -42.8750 H         1 UNK         0.3000 
    150 H150       -1.9703  -20.2130  -41.9514 H         1 UNK         0.0600 
    151 H151       -0.7254  -21.0265  -39.9376 H         1 UNK         0.0600 
    152 H152       -0.8015  -19.2715  -39.9869 H         1 UNK         0.0600 
    153 H153        0.6883  -20.1009  -40.4297 H         1 UNK         0.0600 
    154 H154        0.1488  -18.3688  -42.1509 H         1 UNK         0.3000 
    155 H155       -0.2761  -17.4646  -45.6046 H         1 UNK         0.0600 
    156 H156       -0.8099  -16.2125  -42.8541 H         1 UNK         0.0600 
    157 H157       -1.7970  -16.0862  -44.2969 H         1 UNK         0.0600 
    158 H158       -0.2338  -15.2848  -44.2220 H         1 UNK         0.0600 
    159 H159        1.6993  -16.6260  -43.7912 H         1 UNK         0.3000 
    160 H160        4.1230  -19.2088  -44.3251 H         1 UNK         0.0600 
    161 H161        3.9539  -16.2761  -45.1867 H         1 UNK         0.0600 
    162 H162        4.4899  -17.6343  -46.1591 H         1 UNK         0.0600 
    163 H163        5.4517  -17.1181  -44.7827 H         1 UNK         0.0600 
    164 H164        3.9551  -16.8323  -42.6847 H         1 UNK         0.3000 
    165 H165        2.7754  -18.4856  -39.7561 H         1 UNK         0.0600 
    166 H166        5.5333  -17.3376  -40.4542 H         1 UNK         0.0600 
    167 H167        4.8637  -17.5192  -38.8325 H         1 UNK         0.0600 
    168 H168        5.2312  -18.9411  -39.7957 H         1 UNK         0.0600 
    169 H169        3.5968  -15.7906  -40.3111 H         1 UNK         0.3000 
    170 H170        0.4500  -14.5904  -41.4508 H         1 UNK         0.0600 
    171 H171        0.1823  -14.6634  -38.9646 H         1 UNK         0.0600 
    172 H172        1.8511  -14.1407  -38.7633 H         1 UNK         0.0600 
    173 H173        0.6702  -13.0698  -39.5194 H         1 UNK         0.0600 
    174 H174        2.7336  -13.1035  -40.8988 H         1 UNK         0.3000 
    175 H175        4.6246  -12.8631  -42.3811 H         1 UNK         0.0600 
    176 H176        5.1961  -14.3557  -44.2644 H         1 UNK         0.0600 
    177 H177        3.9299  -13.6521  -45.2633 H         1 UNK         0.0600 
    178 H178        5.3136  -12.6797  -44.7734 H         1 UNK         0.0600 
    179 H179        2.7208  -11.6939  -44.3339 H         1 UNK         0.3000 
    180 H180        1.3333   -9.4390  -42.0033 H         1 UNK         0.0600 
    181 H181        1.9657   -7.6875  -43.6457 H         1 UNK         0.0600 
    182 H182        3.3639   -8.1496  -42.6884 H         1 UNK         0.0600 
    183 H183        3.1992   -8.7427  -44.3370 H         1 UNK         0.0600 
    184 H184        1.0148   -9.7746  -44.8284 H         1 UNK         0.3000 
    185 H185       -1.8660  -11.7119  -44.5763 H         1 UNK         0.0600 
    186 H186       -1.6873  -10.6816  -46.7935 H         1 UNK         0.0600 
    187 H187       -1.3467   -9.4708  -45.5707 H         1 UNK         0.0600 
    188 H188       -0.0298  -10.1789  -46.5019 H         1 UNK         0.0600 
    189 H189       -1.0837  -13.4905  -45.6069 H         1 UNK         0.3000 
    190 H190       -1.8221  -21.1957  -45.4105 H         1 UNK         0.3000 
    191 H191       -4.2570  -22.1461  -46.5911 H         1 UNK         0.0600 
    192 H192       -5.2114  -21.6468  -44.3401 H         1 UNK         0.0600 
    193 H193       -4.2334  -20.3143  -44.9371 H         1 UNK         0.0600 
    194 H194       -3.5926  -21.3912  -43.6992 H         1 UNK         0.0600 
    195 H195       -2.1106  -23.5113  -44.0238 H         1 UNK         0.3000 
    196 H196       -3.6092  -25.8492  -43.5265 H         1 UNK         0.0600 
    197 H197       -1.4899  -26.6624  -42.4660 H         1 UNK         0.0600 
    198 H198       -1.8625  -25.0124  -41.9937 H         1 UNK         0.0600 
    199 H199       -0.6092  -25.3239  -43.1938 H         1 UNK         0.0600 
    200 H200       -1.0910  -25.2189  -45.9577 H         1 UNK         0.3000 
    201 H201       -0.9534  -27.8844  -47.0269 H         1 UNK         0.0600 
    202 H202       -0.2315  -25.1621  -48.2466 H         1 UNK         0.0600 
    203 H203        0.2690  -26.7265  -48.8780 H         1 UNK         0.0600 
    204 H204        0.8505  -26.1913  -47.3101 H         1 UNK         0.0600 
    205 H205       -3.4575  -25.5984  -47.1852 H         1 UNK         0.3000 
    206 H206       -5.3193  -25.2945  -48.2841 H         1 UNK         0.0600 
    207 H207       -5.6295  -27.7800  -48.1025 H         1 UNK         0.0600 
    208 H208       -6.4187  -27.0984  -49.5150 H         1 UNK         0.0600 
    209 H209       -4.9097  -27.9764  -49.7010 H         1 UNK         0.0600 
    210 H210       -2.5755  -24.6410  -49.5259 H         1 UNK         0.3000 
    211 H211       -3.0357  -24.4242  -52.3826 H         1 UNK         0.0600 
    212 H212       -0.9356  -23.2205  -50.5108 H         1 UNK         0.0600 
    213 H213       -0.9083  -23.0641  -52.2650 H         1 UNK         0.0600 
    214 H214       -0.7523  -24.6490  -51.5210 H         1 UNK         0.0600 
    215 H215       -3.7332  -22.4399  -49.5638 H         1 UNK         0.3000 
    216 H216       -4.2476  -19.9640  -50.9072 H         1 UNK         0.0600 
    217 H217       -5.3820  -19.3595  -48.7965 H         1 UNK         0.0600 
    218 H218       -3.8906  -20.2079  -48.4235 H         1 UNK         0.0600 
    219 H219       -5.4406  -21.0432  -48.2973 H         1 UNK         0.0600 
    220 H220       -6.0442  -22.9285  -50.8679 H         1 UNK         0.3000 
    221 H221       -8.6146  -21.6670  -51.6443 H         1 UNK         0.0600 
    222 H222       -7.8995  -24.5854  -51.0445 H         1 UNK         0.0600 
    223 H223       -8.6087  -23.4562  -49.8907 H         1 UNK         0.0600 
    224 H224       -9.5125  -23.9410  -51.3151 H         1 UNK         0.0600 
    225 H225       -5.8071  -22.4743  -53.2536 H         1 UNK         0.3000 
    226 H226       -6.8342  -23.9885  -55.4875 H         1 UNK         0.0600 
    227 H227       -4.4190  -23.9993  -54.7383 H         1 UNK         0.0600 
    228 H228       -4.5933  -23.5817  -56.4343 H         1 UNK         0.0600 
    229 H229       -4.2726  -22.3196  -55.2548 H         1 UNK         0.0600 
    230 H230       -6.7800  -23.2085  -57.7272 H         1 UNK         0.3000 
    231 H231       -8.2925  -20.7867  -58.1256 H         1 UNK         0.0600 
    232 H232       -8.2198  -21.5074  -60.5124 H         1 UNK         0.0600 
    233 H233       -8.6701  -22.8439  -59.4668 H         1 UNK         0.0600 
    234 H234       -7.0340  -22.7465  -60.1206 H         1 UNK         0.0600 
    235 H235       -4.9120  -21.4528  -58.0579 H         1 UNK         0.3000 
    236 H236       -4.1132  -19.0387  -59.5802 H         1 UNK         0.0600 
    237 H237       -2.4262  -21.2335  -58.2544 H         1 UNK         0.0600 
    238 H238       -2.8856  -21.1894  -59.9521 H         1 UNK         0.0600 
    239 H239       -1.8317  -19.9488  -59.3109 H         1 UNK         0.0600 
    240 H240       -1.7565  -19.1612  -57.4590 H         1 UNK         0.3000 
    241 H241       -2.7386  -17.0545  -55.7520 H         1 UNK         0.0600 
    242 H242       -2.2025  -20.5890  -55.2573 H         1 UNK         0.3800 
    243 H243       -2.9965  -20.6412  -53.7066 H         1 UNK         0.3800 
    244 H244       -0.2242  -17.6900  -56.6263 H         1 UNK         0.0800 
    245 H245       -0.1367  -18.4459  -55.0714 H         1 UNK         0.0800 
    246 H246        1.3373  -15.4913  -53.3119 H         1 UNK         0.0800 
    247 H247        1.4912  -17.1486  -53.8265 H         1 UNK         0.0800 
@<TRIPOS>BOND
     1    1    2 1    
     2    1  127 1    
     3    1  128 1    
     4    1  129 1    
     5    2    3 2    
     6    2    4 am   BACKBONE|DICT|INTERRES
     7    4    5 1    
     8    4  130 1    
     9    5    6 1    
    10    5   65 1    
    11    5  131 1    
    12    6    7 1    
    13    6  132 1    
    14    6  133 1    
    15    7    8 1    
    16    8    9 1    
    17    8  134 1    
    18    8  135 1    
    19    9   10 ar   
    20    9   14 ar   
    21   10   11 ar   
    22   10  136 1    
    23   11   12 ar   
    24   11  126 1    
    25   12   13 ar   
    26   12  137 1    
    27   13   14 ar   
    28   13   15 1    
    29   14  138 1    
    30   15   16 1    
    31   15  139 1    
    32   15  140 1    
    33   16   17 1    
    34   17   18 1    
    35   17  141 1    
    36   17  142 1    
    37   18   19 1    
    38   18   67 1    
    39   18  143 1    
    40   19   20 am   BACKBONE|DICT|INTERRES
    41   19  144 1    
    42   20   21 2    
    43   20   22 1    
    44   22   23 1    
    45   22   24 1    
    46   22  145 1    
    47   23  146 1    
    48   23  147 1    
    49   23  148 1    
    50   24   25 am   BACKBONE|DICT|INTERRES
    51   24  149 1    
    52   25   26 2    
    53   25   27 1    
    54   27   28 1    
    55   27   29 1    
    56   27  150 1    
    57   28  151 1    
    58   28  152 1    
    59   28  153 1    
    60   29   30 am   BACKBONE|DICT|INTERRES
    61   29  154 1    
    62   30   31 2    
    63   30   32 1    
    64   32   33 1    
    65   32   34 1    
    66   32  155 1    
    67   33  156 1    
    68   33  157 1    
    69   33  158 1    
    70   34   35 am   BACKBONE|DICT|INTERRES
    71   34  159 1    
    72   35   36 2    
    73   35   37 1    
    74   37   38 1    
    75   37   39 1    
    76   37  160 1    
    77   38  161 1    
    78   38  162 1    
    79   38  163 1    
    80   39   40 am   BACKBONE|DICT|INTERRES
    81   39  164 1    
    82   40   41 2    
    83   40   42 1    
    84   42   43 1    
    85   42   44 1    
    86   42  165 1    
    87   43  166 1    
    88   43  167 1    
    89   43  168 1    
    90   44   45 am   BACKBONE|DICT|INTERRES
    91   44  169 1    
    92   45   46 2    
    93   45   47 1    
    94   47   48 1    
    95   47   49 1    
    96   47  170 1    
    97   48  171 1    
    98   48  172 1    
    99   48  173 1    
   100   49   50 am   BACKBONE|DICT|INTERRES
   101   49  174 1    
   102   50   51 2    
   103   50   52 1    
   104   52   53 1    
   105   52   54 1    
   106   52  175 1    
   107   53  176 1    
   108   53  177 1    
   109   53  178 1    
   110   54   55 am   BACKBONE|DICT|INTERRES
   111   54  179 1    
   112   55   56 2    
   113   55   57 1    
   114   57   58 1    
   115   57   59 1    
   116   57  180 1    
   117   58  181 1    
   118   58  182 1    
   119   58  183 1    
   120   59   60 am   BACKBONE|DICT|INTERRES
   121   59  184 1    
   122   60   61 2    
   123   60   62 1    
   124   62   63 1    
   125   62   64 1    
   126   62  185 1    
   127   63  186 1    
   128   63  187 1    
   129   63  188 1    
   130   64   65 am   BACKBONE|DICT|INTERRES
   131   64  189 1    
   132   65   66 2    
   133   67   68 2    
   134   67   69 am   BACKBONE|DICT|INTERRES
   135   69   70 1    
   136   69  190 1    
   137   70   71 1    
   138   70   72 1    
   139   70  191 1    
   140   71  192 1    
   141   71  193 1    
   142   71  194 1    
   143   72   73 2    
   144   72   74 am   BACKBONE|DICT|INTERRES
   145   74   75 1    
   146   74  195 1    
   147   75   76 1    
   148   75   77 1    
   149   75  196 1    
   150   76  197 1    
   151   76  198 1    
   152   76  199 1    
   153   77   78 2    
   154   77   79 am   BACKBONE|DICT|INTERRES
   155   79   80 1    
   156   79  200 1    
   157   80   81 1    
   158   80   82 1    
   159   80  201 1    
   160   81  202 1    
   161   81  203 1    
   162   81  204 1    
   163   82   83 2    
   164   82   84 am   BACKBONE|DICT|INTERRES
   165   84   85 1    
   166   84  205 1    
   167   85   86 1    
   168   85   87 1    
   169   85  206 1    
   170   86  207 1    
   171   86  208 1    
   172   86  209 1    
   173   87   88 2    
   174   87   89 am   BACKBONE|DICT|INTERRES
   175   89   90 1    
   176   89  210 1    
   177   90   91 1    
   178   90   92 1    
   179   90  211 1    
   180   91  212 1    
   181   91  213 1    
   182   91  214 1    
   183   92   93 2    
   184   92   94 am   BACKBONE|DICT|INTERRES
   185   94   95 1    
   186   94  215 1    
   187   95   96 1    
   188   95   97 1    
   189   95  216 1    
   190   96  217 1    
   191   96  218 1    
   192   96  219 1    
   193   97   98 2    
   194   97   99 am   BACKBONE|DICT|INTERRES
   195   99  100 1    
   196   99  220 1    
   197  100  101 1    
   198  100  102 1    
   199  100  221 1    
   200  101  222 1    
   201  101  223 1    
   202  101  224 1    
   203  102  103 2    
   204  102  104 am   BACKBONE|DICT|INTERRES
   205  104  105 1    
   206  104  225 1    
   207  105  106 1    
   208  105  107 1    
   209  105  226 1    
   210  106  227 1    
   211  106  228 1    
   212  106  229 1    
   213  107  108 2    
   214  107  109 am   BACKBONE|DICT|INTERRES
   215  109  110 1    
   216  109  230 1    
   217  110  111 1    
   218  110  112 1    
   219  110  231 1    
   220  111  232 1    
   221  111  233 1    
   222  111  234 1    
   223  112  113 2    
   224  112  114 am   BACKBONE|DICT|INTERRES
   225  114  115 1    
   226  114  235 1    
   227  115  116 1    
   228  115  117 1    
   229  115  236 1    
   230  116  237 1    
   231  116  238 1    
   232  116  239 1    
   233  117  118 2    
   234  117  119 am   BACKBONE|DICT|INTERRES
   235  119  120 1    
   236  119  240 1    
   237  120  121 1    
   238  120  124 1    
   239  120  241 1    
   240  121  122 am   BACKBONE|DICT|INTERRES
   241  121  123 2    
   242  122  242 1    
   243  122  243 1    
   244  124  125 1    
   245  124  244 1    
   246  124  245 1    
   247  125  126 1    
   248  126  246 1    
   249  126  247 1    
@<TRIPOS>SUBSTRUCTURE
     1 UNK         1 GROUP             0       ****    0 ROOT    
