@<TRIPOS>MOLECULE
3R540
247   249    1
SMALL
USER_CHARGES


@<TRIPOS>ATOM
      1 CA         -2.5632   -9.7832  -49.4906 C.3       0 UNK        -0.1800 
      2 C          -2.0806  -11.2119  -49.2861 C.2       0 UNK         0.5000 
      3 O          -2.9000  -12.1111  -49.0971 O.2       0 UNK        -0.5000 
      4 N          -0.7562  -11.4161  -49.3057 N.am      1 UNK        -0.5000 
      5 CA         -0.0221  -12.6855  -49.1674 C.3       1 UNK         0.1400 
      6 C6         -0.3893  -13.7608  -50.2214 C.3       23 UNK        -0.0398 
      7 S7         -0.1297  -13.2343  -51.9516 S.3       23 UNK        -0.2404 
      8 C8          1.6368  -13.6010  -52.2409 C.3       23 UNK        -0.0205 
      9 C9          2.0515  -14.9954  -51.7872 C.ar      23 UNK        -0.0193 
     10 C10         1.5188  -16.1337  -52.3980 C.ar      23 UNK        -0.1150 
     11 C11         1.8617  -17.4119  -51.9448 C.ar      23 UNK        -0.0193 
     12 C12         2.7794  -17.5463  -50.8965 C.ar      23 UNK        -0.1150 
     13 C13         3.3212  -16.4137  -50.2778 C.ar      23 UNK        -0.0193 
     14 C14         2.9520  -15.1438  -50.7295 C.ar      23 UNK        -0.1150 
     15 C15         4.3022  -16.5390  -49.1159 C.3       23 UNK        -0.0205 
     16 S16         3.6533  -17.4604  -47.6789 S.3       23 UNK        -0.2404 
     17 C17         1.9546  -16.8168  -47.4814 C.3       23 UNK        -0.0398 
     18 CA          0.9072  -17.9103  -47.7956 C.3       11 UNK         0.1400 
     19 N           1.0607  -19.1060  -46.9530 N.am      11 UNK        -0.5000 
     20 C           0.7113  -20.3418  -47.3326 C.2       10 UNK         0.5000 
     21 O           0.1688  -20.6013  -48.4057 O.2       10 UNK        -0.5000 
     22 CA          0.9479  -21.4686  -46.3120 C.3       10 UNK         0.1400 
     23 CB          2.4437  -21.8013  -46.2014 C.3       10 UNK        -0.1800 
     24 N           0.4139  -21.1931  -44.9747 N.am      10 UNK        -0.5000 
     25 C          -0.8527  -20.8641  -44.6789 C.2       9 UNK         0.5000 
     26 O          -1.7022  -20.6059  -45.5321 O.2       9 UNK        -0.5000 
     27 CA         -1.2303  -20.8147  -43.1835 C.3       9 UNK         0.1400 
     28 CB         -2.7237  -21.1161  -42.9400 C.3       9 UNK        -0.1800 
     29 N          -0.3761  -21.6588  -42.3381 N.am      9 UNK        -0.5000 
     30 C          -0.2865  -23.0003  -42.3419 C.2       8 UNK         0.5000 
     31 O          -0.9312  -23.7245  -43.1009 O.2       8 UNK        -0.5000 
     32 CA          0.7091  -23.6548  -41.3569 C.3       8 UNK         0.1400 
     33 CB          1.9000  -24.2521  -42.1243 C.3       8 UNK        -0.1800 
     34 N           1.2292  -22.7379  -40.3402 N.am      8 UNK        -0.5000 
     35 C           0.5360  -22.2469  -39.3031 C.2       7 UNK         0.5000 
     36 O          -0.6077  -22.6037  -39.0189 O.2       7 UNK        -0.5000 
     37 CA          1.2214  -21.1463  -38.4608 C.3       7 UNK         0.1400 
     38 CB          1.7598  -21.7351  -37.1478 C.3       7 UNK        -0.1800 
     39 N           2.3118  -20.4330  -39.1434 N.am      7 UNK        -0.5000 
     40 C           2.1964  -19.7454  -40.2883 C.2       6 UNK         0.5000 
     41 O           1.1368  -19.6548  -40.9148 O.2       6 UNK        -0.5000 
     42 CA          3.4879  -19.1154  -40.8518 C.3       6 UNK         0.1400 
     43 CB          4.5655  -20.1869  -41.0984 C.3       6 UNK        -0.1800 
     44 N           3.2163  -18.4457  -42.1223 N.am      6 UNK        -0.5000 
     45 C           2.7206  -17.2106  -42.2510 C.2       5 UNK         0.5000 
     46 O           2.6047  -16.4066  -41.3227 O.2       5 UNK        -0.5000 
     47 CA          2.2083  -16.8553  -43.6572 C.3       5 UNK         0.1400 
     48 CB          0.7121  -17.1888  -43.7733 C.3       5 UNK        -0.1800 
     49 N           2.4219  -15.4523  -44.0054 N.am      5 UNK        -0.5000 
     50 C           3.6223  -14.9246  -44.2878 C.2       4 UNK         0.5000 
     51 O           4.6733  -15.5632  -44.2146 O.2       4 UNK        -0.5000 
     52 CA          3.6747  -13.4630  -44.7763 C.3       4 UNK         0.1400 
     53 CB          4.1966  -13.4038  -46.2227 C.3       4 UNK        -0.1800 
     54 N           2.3732  -12.7956  -44.7241 N.am      4 UNK        -0.5000 
     55 C           1.9109  -12.1069  -43.6706 C.2       3 UNK         0.5000 
     56 O           2.5513  -11.9433  -42.6316 O.2       3 UNK        -0.5000 
     57 CA          0.4962  -11.4982  -43.7838 C.3       3 UNK         0.1400 
     58 CB          0.5815  -10.0073  -44.1450 C.3       3 UNK        -0.1800 
     59 N          -0.3629  -12.1697  -44.7610 N.am      3 UNK        -0.5000 
     60 C          -0.7868  -13.4371  -44.6696 C.2       2 UNK         0.5000 
     61 O          -0.5373  -14.1681  -43.7125 O.2       2 UNK        -0.5000 
     62 CA         -1.5748  -14.0016  -45.8668 C.3       2 UNK         0.1400 
     63 CB         -3.0856  -13.9214  -45.6057 C.3       2 UNK        -0.1800 
     64 N          -1.2796  -13.3628  -47.1534 N.am      2 UNK        -0.5000 
     65 C          -0.0807  -13.2871  -47.7460 C.2       1 UNK         0.5000 
     66 O           0.9624  -13.6539  -47.2048 O.2       1 UNK        -0.5000 
     67 C          -0.5331  -17.3566  -47.7839 C.2       11 UNK         0.5000 
     68 O          -0.8514  -16.4956  -48.5988 O.2       11 UNK        -0.5000 
     69 N          -1.4076  -17.9073  -46.9294 N.am      12 UNK        -0.5000 
     70 CA         -2.8627  -17.7570  -47.0145 C.3       12 UNK         0.1400 
     71 CB         -3.4506  -17.6937  -45.5939 C.3       12 UNK        -0.1800 
     72 C          -3.4701  -18.9018  -47.8588 C.2       12 UNK         0.5000 
     73 O          -4.6027  -19.3217  -47.6142 O.2       12 UNK        -0.5000 
     74 N          -2.6834  -19.4098  -48.8204 N.am      13 UNK        -0.5000 
     75 CA         -2.9728  -20.4988  -49.7500 C.3       13 UNK         0.1400 
     76 CB         -4.0605  -20.0656  -50.7500 C.3       13 UNK        -0.1800 
     77 C          -3.2875  -21.8291  -49.0434 C.2       13 UNK         0.5000 
     78 O          -4.2032  -22.5370  -49.4580 O.2       13 UNK        -0.5000 
     79 N          -2.5425  -22.1294  -47.9699 N.am      14 UNK        -0.5000 
     80 CA         -2.7260  -23.2696  -47.0620 C.3       14 UNK         0.1400 
     81 CB         -2.4132  -24.5972  -47.7832 C.3       14 UNK        -0.1800 
     82 C          -4.1195  -23.2521  -46.3987 C.2       14 UNK         0.5000 
     83 O          -4.7928  -24.2810  -46.3454 O.2       14 UNK        -0.5000 
     84 N          -4.5465  -22.0559  -45.9654 N.am      15 UNK        -0.5000 
     85 CA         -5.9008  -21.7174  -45.5090 C.3       15 UNK         0.1400 
     86 CB         -6.2258  -22.4086  -44.1681 C.3       15 UNK        -0.1800 
     87 C          -6.9569  -21.9831  -46.6062 C.2       15 UNK         0.5000 
     88 O          -7.9741  -22.6313  -46.3555 O.2       15 UNK        -0.5000 
     89 N          -6.6563  -21.4946  -47.8177 N.am      16 UNK        -0.5000 
     90 CA         -7.4114  -21.6180  -49.0715 C.3       16 UNK         0.1400 
     91 CB         -8.8016  -20.9626  -48.9455 C.3       16 UNK        -0.1800 
     92 C          -7.4942  -23.0410  -49.6712 C.2       16 UNK         0.5000 
     93 O          -8.1583  -23.2146  -50.6944 O.2       16 UNK        -0.5000 
     94 N          -6.8128  -24.0311  -49.0779 N.am      17 UNK        -0.5000 
     95 CA         -6.7792  -25.4140  -49.5630 C.3       17 UNK         0.1400 
     96 CB         -6.2960  -26.3370  -48.4351 C.3       17 UNK        -0.1800 
     97 C          -5.9056  -25.6059  -50.8193 C.2       17 UNK         0.5000 
     98 O          -6.1504  -26.5401  -51.5833 O.2       17 UNK        -0.5000 
     99 N          -4.9122  -24.7298  -51.0134 N.am      18 UNK        -0.5000 
    100 CA        -3.9523  -24.7482  -52.1175 C.3       18 UNK         0.1400 
    101 CB        -2.5290  -24.8640  -51.5430 C.3       18 UNK        -0.1800 
    102 C         -4.1095  -23.5049  -53.0124 C.2       18 UNK         0.5000 
    103 O         -3.1422  -23.0799  -53.6479 O.2       18 UNK        -0.5000 
    104 N         -5.3249  -22.9398  -53.0688 N.am      19 UNK        -0.5000 
    105 CA        -5.6741  -21.7507  -53.8559 C.3       19 UNK         0.1400 
    106 CB        -7.1346  -21.3702  -53.5752 C.3       19 UNK        -0.1800 
    107 C         -5.4237  -21.8984  -55.3681 C.2       19 UNK         0.5000 
    108 O         -5.0782  -20.9143  -56.0212 O.2       19 UNK        -0.5000 
    109 N         -5.5432  -23.1278  -55.8862 N.am      20 UNK        -0.5000 
    110 CA        -5.2350  -23.4788  -57.2737 C.3       20 UNK         0.1400 
    111 CB        -5.7500  -24.8995  -57.5513 C.3       20 UNK        -0.1800 
    112 C         -3.7351  -23.3729  -57.6227 C.2       20 UNK         0.5000 
    113 O         -3.4065  -23.1865  -58.7951 O.2       20 UNK        -0.5000 
    114 N         -2.8597  -23.4985  -56.6155 N.am      21 UNK        -0.5000 
    115 CA        -1.4086  -23.4033  -56.7593 C.3       21 UNK         0.1400 
    116 CB        -0.7417  -24.4813  -55.8886 C.3       21 UNK        -0.1800 
    117 C         -0.9037  -22.0036  -56.3747 C.2       21 UNK         0.5000 
    118 O         -0.1220  -21.4147  -57.1225 O.2       21 UNK        -0.5000 
    119 N         -1.3461  -21.5040  -55.2135 N.am      22 UNK        -0.5000 
    120 CA        -0.9360  -20.2074  -54.6527 C.3       22 UNK         0.1400 
    121 C         -1.6145  -18.9797  -55.3327 C.2       22 UNK         0.5000 
    122 N         -2.7977  -19.1055  -55.9210 N.am      22 UNK        -0.7600 
    123 O         -1.0383  -17.8962  -55.3675 O.2       22 UNK        -0.5000 
    124 C124       -1.0886  -20.2298  -53.1068 C.3       23 UNK        -0.0398 
    125 S125       -0.5477  -18.7460  -52.1811 S.3       23 UNK        -0.2404 
    126 C126        1.2265  -18.6377  -52.5870 C.3       23 UNK        -0.0205 
    127 H127       -3.1333   -9.4521  -48.6226 H         1 UNK         0.0600 
    128 H128       -3.2103   -9.7287  -50.3660 H         1 UNK         0.0600 
    129 H129       -1.7338   -9.0910  -49.6374 H         1 UNK         0.0600 
    130 H130       -0.1605  -10.6120  -49.4463 H         1 UNK         0.3000 
    131 H131        1.0248  -12.4256  -49.3325 H         1 UNK         0.0600 
    132 H132        0.1776  -14.6729  -50.0428 H         1 UNK         0.0800 
    133 H133       -1.4342  -14.0563  -50.1185 H         1 UNK         0.0800 
    134 H134        2.2353  -12.8397  -51.7383 H         1 UNK         0.0800 
    135 H135        1.8475  -13.4970  -53.3060 H         1 UNK         0.0800 
    136 H136        0.8079  -16.0253  -53.2058 H         1 UNK         0.1150 
    137 H137        3.0549  -18.5299  -50.5426 H         1 UNK         0.1150 
    138 H138        3.3598  -14.2655  -50.2487 H         1 UNK         0.1150 
    139 H139        5.2062  -17.0353  -49.4705 H         1 UNK         0.0800 
    140 H140        4.6149  -15.5524  -48.7703 H         1 UNK         0.0800 
    141 H141        1.8152  -15.9530  -48.1312 H         1 UNK         0.0800 
    142 H142        1.8344  -16.4397  -46.4692 H         1 UNK         0.0800 
    143 H143        1.0774  -18.2164  -48.8295 H         1 UNK         0.0600 
    144 H144        1.5075  -18.9800  -46.0584 H         1 UNK         0.3000 
    145 H145        0.4345  -22.3567  -46.6860 H         1 UNK         0.0600 
    146 H146        2.6068  -22.6787  -45.5751 H         1 UNK         0.0600 
    147 H147        2.8687  -22.0210  -47.1818 H         1 UNK         0.0600 
    148 H148        3.0133  -20.9746  -45.7752 H         1 UNK         0.0600 
    149 H149        1.0312  -21.3871  -44.2010 H         1 UNK         0.3000 
    150 H150       -1.0530  -19.7892  -42.8593 H         1 UNK         0.0600 
    151 H151       -3.3606  -20.3800  -43.4303 H         1 UNK         0.0600 
    152 H152       -2.9628  -21.0911  -41.8770 H         1 UNK         0.0600 
    153 H153       -3.0071  -22.0958  -43.3249 H         1 UNK         0.0600 
    154 H154        0.2053  -21.1403  -41.6848 H         1 UNK         0.3000 
    155 H155        0.1820  -24.4668  -40.8520 H         1 UNK         0.0600 
    156 H156        2.4707  -23.4827  -42.6459 H         1 UNK         0.0600 
    157 H157        1.5644  -24.9736  -42.8705 H         1 UNK         0.0600 
    158 H158        2.5793  -24.7770  -41.4522 H         1 UNK         0.0600 
    159 H159        2.1682  -22.3969  -40.4807 H         1 UNK         0.3000 
    160 H160        0.4538  -20.4097  -38.2151 H         1 UNK         0.0600 
    161 H161        2.5561  -22.4582  -37.3287 H         1 UNK         0.0600 
    162 H162        0.9709  -22.2472  -36.5950 H         1 UNK         0.0600 
    163 H163        2.1546  -20.9547  -36.4969 H         1 UNK         0.0600 
    164 H164        3.2143  -20.4731  -38.6920 H         1 UNK         0.3000 
    165 H165        3.8642  -18.3915  -40.1262 H         1 UNK         0.0600 
    166 H166        5.4591  -19.7483  -41.5433 H         1 UNK         0.0600 
    167 H167        4.8767  -20.6639  -40.1686 H         1 UNK         0.0600 
    168 H168        4.2109  -20.9711  -41.7688 H         1 UNK         0.0600 
    169 H169        3.2541  -19.0363  -42.9389 H         1 UNK         0.3000 
    170 H170        2.7490  -17.4609  -44.3880 H         1 UNK         0.0600 
    171 H171        0.1303  -16.6923  -42.9956 H         1 UNK         0.0600 
    172 H172        0.2990  -16.8897  -44.7353 H         1 UNK         0.0600 
    173 H173        0.5494  -18.2601  -43.6643 H         1 UNK         0.0600 
    174 H174        1.6057  -14.8545  -44.0119 H         1 UNK         0.3000 
    175 H175        4.3854  -12.9306  -44.1409 H         1 UNK         0.0600 
    176 H176        3.5721  -13.9853  -46.9015 H         1 UNK         0.0600 
    177 H177        4.2292  -12.3783  -46.5909 H         1 UNK         0.0600 
    178 H178        5.2086  -13.8047  -46.2903 H         1 UNK         0.0600 
    179 H179        1.7803  -12.9170  -45.5398 H         1 UNK         0.3000 
    180 H180        0.0229  -11.5877  -42.8038 H         1 UNK         0.0600 
    181 H181       -0.4055   -9.5444  -44.1492 H         1 UNK         0.0600 
    182 H182        1.0284   -9.8571  -45.1287 H         1 UNK         0.0600 
    183 H183        1.1904   -9.4637  -43.4213 H         1 UNK         0.0600 
    184 H184       -0.6053  -11.6466  -45.5894 H         1 UNK         0.3000 
    185 H185       -1.3008  -15.0537  -45.9579 H         1 UNK         0.0600 
    186 H186       -3.6482  -14.4262  -46.3914 H         1 UNK         0.0600 
    187 H187       -3.3474  -14.4000  -44.6611 H         1 UNK         0.0600 
    188 H188       -3.4296  -12.8875  -45.5577 H         1 UNK         0.0600 
    189 H189       -2.0737  -13.0169  -47.6866 H         1 UNK         0.3000 
    190 H190       -1.0923  -18.6690  -46.3424 H         1 UNK         0.3000 
    191 H191       -3.1126  -16.8203  -47.5164 H         1 UNK         0.0600 
    192 H192       -4.5130  -17.4497  -45.6234 H         1 UNK         0.0600 
    193 H193       -2.9578  -16.9282  -44.9949 H         1 UNK         0.0600 
    194 H194       -3.3496  -18.6424  -45.0698 H         1 UNK         0.0600 
    195 H195       -1.7557  -19.0212  -48.9095 H         1 UNK         0.3000 
    196 H196       -2.0557  -20.6789  -50.3111 H         1 UNK         0.0600 
    197 H197       -4.9900  -19.7942  -50.2525 H         1 UNK         0.0600 
    198 H198       -3.7359  -19.2060  -51.3361 H         1 UNK         0.0600 
    199 H199       -4.2819  -20.8706  -51.4455 H         1 UNK         0.0600 
    200 H200       -1.8372  -21.4584  -47.6907 H         1 UNK         0.3000 
    201 H201       -1.9999  -23.1593  -46.2566 H         1 UNK         0.0600 
    202 H202       -3.1444  -24.8208  -48.5597 H         1 UNK         0.0600 
    203 H203       -2.4196  -25.4317  -47.0813 H         1 UNK         0.0600 
    204 H204       -1.4279  -24.5708  -48.2482 H         1 UNK         0.0600 
    205 H205       -3.9114  -21.2740  -46.0699 H         1 UNK         0.3000 
    206 H206       -5.9051  -20.6407  -45.3331 H         1 UNK         0.0600 
    207 H207       -5.4810  -22.1709  -43.4097 H         1 UNK         0.0600 
    208 H208       -7.1920  -22.0783  -43.7854 H         1 UNK         0.0600 
    209 H209       -6.2690  -23.4934  -44.2673 H         1 UNK         0.0600 
    210 H210       -5.7971  -20.9584  -47.8912 H         1 UNK         0.3000 
    211 H211       -6.8519  -21.0368  -49.8033 H         1 UNK         0.0600 
    212 H212       -9.2960  -20.9026  -49.9158 H         1 UNK         0.0600 
    213 H213       -8.7248  -19.9458  -48.5602 H         1 UNK         0.0600 
    214 H214       -9.4579  -21.5259  -48.2819 H         1 UNK         0.0600 
    215 H215       -6.2532  -23.8169  -48.2630 H         1 UNK         0.3000 
    216 H216       -7.7985  -25.7079  -49.8219 H         1 UNK         0.0600 
    217 H217       -5.2534  -26.1470  -48.1796 H         1 UNK         0.0600 
    218 H218       -6.3727  -27.3843  -48.7297 H         1 UNK         0.0600 
    219 H219       -6.8928  -26.2073  -47.5320 H         1 UNK         0.0600 
    220 H220       -4.7916  -23.9670  -50.3464 H         1 UNK         0.3000 
    221 H221       -4.1252  -25.6138  -52.7592 H         1 UNK         0.0600 
    222 H222       -2.4337  -25.7405  -50.9021 H         1 UNK         0.0600 
    223 H223       -2.2594  -23.9873  -50.9538 H         1 UNK         0.0600 
    224 H224       -1.7897  -24.9649  -52.3384 H         1 UNK         0.0600 
    225 H225       -6.0638  -23.3473  -52.5128 H         1 UNK         0.3000 
    226 H226       -5.0413  -20.9273  -53.5236 H         1 UNK         0.0600 
    227 H227       -7.8186  -22.1777  -53.8388 H         1 UNK         0.0600 
    228 H228       -7.2838  -21.1351  -52.5212 H         1 UNK         0.0600 
    229 H229       -7.4278  -20.4891  -54.1476 H         1 UNK         0.0600 
    230 H230       -5.8307  -23.8800  -55.2779 H         1 UNK         0.3000 
    231 H231       -5.7726  -22.7867  -57.9253 H         1 UNK         0.0600 
    232 H232       -5.2606  -25.6367  -56.9135 H         1 UNK         0.0600 
    233 H233       -5.5647  -25.1871  -58.5872 H         1 UNK         0.0600 
    234 H234       -6.8250  -24.9698  -57.3839 H         1 UNK         0.0600 
    235 H235       -3.2110  -23.5932  -55.6708 H         1 UNK         0.3000 
    236 H236       -1.1189  -23.5909  -57.7955 H         1 UNK         0.0600 
    237 H237       -1.0516  -25.4801  -56.1960 H         1 UNK         0.0600 
    238 H238        0.3445  -24.4365  -55.9768 H         1 UNK         0.0600 
    239 H239       -0.9901  -24.3655  -54.8330 H         1 UNK         0.0600 
    240 H240       -1.9897  -22.0570  -54.6526 H         1 UNK         0.3000 
    241 H241        0.1300  -20.1062  -54.8605 H         1 UNK         0.0600 
    242 H242       -3.2015  -18.2987  -56.3687 H         1 UNK         0.3800 
    243 H243       -3.3209  -19.9732  -55.9179 H         1 UNK         0.3800 
    244 H244       -0.5439  -21.0833  -52.7003 H         1 UNK         0.0800 
    245 H245       -2.1351  -20.4060  -52.8578 H         1 UNK         0.0800 
    246 H246        1.7282  -19.5512  -52.2642 H         1 UNK         0.0800 
    247 H247        1.3569  -18.5690  -53.6671 H         1 UNK         0.0800 
@<TRIPOS>BOND
     1    1    2 1    
     2    1  127 1    
     3    1  128 1    
     4    1  129 1    
     5    2    3 2    
     6    2    4 am   BACKBONE|DICT|INTERRES
     7    4    5 1    
     8    4  130 1    
     9    5    6 1    
    10    5   65 1    
    11    5  131 1    
    12    6    7 1    
    13    6  132 1    
    14    6  133 1    
    15    7    8 1    
    16    8    9 1    
    17    8  134 1    
    18    8  135 1    
    19    9   10 ar   
    20    9   14 ar   
    21   10   11 ar   
    22   10  136 1    
    23   11   12 ar   
    24   11  126 1    
    25   12   13 ar   
    26   12  137 1    
    27   13   14 ar   
    28   13   15 1    
    29   14  138 1    
    30   15   16 1    
    31   15  139 1    
    32   15  140 1    
    33   16   17 1    
    34   17   18 1    
    35   17  141 1    
    36   17  142 1    
    37   18   19 1    
    38   18   67 1    
    39   18  143 1    
    40   19   20 am   BACKBONE|DICT|INTERRES
    41   19  144 1    
    42   20   21 2    
    43   20   22 1    
    44   22   23 1    
    45   22   24 1    
    46   22  145 1    
    47   23  146 1    
    48   23  147 1    
    49   23  148 1    
    50   24   25 am   BACKBONE|DICT|INTERRES
    51   24  149 1    
    52   25   26 2    
    53   25   27 1    
    54   27   28 1    
    55   27   29 1    
    56   27  150 1    
    57   28  151 1    
    58   28  152 1    
    59   28  153 1    
    60   29   30 am   BACKBONE|DICT|INTERRES
    61   29  154 1    
    62   30   31 2    
    63   30   32 1    
    64   32   33 1    
    65   32   34 1    
    66   32  155 1    
    67   33  156 1    
    68   33  157 1    
    69   33  158 1    
    70   34   35 am   BACKBONE|DICT|INTERRES
    71   34  159 1    
    72   35   36 2    
    73   35   37 1    
    74   37   38 1    
    75   37   39 1    
    76   37  160 1    
    77   38  161 1    
    78   38  162 1    
    79   38  163 1    
    80   39   40 am   BACKBONE|DICT|INTERRES
    81   39  164 1    
    82   40   41 2    
    83   40   42 1    
    84   42   43 1    
    85   42   44 1    
    86   42  165 1    
    87   43  166 1    
    88   43  167 1    
    89   43  168 1    
    90   44   45 am   BACKBONE|DICT|INTERRES
    91   44  169 1    
    92   45   46 2    
    93   45   47 1    
    94   47   48 1    
    95   47   49 1    
    96   47  170 1    
    97   48  171 1    
    98   48  172 1    
    99   48  173 1    
   100   49   50 am   BACKBONE|DICT|INTERRES
   101   49  174 1    
   102   50   51 2    
   103   50   52 1    
   104   52   53 1    
   105   52   54 1    
   106   52  175 1    
   107   53  176 1    
   108   53  177 1    
   109   53  178 1    
   110   54   55 am   BACKBONE|DICT|INTERRES
   111   54  179 1    
   112   55   56 2    
   113   55   57 1    
   114   57   58 1    
   115   57   59 1    
   116   57  180 1    
   117   58  181 1    
   118   58  182 1    
   119   58  183 1    
   120   59   60 am   BACKBONE|DICT|INTERRES
   121   59  184 1    
   122   60   61 2    
   123   60   62 1    
   124   62   63 1    
   125   62   64 1    
   126   62  185 1    
   127   63  186 1    
   128   63  187 1    
   129   63  188 1    
   130   64   65 am   BACKBONE|DICT|INTERRES
   131   64  189 1    
   132   65   66 2    
   133   67   68 2    
   134   67   69 am   BACKBONE|DICT|INTERRES
   135   69   70 1    
   136   69  190 1    
   137   70   71 1    
   138   70   72 1    
   139   70  191 1    
   140   71  192 1    
   141   71  193 1    
   142   71  194 1    
   143   72   73 2    
   144   72   74 am   BACKBONE|DICT|INTERRES
   145   74   75 1    
   146   74  195 1    
   147   75   76 1    
   148   75   77 1    
   149   75  196 1    
   150   76  197 1    
   151   76  198 1    
   152   76  199 1    
   153   77   78 2    
   154   77   79 am   BACKBONE|DICT|INTERRES
   155   79   80 1    
   156   79  200 1    
   157   80   81 1    
   158   80   82 1    
   159   80  201 1    
   160   81  202 1    
   161   81  203 1    
   162   81  204 1    
   163   82   83 2    
   164   82   84 am   BACKBONE|DICT|INTERRES
   165   84   85 1    
   166   84  205 1    
   167   85   86 1    
   168   85   87 1    
   169   85  206 1    
   170   86  207 1    
   171   86  208 1    
   172   86  209 1    
   173   87   88 2    
   174   87   89 am   BACKBONE|DICT|INTERRES
   175   89   90 1    
   176   89  210 1    
   177   90   91 1    
   178   90   92 1    
   179   90  211 1    
   180   91  212 1    
   181   91  213 1    
   182   91  214 1    
   183   92   93 2    
   184   92   94 am   BACKBONE|DICT|INTERRES
   185   94   95 1    
   186   94  215 1    
   187   95   96 1    
   188   95   97 1    
   189   95  216 1    
   190   96  217 1    
   191   96  218 1    
   192   96  219 1    
   193   97   98 2    
   194   97   99 am   BACKBONE|DICT|INTERRES
   195   99  100 1    
   196   99  220 1    
   197  100  101 1    
   198  100  102 1    
   199  100  221 1    
   200  101  222 1    
   201  101  223 1    
   202  101  224 1    
   203  102  103 2    
   204  102  104 am   BACKBONE|DICT|INTERRES
   205  104  105 1    
   206  104  225 1    
   207  105  106 1    
   208  105  107 1    
   209  105  226 1    
   210  106  227 1    
   211  106  228 1    
   212  106  229 1    
   213  107  108 2    
   214  107  109 am   BACKBONE|DICT|INTERRES
   215  109  110 1    
   216  109  230 1    
   217  110  111 1    
   218  110  112 1    
   219  110  231 1    
   220  111  232 1    
   221  111  233 1    
   222  111  234 1    
   223  112  113 2    
   224  112  114 am   BACKBONE|DICT|INTERRES
   225  114  115 1    
   226  114  235 1    
   227  115  116 1    
   228  115  117 1    
   229  115  236 1    
   230  116  237 1    
   231  116  238 1    
   232  116  239 1    
   233  117  118 2    
   234  117  119 am   BACKBONE|DICT|INTERRES
   235  119  120 1    
   236  119  240 1    
   237  120  121 1    
   238  120  124 1    
   239  120  241 1    
   240  121  122 am   BACKBONE|DICT|INTERRES
   241  121  123 2    
   242  122  242 1    
   243  122  243 1    
   244  124  125 1    
   245  124  244 1    
   246  124  245 1    
   247  125  126 1    
   248  126  246 1    
   249  126  247 1    
@<TRIPOS>SUBSTRUCTURE
     1 UNK         1 GROUP             0       ****    0 ROOT    
