@<TRIPOS>MOLECULE
3R540
247   249    1
SMALL
USER_CHARGES


@<TRIPOS>ATOM
      1 CA         -2.8840  -13.9393  -50.2863 C.3       0 UNK        -0.1800 
      2 C          -1.5832  -13.1812  -50.0714 C.2       0 UNK         0.5000 
      3 O          -1.1666  -12.4117  -50.9374 O.2       0 UNK        -0.5000 
      4 N          -0.9505  -13.3859  -48.9128 N.am      1 UNK        -0.5000 
      5 CA          0.2452  -12.6770  -48.4646 C.3       1 UNK         0.1400 
      6 C6          1.1814  -13.5827  -47.6282 C.3       23 UNK        -0.0398 
      7 S7          1.9192  -14.9052  -48.6476 S.3       23 UNK        -0.2404 
      8 C8          0.7753  -16.2699  -48.2928 C.3       23 UNK        -0.0205 
      9 C9          1.0537  -17.4840  -49.1605 C.ar      23 UNK        -0.0193 
     10 C10         0.4013  -17.6269  -50.3862 C.ar      23 UNK        -0.1150 
     11 C11         0.6191  -18.7554  -51.1797 C.ar      23 UNK        -0.0193 
     12 C12         1.5109  -19.7412  -50.7442 C.ar      23 UNK        -0.1150 
     13 C13         2.1800  -19.6039  -49.5231 C.ar      23 UNK        -0.0193 
     14 C14         1.9422  -18.4744  -48.7339 C.ar      23 UNK        -0.1150 
     15 C15         3.1750  -20.6616  -49.0601 C.3       23 UNK        -0.0205 
     16 S16         2.4073  -22.2866  -48.7600 S.3       23 UNK        -0.2404 
     17 C17         1.1928  -21.8916  -47.4613 C.3       23 UNK        -0.0398 
     18 CA          0.3945  -23.1466  -47.0371 C.3       11 UNK         0.1400 
     19 N           1.2115  -24.1154  -46.3003 N.am      11 UNK        -0.5000 
     20 C           0.8374  -25.3732  -46.0263 C.2       10 UNK         0.5000 
     21 O          -0.2371  -25.8603  -46.3753 O.2       10 UNK        -0.5000 
     22 CA          1.8064  -26.2103  -45.1726 C.3       10 UNK         0.1400 
     23 CB          2.9715  -26.7343  -46.0254 C.3       10 UNK        -0.1800 
     24 N           2.3338  -25.4632  -44.0302 N.am      10 UNK        -0.5000 
     25 C           1.5863  -24.9968  -43.0199 C.2       9 UNK         0.5000 
     26 O           0.3743  -25.1795  -42.9248 O.2       9 UNK        -0.5000 
     27 CA          2.3004  -24.1433  -41.9585 C.3       9 UNK         0.1400 
     28 CB          2.8507  -25.0324  -40.8338 C.3       9 UNK        -0.1800 
     29 N           3.3814  -23.3116  -42.4909 N.am      9 UNK        -0.5000 
     30 C           3.2443  -22.3733  -43.4366 C.2       8 UNK         0.5000 
     31 O           2.1908  -22.1480  -44.0382 O.2       8 UNK        -0.5000 
     32 CA          4.4988  -21.5334  -43.7412 C.3       8 UNK         0.1400 
     33 CB          4.6677  -21.3087  -45.2536 C.3       8 UNK        -0.1800 
     34 N           4.4273  -20.2347  -43.0765 N.am      8 UNK        -0.5000 
     35 C           4.4035  -20.0213  -41.7521 C.2       7 UNK         0.5000 
     36 O           4.5889  -20.9060  -40.9155 O.2       7 UNK        -0.5000 
     37 CA          4.1304  -18.5768  -41.2750 C.3       7 UNK         0.1400 
     38 CB          5.4051  -17.9536  -40.6843 C.3       7 UNK        -0.1800 
     39 N           3.6186  -17.6929  -42.3283 N.am      7 UNK        -0.5000 
     40 C           2.4128  -17.7984  -42.9029 C.2       6 UNK         0.5000 
     41 O           1.5579  -18.6126  -42.5466 O.2       6 UNK        -0.5000 
     42 CA          2.1620  -16.8719  -44.1085 C.3       6 UNK         0.1400 
     43 CB          3.2091  -17.1090  -45.2134 C.3       6 UNK        -0.1800 
     44 N           0.8374  -17.0948  -44.6831 N.am      6 UNK        -0.5000 
     45 C          -0.2842  -16.4902  -44.2820 C.2       5 UNK         0.5000 
     46 O          -0.3282  -15.6470  -43.3821 O.2       5 UNK        -0.5000 
     47 CA         -1.5704  -16.9196  -45.0141 C.3       5 UNK         0.1400 
     48 CB         -2.0838  -18.2662  -44.4781 C.3       5 UNK        -0.1800 
     49 N          -2.6188  -15.9127  -44.8651 N.am      5 UNK        -0.5000 
     50 C          -2.6887  -14.7801  -45.5749 C.2       4 UNK         0.5000 
     51 O          -1.9993  -14.5543  -46.5720 O.2       4 UNK        -0.5000 
     52 CA         -3.7056  -13.7381  -45.0805 C.3       4 UNK         0.1400 
     53 CB         -3.5074  -13.4061  -43.5867 C.3       4 UNK        -0.1800 
     54 N          -3.6167  -12.4992  -45.8566 N.am      4 UNK        -0.5000 
     55 C          -4.6553  -11.6754  -46.0651 C.2       3 UNK         0.5000 
     56 O          -5.8020  -11.9481  -45.7049 O.2       3 UNK        -0.5000 
     57 CA         -4.4070  -10.3174  -46.7546 C.3       3 UNK         0.1400 
     58 CB         -5.0534   -9.1615  -45.9621 C.3       3 UNK        -0.1800 
     59 N          -2.9881  -10.0348  -46.9662 N.am      3 UNK        -0.5000 
     60 C          -2.4932   -9.1708  -47.8592 C.2       2 UNK         0.5000 
     61 O          -3.1886   -8.5003  -48.6233 O.2       2 UNK        -0.5000 
     62 CA         -0.9585   -9.0536  -47.9355 C.3       2 UNK         0.1400 
     63 CB         -0.3524   -8.4812  -46.6381 C.3       2 UNK        -0.1800 
     64 N          -0.3207  -10.3116  -48.3394 N.am      2 UNK        -0.5000 
     65 C          -0.2643  -11.4688  -47.6670 C.2       1 UNK         0.5000 
     66 O          -0.6847  -11.6249  -46.5173 O.2       1 UNK        -0.5000 
     67 C          -0.8596  -22.7481  -46.2411 C.2       11 UNK         0.5000 
     68 O          -1.9365  -22.6456  -46.8300 O.2       11 UNK        -0.5000 
     69 N          -0.7063  -22.5633  -44.9226 N.am      12 UNK        -0.5000 
     70 CA         -1.8030  -22.2683  -44.0022 C.3       12 UNK         0.1400 
     71 CB         -1.2325  -21.8900  -42.6274 C.3       12 UNK        -0.1800 
     72 C          -2.8116  -23.4282  -43.8925 C.2       12 UNK         0.5000 
     73 O          -4.0165  -23.1870  -43.9653 O.2       12 UNK        -0.5000 
     74 N          -2.3064  -24.6633  -43.7581 N.am      13 UNK        -0.5000 
     75 CA         -3.1045  -25.8888  -43.6752 C.3       13 UNK         0.1400 
     76 CB         -2.2058  -27.0631  -43.2590 C.3       13 UNK        -0.1800 
     77 C          -3.8467  -26.2167  -44.9826 C.2       13 UNK         0.5000 
     78 O          -5.0095  -26.6197  -44.9342 O.2       13 UNK        -0.5000 
     79 N          -3.1737  -26.0230  -46.1254 N.am      14 UNK        -0.5000 
     80 CA         -3.7424  -26.2187  -47.4613 C.3       14 UNK         0.1400 
     81 CB         -2.5971  -26.3118  -48.4822 C.3       14 UNK        -0.1800 
     82 C          -4.7252  -25.1081  -47.8796 C.2       14 UNK         0.5000 
     83 O          -5.4867  -25.3116  -48.8257 O.2       14 UNK        -0.5000 
     84 N          -4.6617  -23.9535  -47.1979 N.am      15 UNK        -0.5000 
     85 CA         -5.3295  -22.6892  -47.5229 C.3       15 UNK         0.1400 
     86 CB         -6.8615  -22.8129  -47.3969 C.3       15 UNK        -0.1800 
     87 C          -4.8708  -22.1436  -48.8912 C.2       15 UNK         0.5000 
     88 O          -5.6766  -21.6157  -49.6604 O.2       15 UNK        -0.5000 
     89 N          -3.5650  -22.2813  -49.1653 N.am      16 UNK        -0.5000 
     90 CA         -2.9162  -21.9398  -50.4324 C.3       16 UNK         0.1400 
     91 CB         -1.4372  -22.3480  -50.3728 C.3       16 UNK        -0.1800 
     92 C          -3.0416  -20.4535  -50.7968 C.2       16 UNK         0.5000 
     93 O          -3.1550  -20.1293  -51.9781 O.2       16 UNK        -0.5000 
     94 N          -3.0505  -19.5917  -49.7721 N.am      17 UNK        -0.5000 
     95 CA         -3.2347  -18.1470  -49.8834 C.3       17 UNK         0.1400 
     96 CB         -2.8789  -17.5067  -48.5346 C.3       17 UNK        -0.1800 
     97 C          -4.6569  -17.7512  -50.3192 C.2       17 UNK         0.5000 
     98 O          -4.8127  -16.7756  -51.0524 O.2       17 UNK        -0.5000 
     99 N          -5.6622  -18.5197  -49.8779 N.am      18 UNK        -0.5000 
    100 CA        -7.0646  -18.3296  -50.2494 C.3       18 UNK         0.1400 
    101 CB        -7.9692  -18.9520  -49.1747 C.3       18 UNK        -0.1800 
    102 C         -7.3640  -18.9316  -51.6322 C.2       18 UNK         0.5000 
    103 O         -8.0947  -18.3261  -52.4169 O.2       18 UNK        -0.5000 
    104 N         -6.7773  -20.1041  -51.9094 N.am      19 UNK        -0.5000 
    105 CA        -6.8895  -20.8152  -53.1834 C.3       19 UNK         0.1400 
    106 CB        -6.3976  -22.2571  -52.9817 C.3       19 UNK        -0.1800 
    107 C         -6.1110  -20.1472  -54.3345 C.2       19 UNK         0.5000 
    108 O         -6.4351  -20.3921  -55.4970 O.2       19 UNK        -0.5000 
    109 N         -5.0867  -19.3516  -53.9888 N.am      20 UNK        -0.5000 
    110 CA        -4.0771  -18.7537  -54.8706 C.3       20 UNK         0.1400 
    111 CB        -4.7081  -17.7298  -55.8360 C.3       20 UNK        -0.1800 
    112 C         -3.2294  -19.8289  -55.5846 C.2       20 UNK         0.5000 
    113 O         -2.8571  -19.6665  -56.7485 O.2       20 UNK        -0.5000 
    114 N         -2.9374  -20.9187  -54.8592 N.am      21 UNK        -0.5000 
    115 CA        -2.2687  -22.1263  -55.3568 C.3       21 UNK         0.1400 
    116 CB        -2.3484  -23.2143  -54.2753 C.3       21 UNK        -0.1800 
    117 C         -0.8082  -21.9010  -55.7956 C.2       21 UNK         0.5000 
    118 O         -0.2813  -22.6777  -56.5927 O.2       21 UNK        -0.5000 
    119 N         -0.1952  -20.8339  -55.2759 N.am      22 UNK        -0.5000 
    120 CA         1.1276  -20.3235  -55.6559 C.3       22 UNK         0.1400 
    121 C          1.1520  -19.5333  -57.0001 C.2       22 UNK         0.5000 
    122 N          0.0200  -19.2374  -57.6309 N.am      22 UNK        -0.7600 
    123 O          2.2258  -19.1956  -57.4912 O.2       22 UNK        -0.5000 
    124 C124        1.7698  -19.5254  -54.4890 C.3       23 UNK        -0.0398 
    125 S125        0.7327  -18.1426  -53.8887 S.3       23 UNK        -0.2404 
    126 C126       -0.1384  -18.9112  -52.4877 C.3       23 UNK        -0.0205 
    127 H127       -2.6980  -14.8524  -50.8516 H         1 UNK         0.0600 
    128 H128       -3.5931  -13.3289  -50.8453 H         1 UNK         0.0600 
    129 H129       -3.3497  -14.2063  -49.3374 H         1 UNK         0.0600 
    130 H130       -1.3840  -13.9622  -48.1934 H         1 UNK         0.3000 
    131 H131        0.8143  -12.3155  -49.3242 H         1 UNK         0.0600 
    132 H132        2.0011  -12.9945  -47.2126 H         1 UNK         0.0800 
    133 H133        0.6585  -14.0178  -46.7743 H         1 UNK         0.0800 
    134 H134       -0.2517  -15.9394  -48.4441 H         1 UNK         0.0800 
    135 H135        0.8575  -16.5369  -47.2433 H         1 UNK         0.0800 
    136 H136       -0.2827  -16.8592  -50.7196 H         1 UNK         0.1150 
    137 H137        1.6831  -20.6200  -51.3489 H         1 UNK         0.1150 
    138 H138        2.4549  -18.3606  -47.7906 H         1 UNK         0.1150 
    139 H139        3.6900  -20.3408  -48.1536 H         1 UNK         0.0800 
    140 H140        3.9465  -20.7752  -49.8227 H         1 UNK         0.0800 
    141 H141        0.5254  -21.1217  -47.8519 H         1 UNK         0.0800 
    142 H142        1.7054  -21.4461  -46.6081 H         1 UNK         0.0800 
    143 H143        0.0391  -23.6428  -47.9431 H         1 UNK         0.0600 
    144 H144        2.0859  -23.7744  -45.9293 H         1 UNK         0.3000 
    145 H145        1.2524  -27.0687  -44.7866 H         1 UNK         0.0600 
    146 H146        2.6033  -27.3065  -46.8780 H         1 UNK         0.0600 
    147 H147        3.6173  -27.3949  -45.4468 H         1 UNK         0.0600 
    148 H148        3.5853  -25.9216  -46.4160 H         1 UNK         0.0600 
    149 H149        3.3229  -25.2629  -44.0282 H         1 UNK         0.3000 
    150 H150        1.5572  -23.4709  -41.5261 H         1 UNK         0.0600 
    151 H151        3.2715  -24.4322  -40.0267 H         1 UNK         0.0600 
    152 H152        2.0612  -25.6483  -40.4009 H         1 UNK         0.0600 
    153 H153        3.6304  -25.7039  -41.1956 H         1 UNK         0.0600 
    154 H154        4.2728  -23.3902  -42.0221 H         1 UNK         0.3000 
    155 H155        5.3804  -22.0634  -43.3746 H         1 UNK         0.0600 
    156 H156        3.8538  -20.7122  -45.6664 H         1 UNK         0.0600 
    157 H157        4.6856  -22.2570  -45.7925 H         1 UNK         0.0600 
    158 H158        5.6027  -20.7930  -45.4731 H         1 UNK         0.0600 
    159 H159        4.2595  -19.4414  -43.6746 H         1 UNK         0.3000 
    160 H160        3.3793  -18.6342  -40.4845 H         1 UNK         0.0600 
    161 H161        6.1925  -17.8617  -41.4335 H         1 UNK         0.0600 
    162 H162        5.7977  -18.5629  -39.8691 H         1 UNK         0.0600 
    163 H163        5.2083  -16.9610  -40.2787 H         1 UNK         0.0600 
    164 H164        4.2625  -16.9937  -42.6698 H         1 UNK         0.3000 
    165 H165        2.2445  -15.8380  -43.7664 H         1 UNK         0.0600 
    166 H166        4.2163  -16.8703  -44.8711 H         1 UNK         0.0600 
    167 H167        3.2138  -18.1469  -45.5480 H         1 UNK         0.0600 
    168 H168        3.0177  -16.4765  -46.0801 H         1 UNK         0.0600 
    169 H169        0.7724  -17.8401  -45.3592 H         1 UNK         0.3000 
    170 H170       -1.3379  -17.0352  -46.0732 H         1 UNK         0.0600 
    171 H171       -2.3278  -18.2108  -43.4165 H         1 UNK         0.0600 
    172 H172       -1.3342  -19.0492  -44.6001 H         1 UNK         0.0600 
    173 H173       -2.9776  -18.5885  -45.0127 H         1 UNK         0.0600 
    174 H174       -3.2009  -16.0035  -44.0457 H         1 UNK         0.3000 
    175 H175       -4.6920  -14.1861  -45.2176 H         1 UNK         0.0600 
    176 H176       -4.2252  -12.6588  -43.2477 H         1 UNK         0.0600 
    177 H177       -3.6451  -14.2838  -42.9548 H         1 UNK         0.0600 
    178 H178       -2.5063  -13.0165  -43.3962 H         1 UNK         0.0600 
    179 H179       -2.6956  -12.2977  -46.2286 H         1 UNK         0.3000 
    180 H180       -4.8931  -10.3828  -47.7301 H         1 UNK         0.0600 
    181 H181       -4.5965   -9.0506  -44.9781 H         1 UNK         0.0600 
    182 H182       -6.1207   -9.3293  -45.8127 H         1 UNK         0.0600 
    183 H183       -4.9541   -8.2107  -46.4855 H         1 UNK         0.0600 
    184 H184       -2.3226  -10.5601  -46.4083 H         1 UNK         0.3000 
    185 H185       -0.7375   -8.3419  -48.7327 H         1 UNK         0.0600 
    186 H186       -0.7762   -7.5013  -46.4150 H         1 UNK         0.0600 
    187 H187       -0.5392   -9.1171  -45.7728 H         1 UNK         0.0600 
    188 H188        0.7260   -8.3543  -46.7320 H         1 UNK         0.0600 
    189 H189       -0.0091  -10.3266  -49.3015 H         1 UNK         0.3000 
    190 H190        0.2244  -22.6334  -44.5246 H         1 UNK         0.3000 
    191 H191       -2.3396  -21.4014  -44.3931 H         1 UNK         0.0600 
    192 H192       -0.5491  -21.0433  -42.7029 H         1 UNK         0.0600 
    193 H193       -2.0299  -21.6054  -41.9401 H         1 UNK         0.0600 
    194 H194       -0.6891  -22.7187  -42.1741 H         1 UNK         0.0600 
    195 H195       -1.3005  -24.7763  -43.6565 H         1 UNK         0.3000 
    196 H196       -3.8556  -25.7458  -42.8956 H         1 UNK         0.0600 
    197 H197       -1.4000  -27.2261  -43.9760 H         1 UNK         0.0600 
    198 H198       -2.7775  -27.9893  -43.1889 H         1 UNK         0.0600 
    199 H199       -1.7540  -26.8860  -42.2829 H         1 UNK         0.0600 
    200 H200       -2.1955  -25.7511  -46.0852 H         1 UNK         0.3000 
    201 H201       -4.2880  -27.1645  -47.4722 H         1 UNK         0.0600 
    202 H202       -2.9797  -26.4876  -49.4884 H         1 UNK         0.0600 
    203 H203       -1.9220  -27.1339  -48.2441 H         1 UNK         0.0600 
    204 H204       -2.0102  -25.3927  -48.5101 H         1 UNK         0.0600 
    205 H205       -3.9803  -23.8970  -46.4524 H         1 UNK         0.3000 
    206 H206       -4.9931  -21.9683  -46.7765 H         1 UNK         0.0600 
    207 H207       -7.2852  -23.4487  -48.1747 H         1 UNK         0.0600 
    208 H208       -7.1443  -23.2299  -46.4303 H         1 UNK         0.0600 
    209 H209       -7.3381  -21.8360  -47.4801 H         1 UNK         0.0600 
    210 H210       -2.9673  -22.6499  -48.4303 H         1 UNK         0.3000 
    211 H211       -3.4023  -22.5176  -51.2202 H         1 UNK         0.0600 
    212 H212       -0.9254  -22.1223  -51.3087 H         1 UNK         0.0600 
    213 H213       -1.3279  -23.4172  -50.1911 H         1 UNK         0.0600 
    214 H214       -0.9098  -21.8154  -49.5828 H         1 UNK         0.0600 
    215 H215       -2.9472  -19.9664  -48.8409 H         1 UNK         0.3000 
    216 H216       -2.5431  -17.7700  -50.6374 H         1 UNK         0.0600 
    217 H217       -3.5575  -17.8241  -47.7419 H         1 UNK         0.0600 
    218 H218       -1.8671  -17.7765  -48.2355 H         1 UNK         0.0600 
    219 H219       -2.9242  -16.4197  -48.5889 H         1 UNK         0.0600 
    220 H220       -5.4467  -19.3424  -49.3328 H         1 UNK         0.3000 
    221 H221       -7.2798  -17.2596  -50.2919 H         1 UNK         0.0600 
    222 H222       -7.8251  -20.0298  -49.0977 H         1 UNK         0.0600 
    223 H223       -7.7755  -18.5161  -48.1946 H         1 UNK         0.0600 
    224 H224       -9.0211  -18.7793  -49.4055 H         1 UNK         0.0600 
    225 H225       -6.2489  -20.5676  -51.1752 H         1 UNK         0.3000 
    226 H226       -7.9430  -20.8471  -53.4689 H         1 UNK         0.0600 
    227 H227       -6.9735  -22.7667  -52.2089 H         1 UNK         0.0600 
    228 H228       -6.4970  -22.8384  -53.8993 H         1 UNK         0.0600 
    229 H229       -5.3482  -22.2841  -52.6877 H         1 UNK         0.0600 
    230 H230       -4.8779  -19.2803  -53.0009 H         1 UNK         0.3000 
    231 H231       -3.3904  -18.2110  -54.2192 H         1 UNK         0.0600 
    232 H232       -5.3526  -18.2078  -56.5738 H         1 UNK         0.0600 
    233 H233       -3.9375  -17.1846  -56.3821 H         1 UNK         0.0600 
    234 H234       -5.3038  -16.9946  -55.2949 H         1 UNK         0.0600 
    235 H235       -3.2247  -20.9206  -53.8869 H         1 UNK         0.3000 
    236 H236       -2.8206  -22.4728  -56.2329 H         1 UNK         0.0600 
    237 H237       -1.8208  -22.9171  -53.3695 H         1 UNK         0.0600 
    238 H238       -3.3825  -23.4316  -54.0074 H         1 UNK         0.0600 
    239 H239       -1.9015  -24.1461  -54.6241 H         1 UNK         0.0600 
    240 H240       -0.7281  -20.2400  -54.6595 H         1 UNK         0.3000 
    241 H241        1.7680  -21.1904  -55.8287 H         1 UNK         0.0600 
    242 H242        0.0614  -18.7322  -58.5017 H         1 UNK         0.3800 
    243 H243       -0.8832  -19.4989  -57.2517 H         1 UNK         0.3800 
    244 H244        2.7406  -19.1246  -54.7853 H         1 UNK         0.0800 
    245 H245        1.9814  -20.2008  -53.6605 H         1 UNK         0.0800 
    246 H246       -0.3359  -19.9656  -52.6810 H         1 UNK         0.0800 
    247 H247       -1.1155  -18.4358  -52.4022 H         1 UNK         0.0800 
@<TRIPOS>BOND
     1    1    2 1    
     2    1  127 1    
     3    1  128 1    
     4    1  129 1    
     5    2    3 2    
     6    2    4 am   BACKBONE|DICT|INTERRES
     7    4    5 1    
     8    4  130 1    
     9    5    6 1    
    10    5   65 1    
    11    5  131 1    
    12    6    7 1    
    13    6  132 1    
    14    6  133 1    
    15    7    8 1    
    16    8    9 1    
    17    8  134 1    
    18    8  135 1    
    19    9   10 ar   
    20    9   14 ar   
    21   10   11 ar   
    22   10  136 1    
    23   11   12 ar   
    24   11  126 1    
    25   12   13 ar   
    26   12  137 1    
    27   13   14 ar   
    28   13   15 1    
    29   14  138 1    
    30   15   16 1    
    31   15  139 1    
    32   15  140 1    
    33   16   17 1    
    34   17   18 1    
    35   17  141 1    
    36   17  142 1    
    37   18   19 1    
    38   18   67 1    
    39   18  143 1    
    40   19   20 am   BACKBONE|DICT|INTERRES
    41   19  144 1    
    42   20   21 2    
    43   20   22 1    
    44   22   23 1    
    45   22   24 1    
    46   22  145 1    
    47   23  146 1    
    48   23  147 1    
    49   23  148 1    
    50   24   25 am   BACKBONE|DICT|INTERRES
    51   24  149 1    
    52   25   26 2    
    53   25   27 1    
    54   27   28 1    
    55   27   29 1    
    56   27  150 1    
    57   28  151 1    
    58   28  152 1    
    59   28  153 1    
    60   29   30 am   BACKBONE|DICT|INTERRES
    61   29  154 1    
    62   30   31 2    
    63   30   32 1    
    64   32   33 1    
    65   32   34 1    
    66   32  155 1    
    67   33  156 1    
    68   33  157 1    
    69   33  158 1    
    70   34   35 am   BACKBONE|DICT|INTERRES
    71   34  159 1    
    72   35   36 2    
    73   35   37 1    
    74   37   38 1    
    75   37   39 1    
    76   37  160 1    
    77   38  161 1    
    78   38  162 1    
    79   38  163 1    
    80   39   40 am   BACKBONE|DICT|INTERRES
    81   39  164 1    
    82   40   41 2    
    83   40   42 1    
    84   42   43 1    
    85   42   44 1    
    86   42  165 1    
    87   43  166 1    
    88   43  167 1    
    89   43  168 1    
    90   44   45 am   BACKBONE|DICT|INTERRES
    91   44  169 1    
    92   45   46 2    
    93   45   47 1    
    94   47   48 1    
    95   47   49 1    
    96   47  170 1    
    97   48  171 1    
    98   48  172 1    
    99   48  173 1    
   100   49   50 am   BACKBONE|DICT|INTERRES
   101   49  174 1    
   102   50   51 2    
   103   50   52 1    
   104   52   53 1    
   105   52   54 1    
   106   52  175 1    
   107   53  176 1    
   108   53  177 1    
   109   53  178 1    
   110   54   55 am   BACKBONE|DICT|INTERRES
   111   54  179 1    
   112   55   56 2    
   113   55   57 1    
   114   57   58 1    
   115   57   59 1    
   116   57  180 1    
   117   58  181 1    
   118   58  182 1    
   119   58  183 1    
   120   59   60 am   BACKBONE|DICT|INTERRES
   121   59  184 1    
   122   60   61 2    
   123   60   62 1    
   124   62   63 1    
   125   62   64 1    
   126   62  185 1    
   127   63  186 1    
   128   63  187 1    
   129   63  188 1    
   130   64   65 am   BACKBONE|DICT|INTERRES
   131   64  189 1    
   132   65   66 2    
   133   67   68 2    
   134   67   69 am   BACKBONE|DICT|INTERRES
   135   69   70 1    
   136   69  190 1    
   137   70   71 1    
   138   70   72 1    
   139   70  191 1    
   140   71  192 1    
   141   71  193 1    
   142   71  194 1    
   143   72   73 2    
   144   72   74 am   BACKBONE|DICT|INTERRES
   145   74   75 1    
   146   74  195 1    
   147   75   76 1    
   148   75   77 1    
   149   75  196 1    
   150   76  197 1    
   151   76  198 1    
   152   76  199 1    
   153   77   78 2    
   154   77   79 am   BACKBONE|DICT|INTERRES
   155   79   80 1    
   156   79  200 1    
   157   80   81 1    
   158   80   82 1    
   159   80  201 1    
   160   81  202 1    
   161   81  203 1    
   162   81  204 1    
   163   82   83 2    
   164   82   84 am   BACKBONE|DICT|INTERRES
   165   84   85 1    
   166   84  205 1    
   167   85   86 1    
   168   85   87 1    
   169   85  206 1    
   170   86  207 1    
   171   86  208 1    
   172   86  209 1    
   173   87   88 2    
   174   87   89 am   BACKBONE|DICT|INTERRES
   175   89   90 1    
   176   89  210 1    
   177   90   91 1    
   178   90   92 1    
   179   90  211 1    
   180   91  212 1    
   181   91  213 1    
   182   91  214 1    
   183   92   93 2    
   184   92   94 am   BACKBONE|DICT|INTERRES
   185   94   95 1    
   186   94  215 1    
   187   95   96 1    
   188   95   97 1    
   189   95  216 1    
   190   96  217 1    
   191   96  218 1    
   192   96  219 1    
   193   97   98 2    
   194   97   99 am   BACKBONE|DICT|INTERRES
   195   99  100 1    
   196   99  220 1    
   197  100  101 1    
   198  100  102 1    
   199  100  221 1    
   200  101  222 1    
   201  101  223 1    
   202  101  224 1    
   203  102  103 2    
   204  102  104 am   BACKBONE|DICT|INTERRES
   205  104  105 1    
   206  104  225 1    
   207  105  106 1    
   208  105  107 1    
   209  105  226 1    
   210  106  227 1    
   211  106  228 1    
   212  106  229 1    
   213  107  108 2    
   214  107  109 am   BACKBONE|DICT|INTERRES
   215  109  110 1    
   216  109  230 1    
   217  110  111 1    
   218  110  112 1    
   219  110  231 1    
   220  111  232 1    
   221  111  233 1    
   222  111  234 1    
   223  112  113 2    
   224  112  114 am   BACKBONE|DICT|INTERRES
   225  114  115 1    
   226  114  235 1    
   227  115  116 1    
   228  115  117 1    
   229  115  236 1    
   230  116  237 1    
   231  116  238 1    
   232  116  239 1    
   233  117  118 2    
   234  117  119 am   BACKBONE|DICT|INTERRES
   235  119  120 1    
   236  119  240 1    
   237  120  121 1    
   238  120  124 1    
   239  120  241 1    
   240  121  122 am   BACKBONE|DICT|INTERRES
   241  121  123 2    
   242  122  242 1    
   243  122  243 1    
   244  124  125 1    
   245  124  244 1    
   246  124  245 1    
   247  125  126 1    
   248  126  246 1    
   249  126  247 1    
@<TRIPOS>SUBSTRUCTURE
     1 UNK         1 GROUP             0       ****    0 ROOT    
