@<TRIPOS>MOLECULE
3R540
247   249    1
SMALL
USER_CHARGES


@<TRIPOS>ATOM
      1 CA          6.3414  -11.0648  -52.8638 C.3       0 UNK        -0.1800 
      2 C           5.3920  -11.8978  -52.0135 C.2       0 UNK         0.5000 
      3 O           4.2243  -11.5339  -51.8703 O.2       0 UNK        -0.5000 
      4 N           5.8920  -13.0095  -51.4567 N.am      1 UNK        -0.5000 
      5 CA          5.1737  -13.9493  -50.5827 C.3       1 UNK         0.1400 
      6 C6          4.0038  -14.6942  -51.2925 C.3       23 UNK        -0.0398 
      7 S7          4.5343  -15.5303  -52.8301 S.3       23 UNK        -0.2404 
      8 C8          4.4280  -17.2922  -52.3806 C.3       23 UNK        -0.0205 
      9 C9          2.9868  -17.7759  -52.3092 C.ar      23 UNK        -0.0193 
     10 C10         2.2409  -17.9313  -53.4826 C.ar      23 UNK        -0.1150 
     11 C11         0.9142  -18.3664  -53.4256 C.ar      23 UNK        -0.0193 
     12 C12         0.3374  -18.6501  -52.1863 C.ar      23 UNK        -0.1150 
     13 C13         1.0731  -18.5112  -51.0079 C.ar      23 UNK        -0.0193 
     14 C14         2.3999  -18.0750  -51.0752 C.ar      23 UNK        -0.1150 
     15 C15         0.4224  -18.8081  -49.6661 C.3       23 UNK        -0.0205 
     16 S16        -0.0064  -20.5697  -49.4921 S.3       23 UNK        -0.2404 
     17 C17        -0.5498  -20.5999  -47.7546 C.3       23 UNK        -0.0398 
     18 CA         -0.1723  -21.9217  -47.0396 C.3       11 UNK         0.1400 
     19 N           0.1760  -21.7103  -45.6320 N.am      11 UNK        -0.5000 
     20 C           0.6738  -22.6429  -44.8085 C.2       10 UNK         0.5000 
     21 O           0.9436  -23.7898  -45.1611 O.2       10 UNK        -0.5000 
     22 CA          0.8439  -22.2459  -43.3302 C.3       10 UNK         0.1400 
     23 CB          2.1571  -21.4813  -43.1090 C.3       10 UNK        -0.1800 
     24 N          -0.2838  -21.4547  -42.8343 N.am      10 UNK        -0.5000 
     25 C          -1.5370  -21.9203  -42.7283 C.2       9 UNK         0.5000 
     26 O          -1.8525  -23.0861  -42.9694 O.2       9 UNK        -0.5000 
     27 CA         -2.6284  -20.9050  -42.3409 C.3       9 UNK         0.1400 
     28 CB         -2.6451  -20.6704  -40.8234 C.3       9 UNK        -0.1800 
     29 N          -2.4850  -19.6256  -43.0391 N.am      9 UNK        -0.5000 
     30 C          -2.5784  -19.4731  -44.3684 C.2       8 UNK         0.5000 
     31 O          -2.8440  -20.3905  -45.1433 O.2       8 UNK        -0.5000 
     32 CA         -2.2634  -18.0790  -44.9389 C.3       8 UNK         0.1400 
     33 CB         -3.4768  -17.1463  -44.8172 C.3       8 UNK        -0.1800 
     34 N          -1.0996  -17.4615  -44.3036 N.am      8 UNK        -0.5000 
     35 C           0.1444  -17.9580  -44.3405 C.2       7 UNK         0.5000 
     36 O           0.4551  -18.9762  -44.9531 O.2       7 UNK        -0.5000 
     37 CA          1.2105  -17.2318  -43.5070 C.3       7 UNK         0.1400 
     38 CB          1.7289  -15.9853  -44.2390 C.3       7 UNK        -0.1800 
     39 N           0.7072  -16.8723  -42.1824 N.am      7 UNK        -0.5000 
     40 C           0.4131  -17.7623  -41.2232 C.2       6 UNK         0.5000 
     41 O           0.5801  -18.9764  -41.3416 O.2       6 UNK        -0.5000 
     42 CA         -0.2084  -17.2024  -39.9308 C.3       6 UNK         0.1400 
     43 CB          0.8869  -16.7218  -38.9674 C.3       6 UNK        -0.1800 
     44 N          -1.1431  -16.1057  -40.1889 N.am      6 UNK        -0.5000 
     45 C          -2.3217  -16.2483  -40.8118 C.2       5 UNK         0.5000 
     46 O          -2.7631  -17.3292  -41.2012 O.2       5 UNK        -0.5000 
     47 CA         -3.1097  -14.9550  -41.0960 C.3       5 UNK         0.1400 
     48 CB         -3.9319  -14.5394  -39.8670 C.3       5 UNK        -0.1800 
     49 N          -2.2559  -13.8374  -41.5156 N.am      5 UNK        -0.5000 
     50 C          -1.4971  -13.8442  -42.6193 C.2       4 UNK         0.5000 
     51 O          -1.4179  -14.8102  -43.3802 O.2       4 UNK        -0.5000 
     52 CA         -0.6404  -12.5924  -42.8852 C.3       4 UNK         0.1400 
     53 CB          0.6596  -12.6568  -42.0674 C.3       4 UNK        -0.1800 
     54 N          -0.2941  -12.4653  -44.3023 N.am      4 UNK        -0.5000 
     55 C          -1.1641  -12.1708  -45.2788 C.2       3 UNK         0.5000 
     56 O          -2.3419  -11.8762  -45.0671 O.2       3 UNK        -0.5000 
     57 CA         -0.6379  -12.2020  -46.7281 C.3       3 UNK         0.1400 
     58 CB         -1.1242  -10.9868  -47.5391 C.3       3 UNK        -0.1800 
     59 N           0.8271  -12.2557  -46.7905 N.am      3 UNK        -0.5000 
     60 C           1.5321  -13.1407  -47.5042 C.2       2 UNK         0.5000 
     61 O           1.0339  -14.0597  -48.1602 O.2       2 UNK        -0.5000 
     62 CA          3.0573  -12.9700  -47.4832 C.3       2 UNK         0.1400 
     63 CB          3.6800  -13.6287  -46.2391 C.3       2 UNK        -0.1800 
     64 N           3.6059  -13.5657  -48.6975 N.am      2 UNK        -0.5000 
     65 C           4.7875  -13.2632  -49.2467 C.2       1 UNK         0.5000 
     66 O           5.5836  -12.4762  -48.7265 O.2       1 UNK        -0.5000 
     67 C          -1.2799  -22.9811  -47.2048 C.2       11 UNK         0.5000 
     68 O          -1.1621  -23.8512  -48.0655 O.2       11 UNK        -0.5000 
     69 N          -2.3093  -22.9191  -46.3483 N.am      12 UNK        -0.5000 
     70 CA         -3.4095  -23.8807  -46.3007 C.3       12 UNK         0.1400 
     71 CB         -4.5139  -23.3665  -45.3654 C.3       12 UNK        -0.1800 
     72 C          -2.9471  -25.2875  -45.8858 C.2       12 UNK         0.5000 
     73 O          -3.3981  -26.2706  -46.4722 O.2       12 UNK        -0.5000 
     74 N          -2.0281  -25.3648  -44.9150 N.am      13 UNK        -0.5000 
     75 CA         -1.3953  -26.6143  -44.4931 C.3       13 UNK         0.1400 
     76 CB         -0.5981  -26.3745  -43.2018 C.3       13 UNK        -0.1800 
     77 C          -0.5003  -27.2259  -45.5897 C.2       13 UNK         0.5000 
     78 O          -0.5055  -28.4446  -45.7675 O.2       13 UNK        -0.5000 
     79 N           0.2472  -26.3721  -46.3008 N.am      14 UNK        -0.5000 
     80 CA          1.1873  -26.7671  -47.3460 C.3       14 UNK         0.1400 
     81 CB          2.2133  -25.6417  -47.5541 C.3       14 UNK        -0.1800 
     82 C           0.5149  -27.1264  -48.6828 C.2       14 UNK         0.5000 
     83 O           0.8967  -28.1268  -49.2924 O.2       14 UNK        -0.5000 
     84 N          -0.4258  -26.2903  -49.1422 N.am      15 UNK        -0.5000 
     85 CA         -0.9076  -26.2851  -50.5254 C.3       15 UNK         0.1400 
     86 CB         -0.0119  -25.3482  -51.3592 C.3       15 UNK        -0.1800 
     87 C          -2.4058  -25.9515  -50.6648 C.2       15 UNK         0.5000 
     88 O          -2.8409  -25.6200  -51.7696 O.2       15 UNK        -0.5000 
     89 N          -3.1783  -26.0820  -49.5744 N.am      16 UNK        -0.5000 
     90 CA         -4.6451  -26.0158  -49.5147 C.3       16 UNK         0.1400 
     91 CB         -5.2448  -27.3218  -50.0822 C.3       16 UNK        -0.1800 
     92 C          -5.2336  -24.7389  -50.1513 C.2       16 UNK         0.5000 
     93 O          -5.1529  -23.6662  -49.5506 O.2       16 UNK        -0.5000 
     94 N          -5.7975  -24.8760  -51.3602 N.am      17 UNK        -0.5000 
     95 CA         -6.4393  -23.8249  -52.1529 C.3       17 UNK         0.1400 
     96 CB         -7.0055  -24.4494  -53.4369 C.3       17 UNK        -0.1800 
     97 C          -5.5370  -22.6227  -52.4926 C.2       17 UNK         0.5000 
     98 O          -6.0643  -21.5537  -52.7975 O.2       17 UNK        -0.5000 
     99 N          -4.2089  -22.7870  -52.3927 N.am      18 UNK        -0.5000 
    100 CA        -3.2195  -21.7151  -52.5297 C.3       18 UNK         0.1400 
    101 CB        -1.8132  -22.3002  -52.3488 C.3       18 UNK        -0.1800 
    102 C         -3.4369  -20.5425  -51.5508 C.2       18 UNK         0.5000 
    103 O         -3.1629  -19.3973  -51.9102 O.2       18 UNK        -0.5000 
    104 N         -3.9753  -20.8364  -50.3571 N.am      19 UNK        -0.5000 
    105 CA        -4.3260  -19.8461  -49.3382 C.3       19 UNK         0.1400 
    106 CB        -4.7279  -20.5748  -48.0499 C.3       19 UNK        -0.1800 
    107 C         -5.4437  -18.8770  -49.7714 C.2       19 UNK         0.5000 
    108 O         -5.4882  -17.7508  -49.2751 O.2       19 UNK        -0.5000 
    109 N         -6.3069  -19.3017  -50.7055 N.am      20 UNK        -0.5000 
    110 CA        -7.3783  -18.4946  -51.2874 C.3       20 UNK         0.1400 
    111 CB        -8.5371  -19.4188  -51.7036 C.3       20 UNK        -0.1800 
    112 C         -6.8405  -17.6403  -52.4527 C.2       20 UNK         0.5000 
    113 O         -7.2849  -17.7922  -53.5926 O.2       20 UNK        -0.5000 
    114 N         -5.8643  -16.7746  -52.1402 N.am      21 UNK        -0.5000 
    115 CA        -5.2026  -15.8104  -53.0291 C.3       21 UNK         0.1400 
    116 CB        -6.1593  -14.6399  -53.3370 C.3       21 UNK        -0.1800 
    117 C         -4.6096  -16.4499  -54.3043 C.2       21 UNK         0.5000 
    118 O         -4.7406  -15.8917  -55.3955 O.2       21 UNK        -0.5000 
    119 N         -3.9912  -17.6260  -54.1383 N.am      22 UNK        -0.5000 
    120 CA        -3.4238  -18.4723  -55.2022 C.3       22 UNK         0.1400 
    121 C         -4.4781  -19.1591  -56.1242 C.2       22 UNK         0.5000 
    122 N         -5.7702  -19.1189  -55.8196 N.am      22 UNK        -0.7600 
    123 O         -4.1161  -19.7747  -57.1231 O.2       22 UNK        -0.5000 
    124 C124       -2.2793  -17.7927  -56.0117 C.3       23 UNK        -0.0398 
    125 S125       -0.9772  -17.0790  -54.9498 S.3       23 UNK        -0.2404 
    126 C126        0.0906  -18.5274  -54.6914 C.3       23 UNK        -0.0205 
    127 H127        5.9596  -10.9832  -53.8815 H         1 UNK         0.0600 
    128 H128        7.3380  -11.5046  -52.9092 H         1 UNK         0.0600 
    129 H129        6.4317  -10.0602  -52.4505 H         1 UNK         0.0600 
    130 H130        6.8673  -13.2279  -51.6024 H         1 UNK         0.3000 
    131 H131        5.9080  -14.7071  -50.3057 H         1 UNK         0.0600 
    132 H132        3.5636  -15.4377  -50.6277 H         1 UNK         0.0800 
    133 H133        3.2008  -14.0011  -51.5474 H         1 UNK         0.0800 
    134 H134        4.9482  -17.4614  -51.4364 H         1 UNK         0.0800 
    135 H135        4.9614  -17.8779  -53.1306 H         1 UNK         0.0800 
    136 H136        2.6915  -17.7009  -54.4380 H         1 UNK         0.1150 
    137 H137       -0.6899  -18.9780  -52.1375 H         1 UNK         0.1150 
    138 H138        2.9739  -17.9609  -50.1663 H         1 UNK         0.1150 
    139 H139        1.0872  -18.5130  -48.8527 H         1 UNK         0.0800 
    140 H140       -0.4821  -18.2063  -49.5642 H         1 UNK         0.0800 
    141 H141       -1.6186  -20.3880  -47.7012 H         1 UNK         0.0800 
    142 H142       -0.0663  -19.7620  -47.2571 H         1 UNK         0.0800 
    143 H143        0.7294  -22.3240  -47.5066 H         1 UNK         0.0600 
    144 H144        0.0483  -20.7684  -45.2705 H         1 UNK         0.3000 
    145 H145        0.8882  -23.1663  -42.7442 H         1 UNK         0.0600 
    146 H146        2.1771  -20.5403  -43.6581 H         1 UNK         0.0600 
    147 H147        2.3068  -21.2540  -42.0534 H         1 UNK         0.0600 
    148 H148        3.0120  -22.0723  -43.4398 H         1 UNK         0.0600 
    149 H149       -0.0910  -20.4927  -42.5764 H         1 UNK         0.3000 
    150 H150       -3.5919  -21.3316  -42.6273 H         1 UNK         0.0600 
    151 H151       -2.7718  -21.6101  -40.2844 H         1 UNK         0.0600 
    152 H152       -3.4684  -20.0166  -40.5354 H         1 UNK         0.0600 
    153 H153       -1.7186  -20.2139  -40.4750 H         1 UNK         0.0600 
    154 H154       -2.3179  -18.8070  -42.4622 H         1 UNK         0.3000 
    155 H155       -2.0352  -18.1999  -45.9998 H         1 UNK         0.0600 
    156 H156       -3.7493  -16.9730  -43.7760 H         1 UNK         0.0600 
    157 H157       -3.2758  -16.1774  -45.2748 H         1 UNK         0.0600 
    158 H158       -4.3468  -17.5708  -45.3200 H         1 UNK         0.0600 
    159 H159       -1.2580  -16.5811  -43.8177 H         1 UNK         0.3000 
    160 H160        2.0516  -17.9157  -43.3742 H         1 UNK         0.0600 
    161 H161        2.1372  -16.2601  -45.2118 H         1 UNK         0.0600 
    162 H162        0.9415  -15.2535  -44.4152 H         1 UNK         0.0600 
    163 H163        2.5249  -15.4975  -43.6765 H         1 UNK         0.0600 
    164 H164        0.4867  -15.9011  -42.0261 H         1 UNK         0.3000 
    165 H165       -0.7579  -18.0127  -39.4468 H         1 UNK         0.0600 
    166 H166        0.4611  -16.3918  -38.0197 H         1 UNK         0.0600 
    167 H167        1.5897  -17.5257  -38.7443 H         1 UNK         0.0600 
    168 H168        1.4586  -15.8925  -39.3861 H         1 UNK         0.0600 
    169 H169       -0.8576  -15.1815  -39.9011 H         1 UNK         0.3000 
    170 H170       -3.8033  -15.1670  -41.9124 H         1 UNK         0.0600 
    171 H171       -4.5880  -15.3492  -39.5447 H         1 UNK         0.0600 
    172 H172       -3.2930  -14.2785  -39.0224 H         1 UNK         0.0600 
    173 H173       -4.5645  -13.6796  -40.0882 H         1 UNK         0.0600 
    174 H174       -2.2658  -13.0157  -40.9284 H         1 UNK         0.3000 
    175 H175       -1.2073  -11.7091  -42.5838 H         1 UNK         0.0600 
    176 H176        1.2658  -13.5222  -42.3375 H         1 UNK         0.0600 
    177 H177        1.2655  -11.7637  -42.2216 H         1 UNK         0.0600 
    178 H178        0.4507  -12.7228  -40.9989 H         1 UNK         0.0600 
    179 H179        0.6381  -12.7445  -44.5645 H         1 UNK         0.3000 
    180 H180       -1.0677  -13.0999  -47.1766 H         1 UNK         0.0600 
    181 H181       -0.7640  -10.0500  -47.1123 H         1 UNK         0.0600 
    182 H182       -2.2135  -10.9393  -47.5677 H         1 UNK         0.0600 
    183 H183       -0.7783  -11.0397  -48.5715 H         1 UNK         0.0600 
    184 H184        1.3162  -11.5259  -46.2900 H         1 UNK         0.3000 
    185 H185        3.2777  -11.9002  -47.4780 H         1 UNK         0.0600 
    186 H186        4.7446  -13.4065  -46.1664 H         1 UNK         0.0600 
    187 H187        3.2129  -13.2693  -45.3215 H         1 UNK         0.0600 
    188 H188        3.5704  -14.7125  -46.2664 H         1 UNK         0.0600 
    189 H189        2.9602  -14.1894  -49.1656 H         1 UNK         0.3000 
    190 H190       -2.3645  -22.1327  -45.7061 H         1 UNK         0.3000 
    191 H191       -3.8251  -23.9518  -47.3061 H         1 UNK         0.0600 
    192 H192       -4.1598  -23.2625  -44.3400 H         1 UNK         0.0600 
    193 H193       -5.3623  -24.0517  -45.3523 H         1 UNK         0.0600 
    194 H194       -4.8868  -22.3949  -45.6886 H         1 UNK         0.0600 
    195 H195       -1.7416  -24.5153  -44.4395 H         1 UNK         0.3000 
    196 H196       -2.1866  -27.3334  -44.2712 H         1 UNK         0.0600 
    197 H197       -0.1492  -27.3015  -42.8431 H         1 UNK         0.0600 
    198 H198       -1.2406  -25.9943  -42.4073 H         1 UNK         0.0600 
    199 H199        0.2078  -25.6560  -43.3510 H         1 UNK         0.0600 
    200 H200        0.2410  -25.3895  -46.0434 H         1 UNK         0.3000 
    201 H201        1.7310  -27.6496  -47.0016 H         1 UNK         0.0600 
    202 H202        2.7690  -25.4415  -46.6379 H         1 UNK         0.0600 
    203 H203        1.7339  -24.7119  -47.8633 H         1 UNK         0.0600 
    204 H204        2.9391  -25.9094  -48.3230 H         1 UNK         0.0600 
    205 H205       -0.6753  -25.4670  -48.5932 H         1 UNK         0.3000 
    206 H206       -0.8148  -27.2891  -50.9439 H         1 UNK         0.0600 
    207 H207        1.0207  -25.6972  -51.3666 H         1 UNK         0.0600 
    208 H208       -0.3376  -25.2961  -52.3986 H         1 UNK         0.0600 
    209 H209       -0.0146  -24.3352  -50.9563 H         1 UNK         0.0600 
    210 H210       -2.7275  -26.3187  -48.7002 H         1 UNK         0.3000 
    211 H211       -4.9254  -25.9692  -48.4635 H         1 UNK         0.0600 
    212 H212       -4.9505  -27.4983  -51.1174 H         1 UNK         0.0600 
    213 H213       -6.3348  -27.3077  -50.0406 H         1 UNK         0.0600 
    214 H214       -4.9157  -28.1818  -49.4986 H         1 UNK         0.0600 
    215 H215       -5.7664  -25.7911  -51.7854 H         1 UNK         0.3000 
    216 H216       -7.2732  -23.4386  -51.5636 H         1 UNK         0.0600 
    217 H217       -7.5211  -23.7021  -54.0419 H         1 UNK         0.0600 
    218 H218       -7.7269  -25.2346  -53.2103 H         1 UNK         0.0600 
    219 H219       -6.2168  -24.8833  -54.0529 H         1 UNK         0.0600 
    220 H220       -3.8563  -23.7045  -52.1437 H         1 UNK         0.3000 
    221 H221       -3.3035  -21.3246  -53.5446 H         1 UNK         0.0600 
    222 H222       -1.6820  -22.7060  -51.3450 H         1 UNK         0.0600 
    223 H223       -1.6200  -23.0995  -53.0644 H         1 UNK         0.0600 
    224 H224       -1.0480  -21.5370  -52.4966 H         1 UNK         0.0600 
    225 H225       -4.2093  -21.8013  -50.1505 H         1 UNK         0.3000 
    226 H226       -3.4343  -19.2502  -49.1329 H         1 UNK         0.0600 
    227 H227       -3.9328  -21.2359  -47.7132 H         1 UNK         0.0600 
    228 H228       -4.9256  -19.8685  -47.2424 H         1 UNK         0.0600 
    229 H229       -5.6252  -21.1787  -48.1904 H         1 UNK         0.0600 
    230 H230       -6.1526  -20.2049  -51.1381 H         1 UNK         0.3000 
    231 H231       -7.7658  -17.8076  -50.5322 H         1 UNK         0.0600 
    232 H232       -9.3804  -18.8385  -52.0799 H         1 UNK         0.0600 
    233 H233       -8.8978  -20.0046  -50.8581 H         1 UNK         0.0600 
    234 H234       -8.2425  -20.1129  -52.4907 H         1 UNK         0.0600 
    235 H235       -5.5500  -16.7716  -51.1762 H         1 UNK         0.3000 
    236 H236       -4.3558  -15.4079  -52.4714 H         1 UNK         0.0600 
    237 H237       -5.6527  -13.8564  -53.9019 H         1 UNK         0.0600 
    238 H238       -6.5340  -14.1852  -52.4201 H         1 UNK         0.0600 
    239 H239       -7.0181  -14.9660  -53.9248 H         1 UNK         0.0600 
    240 H240       -3.9177  -18.0167  -53.2047 H         1 UNK         0.3000 
    241 H241       -2.9663  -19.3036  -54.6688 H         1 UNK         0.0600 
    242 H242       -6.1091  -18.6182  -55.0048 H         1 UNK         0.3800 
    243 H243       -6.4308  -19.5829  -56.4219 H         1 UNK         0.3800 
    244 H244       -1.8138  -18.5052  -56.6948 H         1 UNK         0.0800 
    245 H245       -2.6789  -16.9966  -56.6410 H         1 UNK         0.0800 
    246 H246       -0.5161  -19.4305  -54.6096 H         1 UNK         0.0800 
    247 H247        0.7358  -18.6641  -55.5605 H         1 UNK         0.0800 
@<TRIPOS>BOND
     1    1    2 1    
     2    1  127 1    
     3    1  128 1    
     4    1  129 1    
     5    2    3 2    
     6    2    4 am   BACKBONE|DICT|INTERRES
     7    4    5 1    
     8    4  130 1    
     9    5    6 1    
    10    5   65 1    
    11    5  131 1    
    12    6    7 1    
    13    6  132 1    
    14    6  133 1    
    15    7    8 1    
    16    8    9 1    
    17    8  134 1    
    18    8  135 1    
    19    9   10 ar   
    20    9   14 ar   
    21   10   11 ar   
    22   10  136 1    
    23   11   12 ar   
    24   11  126 1    
    25   12   13 ar   
    26   12  137 1    
    27   13   14 ar   
    28   13   15 1    
    29   14  138 1    
    30   15   16 1    
    31   15  139 1    
    32   15  140 1    
    33   16   17 1    
    34   17   18 1    
    35   17  141 1    
    36   17  142 1    
    37   18   19 1    
    38   18   67 1    
    39   18  143 1    
    40   19   20 am   BACKBONE|DICT|INTERRES
    41   19  144 1    
    42   20   21 2    
    43   20   22 1    
    44   22   23 1    
    45   22   24 1    
    46   22  145 1    
    47   23  146 1    
    48   23  147 1    
    49   23  148 1    
    50   24   25 am   BACKBONE|DICT|INTERRES
    51   24  149 1    
    52   25   26 2    
    53   25   27 1    
    54   27   28 1    
    55   27   29 1    
    56   27  150 1    
    57   28  151 1    
    58   28  152 1    
    59   28  153 1    
    60   29   30 am   BACKBONE|DICT|INTERRES
    61   29  154 1    
    62   30   31 2    
    63   30   32 1    
    64   32   33 1    
    65   32   34 1    
    66   32  155 1    
    67   33  156 1    
    68   33  157 1    
    69   33  158 1    
    70   34   35 am   BACKBONE|DICT|INTERRES
    71   34  159 1    
    72   35   36 2    
    73   35   37 1    
    74   37   38 1    
    75   37   39 1    
    76   37  160 1    
    77   38  161 1    
    78   38  162 1    
    79   38  163 1    
    80   39   40 am   BACKBONE|DICT|INTERRES
    81   39  164 1    
    82   40   41 2    
    83   40   42 1    
    84   42   43 1    
    85   42   44 1    
    86   42  165 1    
    87   43  166 1    
    88   43  167 1    
    89   43  168 1    
    90   44   45 am   BACKBONE|DICT|INTERRES
    91   44  169 1    
    92   45   46 2    
    93   45   47 1    
    94   47   48 1    
    95   47   49 1    
    96   47  170 1    
    97   48  171 1    
    98   48  172 1    
    99   48  173 1    
   100   49   50 am   BACKBONE|DICT|INTERRES
   101   49  174 1    
   102   50   51 2    
   103   50   52 1    
   104   52   53 1    
   105   52   54 1    
   106   52  175 1    
   107   53  176 1    
   108   53  177 1    
   109   53  178 1    
   110   54   55 am   BACKBONE|DICT|INTERRES
   111   54  179 1    
   112   55   56 2    
   113   55   57 1    
   114   57   58 1    
   115   57   59 1    
   116   57  180 1    
   117   58  181 1    
   118   58  182 1    
   119   58  183 1    
   120   59   60 am   BACKBONE|DICT|INTERRES
   121   59  184 1    
   122   60   61 2    
   123   60   62 1    
   124   62   63 1    
   125   62   64 1    
   126   62  185 1    
   127   63  186 1    
   128   63  187 1    
   129   63  188 1    
   130   64   65 am   BACKBONE|DICT|INTERRES
   131   64  189 1    
   132   65   66 2    
   133   67   68 2    
   134   67   69 am   BACKBONE|DICT|INTERRES
   135   69   70 1    
   136   69  190 1    
   137   70   71 1    
   138   70   72 1    
   139   70  191 1    
   140   71  192 1    
   141   71  193 1    
   142   71  194 1    
   143   72   73 2    
   144   72   74 am   BACKBONE|DICT|INTERRES
   145   74   75 1    
   146   74  195 1    
   147   75   76 1    
   148   75   77 1    
   149   75  196 1    
   150   76  197 1    
   151   76  198 1    
   152   76  199 1    
   153   77   78 2    
   154   77   79 am   BACKBONE|DICT|INTERRES
   155   79   80 1    
   156   79  200 1    
   157   80   81 1    
   158   80   82 1    
   159   80  201 1    
   160   81  202 1    
   161   81  203 1    
   162   81  204 1    
   163   82   83 2    
   164   82   84 am   BACKBONE|DICT|INTERRES
   165   84   85 1    
   166   84  205 1    
   167   85   86 1    
   168   85   87 1    
   169   85  206 1    
   170   86  207 1    
   171   86  208 1    
   172   86  209 1    
   173   87   88 2    
   174   87   89 am   BACKBONE|DICT|INTERRES
   175   89   90 1    
   176   89  210 1    
   177   90   91 1    
   178   90   92 1    
   179   90  211 1    
   180   91  212 1    
   181   91  213 1    
   182   91  214 1    
   183   92   93 2    
   184   92   94 am   BACKBONE|DICT|INTERRES
   185   94   95 1    
   186   94  215 1    
   187   95   96 1    
   188   95   97 1    
   189   95  216 1    
   190   96  217 1    
   191   96  218 1    
   192   96  219 1    
   193   97   98 2    
   194   97   99 am   BACKBONE|DICT|INTERRES
   195   99  100 1    
   196   99  220 1    
   197  100  101 1    
   198  100  102 1    
   199  100  221 1    
   200  101  222 1    
   201  101  223 1    
   202  101  224 1    
   203  102  103 2    
   204  102  104 am   BACKBONE|DICT|INTERRES
   205  104  105 1    
   206  104  225 1    
   207  105  106 1    
   208  105  107 1    
   209  105  226 1    
   210  106  227 1    
   211  106  228 1    
   212  106  229 1    
   213  107  108 2    
   214  107  109 am   BACKBONE|DICT|INTERRES
   215  109  110 1    
   216  109  230 1    
   217  110  111 1    
   218  110  112 1    
   219  110  231 1    
   220  111  232 1    
   221  111  233 1    
   222  111  234 1    
   223  112  113 2    
   224  112  114 am   BACKBONE|DICT|INTERRES
   225  114  115 1    
   226  114  235 1    
   227  115  116 1    
   228  115  117 1    
   229  115  236 1    
   230  116  237 1    
   231  116  238 1    
   232  116  239 1    
   233  117  118 2    
   234  117  119 am   BACKBONE|DICT|INTERRES
   235  119  120 1    
   236  119  240 1    
   237  120  121 1    
   238  120  124 1    
   239  120  241 1    
   240  121  122 am   BACKBONE|DICT|INTERRES
   241  121  123 2    
   242  122  242 1    
   243  122  243 1    
   244  124  125 1    
   245  124  244 1    
   246  124  245 1    
   247  125  126 1    
   248  126  246 1    
   249  126  247 1    
@<TRIPOS>SUBSTRUCTURE
     1 UNK         1 GROUP             0       ****    0 ROOT    
