@<TRIPOS>MOLECULE
3R540
247   249    1
SMALL
USER_CHARGES


@<TRIPOS>ATOM
      1 CA          5.7018  -12.2111  -43.3412 C.3       0 UNK        -0.1800 
      2 C           4.8259  -12.8010  -44.4378 C.2       0 UNK         0.5000 
      3 O           3.6044  -12.6638  -44.3828 O.2       0 UNK        -0.5000 
      4 N           5.4468  -13.4601  -45.4242 N.am      1 UNK        -0.5000 
      5 CA          4.7907  -14.0406  -46.5985 C.3       1 UNK         0.1400 
      6 C6          5.7564  -15.0040  -47.3383 C.3       23 UNK        -0.0398 
      7 S7          5.0210  -15.8454  -48.7807 S.3       23 UNK        -0.2404 
      8 C8          4.1549  -17.2213  -47.9664 C.3       23 UNK        -0.0205 
      9 C9          3.0629  -17.8009  -48.8515 C.ar      23 UNK        -0.0193 
     10 C10         2.0276  -16.9778  -49.2981 C.ar      23 UNK        -0.1150 
     11 C11         1.0095  -17.4853  -50.1044 C.ar      23 UNK        -0.0193 
     12 C12         1.0125  -18.8414  -50.4440 C.ar      23 UNK        -0.1150 
     13 C13         2.0366  -19.6844  -49.9968 C.ar      23 UNK        -0.0193 
     14 C14         3.0665  -19.1523  -49.2093 C.ar      23 UNK        -0.1150 
     15 C15         2.0475  -21.1504  -50.4227 C.3       23 UNK        -0.0205 
     16 S16         2.4597  -22.3089  -49.0753 S.3       23 UNK        -0.2404 
     17 C17         1.0092  -22.1547  -47.9819 C.3       23 UNK        -0.0398 
     18 CA          0.6375  -23.5030  -47.3218 C.3       11 UNK         0.1400 
     19 N           1.7274  -24.0119  -46.4848 N.am      11 UNK        -0.5000 
     20 C           1.8444  -25.2722  -46.0528 C.2       10 UNK         0.5000 
     21 O           1.0328  -26.1600  -46.3107 O.2       10 UNK        -0.5000 
     22 CA          3.0537  -25.5728  -45.1479 C.3       10 UNK         0.1400 
     23 CB          4.3061  -25.8459  -45.9939 C.3       10 UNK        -0.1800 
     24 N           3.3315  -24.4848  -44.2061 N.am      10 UNK        -0.5000 
     25 C           2.5343  -24.1617  -43.1781 C.2       9 UNK         0.5000 
     26 O           1.5024  -24.7716  -42.9009 O.2       9 UNK        -0.5000 
     27 CA          2.9264  -22.9207  -42.3514 C.3       9 UNK         0.1400 
     28 CB          3.9547  -23.2944  -41.2734 C.3       9 UNK        -0.1800 
     29 N           3.4416  -21.8003  -43.1483 N.am      9 UNK        -0.5000 
     30 C           2.7792  -21.2042  -44.1485 C.2       8 UNK         0.5000 
     31 O           1.6873  -21.5934  -44.5655 O.2       8 UNK        -0.5000 
     32 CA          3.4731  -20.0116  -44.8326 C.3       8 UNK         0.1400 
     33 CB          4.5687  -20.5191  -45.7839 C.3       8 UNK        -0.1800 
     34 N           2.5136  -19.2148  -45.6002 N.am      8 UNK        -0.5000 
     35 C           1.5836  -18.4144  -45.0630 C.2       7 UNK         0.5000 
     36 O           1.5437  -18.1063  -43.8689 O.2       7 UNK        -0.5000 
     37 CA          0.4831  -17.9407  -46.0269 C.3       7 UNK         0.1400 
     38 CB         -0.6074  -19.0108  -46.1741 C.3       7 UNK        -0.1800 
     39 N          -0.1748  -16.7211  -45.5882 N.am      7 UNK        -0.5000 
     40 C           0.2860  -15.4737  -45.7073 C.2       6 UNK         0.5000 
     41 O           1.4077  -15.1880  -46.1312 O.2       6 UNK        -0.5000 
     42 CA         -0.7338  -14.3778  -45.3241 C.3       6 UNK         0.1400 
     43 CB         -0.1846  -12.9478  -45.4516 C.3       6 UNK        -0.1800 
     44 N          -1.9573  -14.5035  -46.1271 N.am      6 UNK        -0.5000 
     45 C          -2.9545  -15.3667  -45.8816 C.2       5 UNK         0.5000 
     46 O          -2.9698  -16.0954  -44.8875 O.2       5 UNK        -0.5000 
     47 CA         -4.0806  -15.5025  -46.9298 C.3       5 UNK         0.1400 
     48 CB         -5.4552  -15.7739  -46.2847 C.3       5 UNK        -0.1800 
     49 N          -4.1677  -14.4047  -47.8975 N.am      5 UNK        -0.5000 
     50 C          -4.4774  -13.1222  -47.6646 C.2       4 UNK         0.5000 
     51 O          -4.6748  -12.6459  -46.5455 O.2       4 UNK        -0.5000 
     52 CA         -4.5765  -12.2428  -48.9257 C.3       4 UNK         0.1400 
     53 CB         -4.8870  -10.7594  -48.6301 C.3       4 UNK        -0.1800 
     54 N          -3.3961  -12.3966  -49.7841 N.am      4 UNK        -0.5000 
     55 C          -2.1440  -12.0013  -49.5167 C.2       3 UNK         0.5000 
     56 O          -1.8229  -11.3824  -48.4992 O.2       3 UNK        -0.5000 
     57 CA         -1.0846  -12.3409  -50.5890 C.3       3 UNK         0.1400 
     58 CB         -1.3692  -11.5947  -51.9037 C.3       3 UNK        -0.1800 
     59 N           0.2702  -11.9996  -50.1491 N.am      3 UNK        -0.5000 
     60 C           0.9588  -12.6850  -49.2300 C.2       2 UNK         0.5000 
     61 O           0.5841  -13.7622  -48.7668 O.2       2 UNK        -0.5000 
     62 CA          2.2680  -12.0491  -48.7362 C.3       2 UNK         0.1400 
     63 CB          2.0070  -10.7182  -47.9999 C.3       2 UNK        -0.1800 
     64 N           2.9589  -12.9836  -47.8516 N.am      2 UNK        -0.5000 
     65 C           4.2517  -12.9212  -47.5163 C.2       1 UNK         0.5000 
     66 O           5.0208  -12.0382  -47.9058 O.2       1 UNK        -0.5000 
     67 C          -0.6854  -23.3981  -46.5326 C.2       11 UNK         0.5000 
     68 O          -1.7505  -23.5749  -47.1219 O.2       11 UNK        -0.5000 
     69 N          -0.5883  -23.1315  -45.2225 N.am      12 UNK        -0.5000 
     70 CA         -1.6951  -23.1167  -44.2672 C.3       12 UNK         0.1400 
     71 CB         -1.2826  -22.2974  -43.0354 C.3       12 UNK        -0.1800 
     72 C          -2.1613  -24.5259  -43.8609 C.2       12 UNK         0.5000 
     73 O          -3.3450  -24.7042  -43.5714 O.2       12 UNK        -0.5000 
     74 N          -1.2395  -25.4997  -43.8427 N.am      13 UNK        -0.5000 
     75 CA         -1.5473  -26.9189  -43.6499 C.3       13 UNK         0.1400 
     76 CB         -0.2607  -27.6863  -43.3089 C.3       13 UNK        -0.1800 
     77 C          -2.2407  -27.5225  -44.8863 C.2       13 UNK         0.5000 
     78 O          -3.1590  -28.3311  -44.7410 O.2       13 UNK        -0.5000 
     79 N          -1.8024  -27.0933  -46.0762 N.am      14 UNK        -0.5000 
     80 CA         -2.4472  -27.3462  -47.3620 C.3       14 UNK         0.1400 
     81 CB         -1.4110  -27.0970  -48.4732 C.3       14 UNK        -0.1800 
     82 C          -3.6977  -26.4618  -47.5630 C.2       14 UNK         0.5000 
     83 O          -4.0379  -25.6385  -46.7117 O.2       14 UNK        -0.5000 
     84 N          -4.3583  -26.6295  -48.7152 N.am      15 UNK        -0.5000 
     85 CA         -5.4879  -25.7967  -49.1388 C.3       15 UNK         0.1400 
     86 CB         -6.2930  -26.5577  -50.2035 C.3       15 UNK        -0.1800 
     87 C          -5.0596  -24.4176  -49.6821 C.2       15 UNK         0.5000 
     88 O          -5.9121  -23.5404  -49.8186 O.2       15 UNK        -0.5000 
     89 N          -3.7660  -24.2524  -50.0003 N.am      16 UNK        -0.5000 
     90 CA         -3.1759  -23.0976  -50.6856 C.3       16 UNK         0.1400 
     91 CB         -1.6620  -23.3139  -50.8304 C.3       16 UNK        -0.1800 
     92 C          -3.4662  -21.7289  -50.0425 C.2       16 UNK         0.5000 
     93 O          -3.6357  -20.7528  -50.7706 O.2       16 UNK        -0.5000 
     94 N          -3.5430  -21.6833  -48.7057 N.am      17 UNK        -0.5000 
     95 CA         -3.8892  -20.4823  -47.9436 C.3       17 UNK         0.1400 
     96 CB         -3.6396  -20.7383  -46.4538 C.3       17 UNK        -0.1800 
     97 C          -5.3376  -20.0001  -48.1563 C.2       17 UNK         0.5000 
     98 O          -5.5847  -18.7963  -48.0867 O.2       17 UNK        -0.5000 
     99 N          -6.2625  -20.9419  -48.3835 N.am      18 UNK        -0.5000 
    100 CA        -7.6879  -20.6761  -48.5805 C.3       18 UNK         0.1400 
    101 CB        -8.4972  -21.8099  -47.9313 C.3       18 UNK        -0.1800 
    102 C         -8.0490  -20.5470  -50.0698 C.2       18 UNK         0.5000 
    103 O         -8.9630  -19.7946  -50.4108 O.2       18 UNK        -0.5000 
    104 N         -7.3393  -21.2944  -50.9239 N.am      19 UNK        -0.5000 
    105 CA        -7.4840  -21.3025  -52.3769 C.3       19 UNK         0.1400 
    106 CB        -6.6857  -22.4954  -52.9301 C.3       19 UNK        -0.1800 
    107 C         -7.0130  -19.9910  -53.0343 C.2       19 UNK         0.5000 
    108 O         -6.3530  -19.1638  -52.3992 O.2       19 UNK        -0.5000 
    109 N         -7.3005  -19.8575  -54.3365 N.am      20 UNK        -0.5000 
    110 CA        -6.9121  -18.7308  -55.1968 C.3       20 UNK         0.1400 
    111 CB        -7.5423  -18.9317  -56.5840 C.3       20 UNK        -0.1800 
    112 C         -5.3887  -18.5007  -55.3222 C.2       20 UNK         0.5000 
    113 O         -4.9739  -17.4410  -55.7927 O.2       20 UNK        -0.5000 
    114 N         -4.5865  -19.4784  -54.8778 N.am      21 UNK        -0.5000 
    115 CA        -3.1375  -19.3870  -54.7101 C.3       21 UNK         0.1400 
    116 CB        -2.5925  -20.7785  -54.3502 C.3       21 UNK        -0.1800 
    117 C         -2.6980  -18.3481  -53.6562 C.2       21 UNK         0.5000 
    118 O         -1.5729  -17.8568  -53.7508 O.2       21 UNK        -0.5000 
    119 N         -3.5714  -18.0221  -52.6921 N.am      22 UNK        -0.5000 
    120 CA        -3.3182  -17.0149  -51.6512 C.3       22 UNK         0.1400 
    121 C         -4.5573  -16.1637  -51.2606 C.2       22 UNK         0.5000 
    122 N         -5.7852  -16.5883  -51.5267 N.am      22 UNK        -0.7600 
    123 O         -4.3985  -15.0708  -50.7235 O.2       22 UNK        -0.5000 
    124 C124       -2.6222  -17.6351  -50.4110 C.3       23 UNK        -0.0398 
    125 S125       -1.5158  -16.4680  -49.5563 S.3       23 UNK        -0.2404 
    126 C126       -0.0561  -16.5445  -50.6389 C.3       23 UNK        -0.0205 
    127 H127        6.7591  -12.4154  -43.5114 H         1 UNK         0.0600 
    128 H128        5.4259  -12.6313  -42.3740 H         1 UNK         0.0600 
    129 H129        5.5676  -11.1304  -43.2952 H         1 UNK         0.0600 
    130 H130        6.4555  -13.5067  -45.4204 H         1 UNK         0.3000 
    131 H131        3.9461  -14.6276  -46.2356 H         1 UNK         0.0600 
    132 H132        6.6377  -14.4611  -47.6843 H         1 UNK         0.0800 
    133 H133        6.1262  -15.7639  -46.6482 H         1 UNK         0.0800 
    134 H134        4.8886  -17.9813  -47.6997 H         1 UNK         0.0800 
    135 H135        3.6995  -16.8779  -47.0368 H         1 UNK         0.0800 
    136 H136        2.0207  -15.9327  -49.0218 H         1 UNK         0.1150 
    137 H137        0.2292  -19.2331  -51.0774 H         1 UNK         0.1150 
    138 H138        3.8729  -19.7915  -48.8783 H         1 UNK         0.1150 
    139 H139        1.0868  -21.4379  -50.8520 H         1 UNK         0.0800 
    140 H140        2.7850  -21.2688  -51.2173 H         1 UNK         0.0800 
    141 H141        0.1676  -21.7552  -48.5511 H         1 UNK         0.0800 
    142 H142        1.2566  -21.4156  -47.2226 H         1 UNK         0.0800 
    143 H143        0.4695  -24.2281  -48.1207 H         1 UNK         0.0600 
    144 H144        2.4144  -23.3347  -46.1899 H         1 UNK         0.3000 
    145 H145        2.8256  -26.4740  -44.5746 H         1 UNK         0.0600 
    146 H146        5.1514  -26.1294  -45.3666 H         1 UNK         0.0600 
    147 H147        4.1326  -26.6647  -46.6935 H         1 UNK         0.0600 
    148 H148        4.5986  -24.9720  -46.5776 H         1 UNK         0.0600 
    149 H149        4.1619  -23.9344  -44.3676 H         1 UNK         0.3000 
    150 H150        2.0230  -22.5703  -41.8483 H         1 UNK         0.0600 
    151 H151        4.9018  -23.6110  -41.7118 H         1 UNK         0.0600 
    152 H152        3.5898  -24.1141  -40.6528 H         1 UNK         0.0600 
    153 H153        4.1555  -22.4526  -40.6105 H         1 UNK         0.0600 
    154 H154        4.3438  -21.4373  -42.8760 H         1 UNK         0.3000 
    155 H155        3.9269  -19.3825  -44.0641 H         1 UNK         0.0600 
    156 H156        4.1532  -21.1036  -46.6058 H         1 UNK         0.0600 
    157 H157        5.2853  -21.1538  -45.2612 H         1 UNK         0.0600 
    158 H158        5.1345  -19.6923  -46.2095 H         1 UNK         0.0600 
    159 H159        2.4485  -19.4326  -46.5828 H         1 UNK         0.3000 
    160 H160        0.9255  -17.7593  -47.0042 H         1 UNK         0.0600 
    161 H161       -1.1236  -19.1883  -45.2296 H         1 UNK         0.0600 
    162 H162       -0.1974  -19.9628  -46.4989 H         1 UNK         0.0600 
    163 H163       -1.3498  -18.7100  -46.9137 H         1 UNK         0.0600 
    164 H164       -1.1053  -16.8303  -45.2017 H         1 UNK         0.3000 
    165 H165       -0.9789  -14.5312  -44.2711 H         1 UNK         0.0600 
    166 H166       -0.8814  -12.2230  -45.0309 H         1 UNK         0.0600 
    167 H167        0.7619  -12.8371  -44.9210 H         1 UNK         0.0600 
    168 H168       -0.0162  -12.6745  -46.4901 H         1 UNK         0.0600 
    169 H169       -1.9834  -13.9730  -46.9864 H         1 UNK         0.3000 
    170 H170       -3.8263  -16.3865  -47.5160 H         1 UNK         0.0600 
    171 H171       -5.4367  -16.6909  -45.6945 H         1 UNK         0.0600 
    172 H172       -5.7609  -14.9639  -45.6221 H         1 UNK         0.0600 
    173 H173       -6.2270  -15.9002  -47.0440 H         1 UNK         0.0600 
    174 H174       -4.0454  -14.6766  -48.8702 H         1 UNK         0.3000 
    175 H175       -5.4170  -12.6353  -49.5001 H         1 UNK         0.0600 
    176 H176       -4.9436  -10.1775  -49.5499 H         1 UNK         0.0600 
    177 H177       -5.8476  -10.6603  -48.1235 H         1 UNK         0.0600 
    178 H178       -4.1356  -10.3006  -47.9874 H         1 UNK         0.0600 
    179 H179       -3.5565  -12.9546  -50.6138 H         1 UNK         0.3000 
    180 H180       -1.1319  -13.4152  -50.7802 H         1 UNK         0.0600 
    181 H181       -1.3687  -10.5135  -51.7601 H         1 UNK         0.0600 
    182 H182       -2.3406  -11.8705  -52.3155 H         1 UNK         0.0600 
    183 H183       -0.6222  -11.8329  -52.6613 H         1 UNK         0.0600 
    184 H184        0.6255  -11.1069  -50.4577 H         1 UNK         0.3000 
    185 H185        2.8943  -11.8643  -49.6113 H         1 UNK         0.0600 
    186 H186        1.4769  -10.0074  -48.6343 H         1 UNK         0.0600 
    187 H187        1.4056  -10.8672  -47.1031 H         1 UNK         0.0600 
    188 H188        2.9382  -10.2395  -47.6975 H         1 UNK         0.0600 
    189 H189        2.3746  -13.7429  -47.5084 H         1 UNK         0.3000 
    190 H190        0.3256  -22.8833  -44.8541 H         1 UNK         0.3000 
    191 H191       -2.5501  -22.6252  -44.7282 H         1 UNK         0.0600 
    192 H192       -1.0083  -21.2795  -43.3140 H         1 UNK         0.0600 
    193 H193       -2.1011  -22.2309  -42.3178 H         1 UNK         0.0600 
    194 H194       -0.4306  -22.7448  -42.5230 H         1 UNK         0.0600 
    195 H195       -0.2681  -25.2567  -43.9930 H         1 UNK         0.3000 
    196 H196       -2.2302  -27.0121  -42.8029 H         1 UNK         0.0600 
    197 H197       -0.4726  -28.7412  -43.1306 H         1 UNK         0.0600 
    198 H198        0.2061  -27.2908  -42.4066 H         1 UNK         0.0600 
    199 H199        0.4706  -27.6307  -44.1151 H         1 UNK         0.0600 
    200 H200       -1.0115  -26.4603  -46.0921 H         1 UNK         0.3000 
    201 H201       -2.7594  -28.3918  -47.3993 H         1 UNK         0.0600 
    202 H202       -1.7952  -27.3812  -49.4531 H         1 UNK         0.0600 
    203 H203       -1.1225  -26.0467  -48.5233 H         1 UNK         0.0600 
    204 H204       -0.5058  -27.6810  -48.3048 H         1 UNK         0.0600 
    205 H205       -4.0477  -27.3350  -49.3678 H         1 UNK         0.3000 
    206 H206       -6.1420  -25.6208  -48.2820 H         1 UNK         0.0600 
    207 H207       -6.6602  -27.5082  -49.8161 H         1 UNK         0.0600 
    208 H208       -7.1627  -25.9813  -50.5225 H         1 UNK         0.0600 
    209 H209       -5.6937  -26.7643  -51.0911 H         1 UNK         0.0600 
    210 H210       -3.1429  -25.0230  -49.8161 H         1 UNK         0.3000 
    211 H211       -3.6045  -23.0742  -51.6885 H         1 UNK         0.0600 
    212 H212       -1.1776  -23.4179  -49.8602 H         1 UNK         0.0600 
    213 H213       -1.1939  -22.4736  -51.3452 H         1 UNK         0.0600 
    214 H214       -1.4443  -24.2102  -51.4112 H         1 UNK         0.0600 
    215 H215       -3.3296  -22.5221  -48.1767 H         1 UNK         0.3000 
    216 H216       -3.2169  -19.6842  -48.2573 H         1 UNK         0.0600 
    217 H217       -3.8714  -19.8547  -45.8572 H         1 UNK         0.0600 
    218 H218       -2.5938  -20.9814  -46.2784 H         1 UNK         0.0600 
    219 H219       -4.2494  -21.5617  -46.0801 H         1 UNK         0.0600 
    220 H220       -5.9626  -21.9027  -48.4970 H         1 UNK         0.3000 
    221 H221       -7.9629  -19.7410  -48.0876 H         1 UNK         0.0600 
    222 H222       -8.2688  -22.7774  -48.3805 H         1 UNK         0.0600 
    223 H223       -8.2904  -21.8792  -46.8632 H         1 UNK         0.0600 
    224 H224       -9.5686  -21.6394  -48.0447 H         1 UNK         0.0600 
    225 H225       -6.6391  -21.9215  -50.5416 H         1 UNK         0.3000 
    226 H226       -8.5407  -21.4427  -52.6129 H         1 UNK         0.0600 
    227 H227       -6.8233  -22.6060  -54.0061 H         1 UNK         0.0600 
    228 H228       -5.6177  -22.3793  -52.7451 H         1 UNK         0.0600 
    229 H229       -7.0040  -23.4310  -52.4693 H         1 UNK         0.0600 
    230 H230       -7.8303  -20.5890  -54.7887 H         1 UNK         0.3000 
    231 H231       -7.3333  -17.8242  -54.7576 H         1 UNK         0.0600 
    232 H232       -7.1759  -19.8404  -57.0632 H         1 UNK         0.0600 
    233 H233       -7.3110  -18.0958  -57.2455 H         1 UNK         0.0600 
    234 H234       -8.6285  -18.9992  -56.5190 H         1 UNK         0.0600 
    235 H235       -5.0255  -20.3101  -54.5141 H         1 UNK         0.3000 
    236 H236       -2.7075  -19.0854  -55.6674 H         1 UNK         0.0600 
    237 H237       -2.8165  -21.5053  -55.1312 H         1 UNK         0.0600 
    238 H238       -1.5087  -20.7555  -54.2294 H         1 UNK         0.0600 
    239 H239       -3.0180  -21.1464  -53.4163 H         1 UNK         0.0600 
    240 H240       -4.4708  -18.4891  -52.6571 H         1 UNK         0.3000 
    241 H241       -2.6387  -16.2825  -52.0909 H         1 UNK         0.0600 
    242 H242       -5.9698  -17.5227  -51.8870 H         1 UNK         0.3800 
    243 H243       -6.5622  -16.0023  -51.2702 H         1 UNK         0.3800 
    244 H244       -2.0332  -18.5089  -50.6908 H         1 UNK         0.0800 
    245 H245       -3.3676  -17.9976  -49.7046 H         1 UNK         0.0800 
    246 H246       -0.3381  -16.8403  -51.6489 H         1 UNK         0.0800 
    247 H247        0.3569  -15.5400  -50.7350 H         1 UNK         0.0800 
@<TRIPOS>BOND
     1    1    2 1    
     2    1  127 1    
     3    1  128 1    
     4    1  129 1    
     5    2    3 2    
     6    2    4 am   BACKBONE|DICT|INTERRES
     7    4    5 1    
     8    4  130 1    
     9    5    6 1    
    10    5   65 1    
    11    5  131 1    
    12    6    7 1    
    13    6  132 1    
    14    6  133 1    
    15    7    8 1    
    16    8    9 1    
    17    8  134 1    
    18    8  135 1    
    19    9   10 ar   
    20    9   14 ar   
    21   10   11 ar   
    22   10  136 1    
    23   11   12 ar   
    24   11  126 1    
    25   12   13 ar   
    26   12  137 1    
    27   13   14 ar   
    28   13   15 1    
    29   14  138 1    
    30   15   16 1    
    31   15  139 1    
    32   15  140 1    
    33   16   17 1    
    34   17   18 1    
    35   17  141 1    
    36   17  142 1    
    37   18   19 1    
    38   18   67 1    
    39   18  143 1    
    40   19   20 am   BACKBONE|DICT|INTERRES
    41   19  144 1    
    42   20   21 2    
    43   20   22 1    
    44   22   23 1    
    45   22   24 1    
    46   22  145 1    
    47   23  146 1    
    48   23  147 1    
    49   23  148 1    
    50   24   25 am   BACKBONE|DICT|INTERRES
    51   24  149 1    
    52   25   26 2    
    53   25   27 1    
    54   27   28 1    
    55   27   29 1    
    56   27  150 1    
    57   28  151 1    
    58   28  152 1    
    59   28  153 1    
    60   29   30 am   BACKBONE|DICT|INTERRES
    61   29  154 1    
    62   30   31 2    
    63   30   32 1    
    64   32   33 1    
    65   32   34 1    
    66   32  155 1    
    67   33  156 1    
    68   33  157 1    
    69   33  158 1    
    70   34   35 am   BACKBONE|DICT|INTERRES
    71   34  159 1    
    72   35   36 2    
    73   35   37 1    
    74   37   38 1    
    75   37   39 1    
    76   37  160 1    
    77   38  161 1    
    78   38  162 1    
    79   38  163 1    
    80   39   40 am   BACKBONE|DICT|INTERRES
    81   39  164 1    
    82   40   41 2    
    83   40   42 1    
    84   42   43 1    
    85   42   44 1    
    86   42  165 1    
    87   43  166 1    
    88   43  167 1    
    89   43  168 1    
    90   44   45 am   BACKBONE|DICT|INTERRES
    91   44  169 1    
    92   45   46 2    
    93   45   47 1    
    94   47   48 1    
    95   47   49 1    
    96   47  170 1    
    97   48  171 1    
    98   48  172 1    
    99   48  173 1    
   100   49   50 am   BACKBONE|DICT|INTERRES
   101   49  174 1    
   102   50   51 2    
   103   50   52 1    
   104   52   53 1    
   105   52   54 1    
   106   52  175 1    
   107   53  176 1    
   108   53  177 1    
   109   53  178 1    
   110   54   55 am   BACKBONE|DICT|INTERRES
   111   54  179 1    
   112   55   56 2    
   113   55   57 1    
   114   57   58 1    
   115   57   59 1    
   116   57  180 1    
   117   58  181 1    
   118   58  182 1    
   119   58  183 1    
   120   59   60 am   BACKBONE|DICT|INTERRES
   121   59  184 1    
   122   60   61 2    
   123   60   62 1    
   124   62   63 1    
   125   62   64 1    
   126   62  185 1    
   127   63  186 1    
   128   63  187 1    
   129   63  188 1    
   130   64   65 am   BACKBONE|DICT|INTERRES
   131   64  189 1    
   132   65   66 2    
   133   67   68 2    
   134   67   69 am   BACKBONE|DICT|INTERRES
   135   69   70 1    
   136   69  190 1    
   137   70   71 1    
   138   70   72 1    
   139   70  191 1    
   140   71  192 1    
   141   71  193 1    
   142   71  194 1    
   143   72   73 2    
   144   72   74 am   BACKBONE|DICT|INTERRES
   145   74   75 1    
   146   74  195 1    
   147   75   76 1    
   148   75   77 1    
   149   75  196 1    
   150   76  197 1    
   151   76  198 1    
   152   76  199 1    
   153   77   78 2    
   154   77   79 am   BACKBONE|DICT|INTERRES
   155   79   80 1    
   156   79  200 1    
   157   80   81 1    
   158   80   82 1    
   159   80  201 1    
   160   81  202 1    
   161   81  203 1    
   162   81  204 1    
   163   82   83 2    
   164   82   84 am   BACKBONE|DICT|INTERRES
   165   84   85 1    
   166   84  205 1    
   167   85   86 1    
   168   85   87 1    
   169   85  206 1    
   170   86  207 1    
   171   86  208 1    
   172   86  209 1    
   173   87   88 2    
   174   87   89 am   BACKBONE|DICT|INTERRES
   175   89   90 1    
   176   89  210 1    
   177   90   91 1    
   178   90   92 1    
   179   90  211 1    
   180   91  212 1    
   181   91  213 1    
   182   91  214 1    
   183   92   93 2    
   184   92   94 am   BACKBONE|DICT|INTERRES
   185   94   95 1    
   186   94  215 1    
   187   95   96 1    
   188   95   97 1    
   189   95  216 1    
   190   96  217 1    
   191   96  218 1    
   192   96  219 1    
   193   97   98 2    
   194   97   99 am   BACKBONE|DICT|INTERRES
   195   99  100 1    
   196   99  220 1    
   197  100  101 1    
   198  100  102 1    
   199  100  221 1    
   200  101  222 1    
   201  101  223 1    
   202  101  224 1    
   203  102  103 2    
   204  102  104 am   BACKBONE|DICT|INTERRES
   205  104  105 1    
   206  104  225 1    
   207  105  106 1    
   208  105  107 1    
   209  105  226 1    
   210  106  227 1    
   211  106  228 1    
   212  106  229 1    
   213  107  108 2    
   214  107  109 am   BACKBONE|DICT|INTERRES
   215  109  110 1    
   216  109  230 1    
   217  110  111 1    
   218  110  112 1    
   219  110  231 1    
   220  111  232 1    
   221  111  233 1    
   222  111  234 1    
   223  112  113 2    
   224  112  114 am   BACKBONE|DICT|INTERRES
   225  114  115 1    
   226  114  235 1    
   227  115  116 1    
   228  115  117 1    
   229  115  236 1    
   230  116  237 1    
   231  116  238 1    
   232  116  239 1    
   233  117  118 2    
   234  117  119 am   BACKBONE|DICT|INTERRES
   235  119  120 1    
   236  119  240 1    
   237  120  121 1    
   238  120  124 1    
   239  120  241 1    
   240  121  122 am   BACKBONE|DICT|INTERRES
   241  121  123 2    
   242  122  242 1    
   243  122  243 1    
   244  124  125 1    
   245  124  244 1    
   246  124  245 1    
   247  125  126 1    
   248  126  246 1    
   249  126  247 1    
@<TRIPOS>SUBSTRUCTURE
     1 UNK         1 GROUP             0       ****    0 ROOT    
