@<TRIPOS>MOLECULE
3R540
247   249    1
SMALL
USER_CHARGES


@<TRIPOS>ATOM
      1 CA          5.8230  -13.6927  -47.1699 C.3       0 UNK        -0.1800 
      2 C           4.5450  -13.2069  -47.8393 C.2       0 UNK         0.5000 
      3 O           4.5927  -12.2801  -48.6477 O.2       0 UNK        -0.5000 
      4 N           3.4076  -13.8272  -47.4945 N.am      1 UNK        -0.5000 
      5 CA          2.0622  -13.5542  -48.0280 C.3       1 UNK         0.1400 
      6 C6          1.9130  -13.8352  -49.5497 C.3       23 UNK        -0.0398 
      7 S7          2.4486  -15.5062  -50.0519 S.3       23 UNK        -0.2404 
      8 C8          0.9877  -16.4956  -49.6115 C.3       23 UNK        -0.0205 
      9 C9          0.9497  -17.7972  -50.3954 C.ar      23 UNK        -0.0193 
     10 C10         0.1258  -17.9155  -51.5183 C.ar      23 UNK        -0.1150 
     11 C11         0.0925  -19.1043  -52.2520 C.ar      23 UNK        -0.0193 
     12 C12         0.8796  -20.1851  -51.8479 C.ar      23 UNK        -0.1150 
     13 C13         1.7053  -20.0822  -50.7246 C.ar      23 UNK        -0.0193 
     14 C14         1.7389  -18.8825  -50.0043 C.ar      23 UNK        -0.1150 
     15 C15         2.5678  -21.2688  -50.3105 C.3       23 UNK        -0.0205 
     16 S16         2.3770  -21.7191  -48.5561 S.3       23 UNK        -0.2404 
     17 C17         0.5664  -21.8907  -48.4066 C.3       23 UNK        -0.0398 
     18 CA          0.1751  -22.9278  -47.3332 C.3       11 UNK         0.1400 
     19 N           0.6100  -22.5408  -45.9866 N.am      11 UNK        -0.5000 
     20 C           0.6148  -23.3706  -44.9347 C.2       10 UNK         0.5000 
     21 O           0.2575  -24.5459  -44.9952 O.2       10 UNK        -0.5000 
     22 CA          1.0381  -22.7838  -43.5781 C.3       10 UNK         0.1400 
     23 CB          2.5634  -22.6211  -43.4997 C.3       10 UNK        -0.1800 
     24 N           0.3801  -21.5093  -43.2921 N.am      10 UNK        -0.5000 
     25 C          -0.9435  -21.3606  -43.1363 C.2       9 UNK         0.5000 
     26 O          -1.7437  -22.2960  -43.1727 O.2       9 UNK        -0.5000 
     27 CA         -1.4683  -19.9241  -42.9537 C.3       9 UNK         0.1400 
     28 CB         -1.2976  -19.4579  -41.5005 C.3       9 UNK        -0.1800 
     29 N          -0.8259  -18.9650  -43.8521 N.am      9 UNK        -0.5000 
     30 C          -0.8871  -19.0084  -45.1904 C.2       8 UNK         0.5000 
     31 O          -1.5222  -19.8493  -45.8235 O.2       8 UNK        -0.5000 
     32 CA         -0.0444  -17.9732  -45.9522 C.3       8 UNK         0.1400 
     33 CB         -0.7463  -16.6063  -45.9896 C.3       8 UNK        -0.1800 
     34 N           1.2954  -17.8323  -45.3816 N.am      8 UNK        -0.5000 
     35 C           2.2138  -18.8096  -45.3698 C.2       7 UNK         0.5000 
     36 O           2.0288  -19.9262  -45.8493 O.2       7 UNK        -0.5000 
     37 CA          3.5414  -18.4991  -44.6568 C.3       7 UNK         0.1400 
     38 CB          4.4418  -17.6267  -45.5458 C.3       7 UNK        -0.1800 
     39 N           3.3368  -17.8360  -43.3684 N.am      7 UNK        -0.5000 
     40 C           2.7321  -18.3980  -42.3110 C.2       6 UNK         0.5000 
     41 O           2.3309  -19.5606  -42.2886 O.2       6 UNK        -0.5000 
     42 CA          2.4820  -17.4863  -41.0941 C.3       6 UNK         0.1400 
     43 CB          3.7055  -17.4743  -40.1660 C.3       6 UNK        -0.1800 
     44 N           2.1368  -16.1101  -41.4659 N.am      6 UNK        -0.5000 
     45 C           1.0709  -15.7701  -42.2024 C.2       5 UNK         0.5000 
     46 O           0.2629  -16.5883  -42.6485 O.2       5 UNK        -0.5000 
     47 CA          0.9335  -14.2797  -42.5569 C.3       5 UNK         0.1400 
     48 CB          1.8912  -13.9139  -43.7031 C.3       5 UNK        -0.1800 
     49 N          -0.4254  -13.9480  -42.9738 N.am      5 UNK        -0.5000 
     50 C          -1.4945  -13.8711  -42.1748 C.2       4 UNK         0.5000 
     51 O          -1.4365  -13.9894  -40.9490 O.2       4 UNK        -0.5000 
     52 CA         -2.8453  -13.5918  -42.8743 C.3       4 UNK         0.1400 
     53 CB         -4.0104  -13.4372  -41.8801 C.3       4 UNK        -0.1800 
     54 N          -2.7946  -12.3999  -43.7263 N.am      4 UNK        -0.5000 
     55 C          -2.2168  -12.3238  -44.9320 C.2       3 UNK         0.5000 
     56 O          -1.6866  -13.2890  -45.4877 O.2       3 UNK        -0.5000 
     57 CA         -2.1821  -10.9493  -45.6318 C.3       3 UNK         0.1400 
     58 CB         -2.8256   -9.7962  -44.8278 C.3       3 UNK        -0.1800 
     59 N          -0.8121  -10.6171  -46.0320 N.am      3 UNK        -0.5000 
     60 C           0.2504  -10.4483  -45.2325 C.2       2 UNK         0.5000 
     61 O           0.1950  -10.4426  -44.0014 O.2       2 UNK        -0.5000 
     62 CA          1.6113  -10.3203  -45.9469 C.3       2 UNK         0.1400 
     63 CB          2.7284   -9.8228  -45.0119 C.3       2 UNK        -0.1800 
     64 N           2.0211  -11.6021  -46.5221 N.am      2 UNK        -0.5000 
     65 C           1.5285  -12.1530  -47.6404 C.2       1 UNK         0.5000 
     66 O           0.6761  -11.6004  -48.3395 O.2       1 UNK        -0.5000 
     67 C          -1.3338  -23.2415  -47.3928 C.2       11 UNK         0.5000 
     68 O          -1.7268  -24.1554  -48.1209 O.2       11 UNK        -0.5000 
     69 N          -2.1506  -22.5135  -46.6169 N.am      12 UNK        -0.5000 
     70 CA         -3.5806  -22.7704  -46.4427 C.3       12 UNK         0.1400 
     71 CB         -4.2402  -21.6232  -45.6649 C.3       12 UNK        -0.1800 
     72 C          -3.8566  -24.1272  -45.7742 C.2       12 UNK         0.5000 
     73 O          -4.7295  -24.8618  -46.2354 O.2       12 UNK        -0.5000 
     74 N          -3.0851  -24.4551  -44.7303 N.am      13 UNK        -0.5000 
     75 CA         -3.1419  -25.7474  -44.0490 C.3       13 UNK         0.1400 
     76 CB         -2.3425  -25.6699  -42.7391 C.3       13 UNK        -0.1800 
     77 C          -2.6403  -26.9070  -44.9312 C.2       13 UNK         0.5000 
     78 O          -3.2476  -27.9785  -44.9260 O.2       13 UNK        -0.5000 
     79 N          -1.5420  -26.6756  -45.6624 N.am      14 UNK        -0.5000 
     80 CA         -0.8739  -27.6781  -46.4885 C.3       14 UNK         0.1400 
     81 CB          0.5555  -27.2123  -46.8067 C.3       14 UNK        -0.1800 
     82 C          -1.6247  -28.0177  -47.7869 C.2       14 UNK         0.5000 
     83 O          -1.7599  -29.2007  -48.1043 O.2       14 UNK        -0.5000 
     84 N          -2.0579  -26.9945  -48.5367 N.am      15 UNK        -0.5000 
     85 CA         -2.5389  -27.1532  -49.9121 C.3       15 UNK         0.1400 
     86 CB         -1.3323  -27.2181  -50.8720 C.3       15 UNK        -0.1800 
     87 C          -3.5511  -26.0678  -50.3179 C.2       15 UNK         0.5000 
     88 O          -3.6065  -25.7004  -51.4937 O.2       15 UNK        -0.5000 
     89 N          -4.3235  -25.5531  -49.3475 N.am      16 UNK        -0.5000 
     90 CA         -5.3996  -24.5609  -49.5114 C.3       16 UNK         0.1400 
     91 CB         -6.5794  -25.1811  -50.2893 C.3       16 UNK        -0.1800 
     92 C          -4.9474  -23.2191  -50.1308 C.2       16 UNK         0.5000 
     93 O          -5.7824  -22.4890  -50.6668 O.2       16 UNK        -0.5000 
     94 N          -3.6354  -22.9319  -50.0733 N.am      17 UNK        -0.5000 
     95 CA         -2.9367  -21.8334  -50.7501 C.3       17 UNK         0.1400 
     96 CB         -3.2022  -20.4957  -50.0332 C.3       17 UNK        -0.1800 
     97 C          -3.2471  -21.8006  -52.2620 C.2       17 UNK         0.5000 
     98 O          -3.5604  -20.7447  -52.8132 O.2       17 UNK        -0.5000 
     99 N          -3.2215  -22.9923  -52.8791 N.am      18 UNK        -0.5000 
    100 CA        -3.6329  -23.3326  -54.2445 C.3       18 UNK         0.1400 
    101 CB        -2.8623  -22.5201  -55.3040 C.3       18 UNK        -0.1800 
    102 C         -5.1574  -23.2388  -54.4448 C.2       18 UNK         0.5000 
    103 O         -5.7847  -24.2352  -54.8058 O.2       18 UNK        -0.5000 
    104 N         -5.7224  -22.0557  -54.1903 N.am      19 UNK        -0.5000 
    105 CA        -7.1448  -21.7396  -54.2755 C.3       19 UNK         0.1400 
    106 CB        -7.5892  -21.6468  -55.7507 C.3       19 UNK        -0.1800 
    107 C         -7.4083  -20.4471  -53.4862 C.2       19 UNK         0.5000 
    108 O         -7.9523  -19.4878  -54.0342 O.2       19 UNK        -0.5000 
    109 N         -6.9498  -20.4212  -52.2262 N.am      20 UNK        -0.5000 
    110 CA        -6.9528  -19.3109  -51.2610 C.3       20 UNK         0.1400 
    111 CB        -8.3776  -18.7835  -51.0019 C.3       20 UNK        -0.1800 
    112 C         -5.9772  -18.1597  -51.5901 C.2       20 UNK         0.5000 
    113 O         -5.5580  -17.4521  -50.6733 O.2       20 UNK        -0.5000 
    114 N         -5.6120  -17.9995  -52.8639 N.am      21 UNK        -0.5000 
    115 CA        -4.6353  -17.0544  -53.3831 C.3       21 UNK         0.1400 
    116 CB        -5.2834  -15.6674  -53.5452 C.3       21 UNK        -0.1800 
    117 C         -4.1114  -17.5878  -54.7251 C.2       21 UNK         0.5000 
    118 O         -4.7366  -18.4658  -55.3276 O.2       21 UNK        -0.5000 
    119 N         -2.9772  -17.0410  -55.1703 N.am      22 UNK        -0.5000 
    120 CA        -2.2768  -17.4413  -56.4017 C.3       22 UNK         0.1400 
    121 C         -1.5880  -16.2597  -57.1459 C.2       22 UNK         0.5000 
    122 N         -1.8706  -15.0064  -56.8081 N.am      22 UNK        -0.7600 
    123 O         -0.8028  -16.4744  -58.0656 O.2       22 UNK        -0.5000 
    124 C124       -1.3501  -18.6678  -56.1744 C.3       23 UNK        -0.0398 
    125 S125       -0.0482  -18.3991  -54.9197 S.3       23 UNK        -0.2404 
    126 C126       -0.7948  -19.2192  -53.4789 C.3       23 UNK        -0.0205 
    127 H127        6.5313  -14.0387  -47.9226 H         1 UNK         0.0600 
    128 H128        5.6338  -14.5147  -46.4791 H         1 UNK         0.0600 
    129 H129        6.2868  -12.8794  -46.6118 H         1 UNK         0.0600 
    130 H130        3.4574  -14.5877  -46.8334 H         1 UNK         0.3000 
    131 H131        1.4020  -14.2517  -47.5116 H         1 UNK         0.0600 
    132 H132        0.8785  -13.6995  -49.8695 H         1 UNK         0.0800 
    133 H133        2.4947  -13.1137  -50.1252 H         1 UNK         0.0800 
    134 H134        0.0761  -15.9246  -49.7940 H         1 UNK         0.0800 
    135 H135        1.0132  -16.7076  -48.5429 H         1 UNK         0.0800 
    136 H136       -0.4813  -17.0780  -51.8321 H         1 UNK         0.1150 
    137 H137        0.8552  -21.1045  -52.4160 H         1 UNK         0.1150 
    138 H138        2.3802  -18.7936  -49.1382 H         1 UNK         0.1150 
    139 H139        2.3398  -22.1454  -50.9190 H         1 UNK         0.0800 
    140 H140        3.6140  -21.0261  -50.4999 H         1 UNK         0.0800 
    141 H141        0.1718  -22.1869  -49.3797 H         1 UNK         0.0800 
    142 H142        0.1373  -20.9131  -48.1780 H         1 UNK         0.0800 
    143 H143        0.6899  -23.8584  -47.5804 H         1 UNK         0.0600 
    144 H144        0.9609  -21.5932  -45.8756 H         1 UNK         0.3000 
    145 H145        0.7365  -23.4928  -42.8043 H         1 UNK         0.0600 
    146 H146        2.8736  -22.2987  -42.5057 H         1 UNK         0.0600 
    147 H147        3.0679  -23.5655  -43.7071 H         1 UNK         0.0600 
    148 H148        2.9303  -21.8880  -44.2181 H         1 UNK         0.0600 
    149 H149        0.9828  -20.6976  -43.1990 H         1 UNK         0.3000 
    150 H150       -2.5351  -19.9283  -43.1851 H         1 UNK         0.0600 
    151 H151       -1.8068  -20.1331  -40.8118 H         1 UNK         0.0600 
    152 H152       -1.7182  -18.4628  -41.3536 H         1 UNK         0.0600 
    153 H153       -0.2476  -19.4223  -41.2101 H         1 UNK         0.0600 
    154 H154       -0.3055  -18.2076  -43.4156 H         1 UNK         0.3000 
    155 H155        0.0650  -18.3290  -46.9790 H         1 UNK         0.0600 
    156 H156       -0.9194  -16.2077  -44.9901 H         1 UNK         0.0600 
    157 H157       -1.7175  -16.6831  -46.4796 H         1 UNK         0.0600 
    158 H158       -0.1632  -15.8713  -46.5428 H         1 UNK         0.0600 
    159 H159        1.4924  -16.9747  -44.8905 H         1 UNK         0.3000 
    160 H160        4.0529  -19.4466  -44.4746 H         1 UNK         0.0600 
    161 H161        3.9996  -16.6483  -45.7351 H         1 UNK         0.0600 
    162 H162        4.6125  -18.1021  -46.5128 H         1 UNK         0.0600 
    163 H163        5.4175  -17.4704  -45.0853 H         1 UNK         0.0600 
    164 H164        3.6423  -16.8778  -43.2919 H         1 UNK         0.3000 
    165 H165        1.6379  -17.9015  -40.5398 H         1 UNK         0.0600 
    166 H166        3.5069  -16.9035  -39.2587 H         1 UNK         0.0600 
    167 H167        3.9721  -18.4867  -39.8593 H         1 UNK         0.0600 
    168 H168        4.5783  -17.0384  -40.6536 H         1 UNK         0.0600 
    169 H169        2.7616  -15.3862  -41.1409 H         1 UNK         0.3000 
    170 H170        1.1854  -13.6854  -41.6762 H         1 UNK         0.0600 
    171 H171        2.9262  -14.1445  -43.4481 H         1 UNK         0.0600 
    172 H172        1.6472  -14.4507  -44.6207 H         1 UNK         0.0600 
    173 H173        1.8443  -12.8468  -43.9161 H         1 UNK         0.0600 
    174 H174       -0.5876  -13.8404  -43.9695 H         1 UNK         0.3000 
    175 H175       -3.0612  -14.4592  -43.5019 H         1 UNK         0.0600 
    176 H176       -3.8619  -12.5858  -41.2147 H         1 UNK         0.0600 
    177 H177       -4.9572  -13.2947  -42.4014 H         1 UNK         0.0600 
    178 H178       -4.1160  -14.3273  -41.2584 H         1 UNK         0.0600 
    179 H179       -3.1611  -11.5505  -43.3219 H         1 UNK         0.3000 
    180 H180       -2.7518  -11.0657  -46.5546 H         1 UNK         0.0600 
    181 H181       -2.3367   -9.6344  -43.8668 H         1 UNK         0.0600 
    182 H182       -3.8813   -9.9917  -44.6362 H         1 UNK         0.0600 
    183 H183       -2.7725   -8.8602  -45.3840 H         1 UNK         0.0600 
    184 H184       -0.6175  -10.7087  -47.0239 H         1 UNK         0.3000 
    185 H185        1.4993   -9.5886  -46.7500 H         1 UNK         0.0600 
    186 H186        2.4652   -8.8625  -44.5669 H         1 UNK         0.0600 
    187 H187        2.9180  -10.5221  -44.1966 H         1 UNK         0.0600 
    188 H188        3.6627   -9.6824  -45.5559 H         1 UNK         0.0600 
    189 H189        2.7176  -12.1201  -46.0081 H         1 UNK         0.3000 
    190 H190       -1.7707  -21.7192  -46.1085 H         1 UNK         0.3000 
    191 H191       -4.0376  -22.7921  -47.4293 H         1 UNK         0.0600 
    192 H192       -3.8113  -21.5078  -44.6703 H         1 UNK         0.0600 
    193 H193       -5.3096  -21.7992  -45.5425 H         1 UNK         0.0600 
    194 H194       -4.1264  -20.6756  -46.1915 H         1 UNK         0.0600 
    195 H195       -2.4169  -23.7772  -44.3769 H         1 UNK         0.3000 
    196 H196       -4.1845  -25.9500  -43.7952 H         1 UNK         0.0600 
    197 H197       -2.3859  -26.6158  -42.1980 H         1 UNK         0.0600 
    198 H198       -2.7416  -24.8985  -42.0802 H         1 UNK         0.0600 
    199 H199       -1.2917  -25.4417  -42.9196 H         1 UNK         0.0600 
    200 H200       -1.0619  -25.7862  -45.5515 H         1 UNK         0.3000 
    201 H201       -0.7969  -28.5972  -45.9036 H         1 UNK         0.0600 
    202 H202        1.1337  -27.0636  -45.8946 H         1 UNK         0.0600 
    203 H203        0.5589  -26.2742  -47.3620 H         1 UNK         0.0600 
    204 H204        1.0840  -27.9524  -47.4089 H         1 UNK         0.0600 
    205 H205       -1.9135  -26.0376  -48.2213 H         1 UNK         0.3000 
    206 H206       -3.0863  -28.0944  -49.9928 H         1 UNK         0.0600 
    207 H207       -0.6574  -28.0330  -50.6099 H         1 UNK         0.0600 
    208 H208       -1.6509  -27.3892  -51.9010 H         1 UNK         0.0600 
    209 H209       -0.7596  -26.2902  -50.8523 H         1 UNK         0.0600 
    210 H210       -4.1869  -25.8869  -48.4021 H         1 UNK         0.3000 
    211 H211       -5.7646  -24.3206  -48.5140 H         1 UNK         0.0600 
    212 H212       -6.3214  -25.3714  -51.3318 H         1 UNK         0.0600 
    213 H213       -7.4458  -24.5187  -50.2844 H         1 UNK         0.0600 
    214 H214       -6.8939  -26.1244  -49.8430 H         1 UNK         0.0600 
    215 H215       -3.0393  -23.5902  -49.5824 H         1 UNK         0.3000 
    216 H216       -1.8701  -22.0436  -50.6682 H         1 UNK         0.0600 
    217 H217       -2.6408  -19.6834  -50.4968 H         1 UNK         0.0600 
    218 H218       -2.8986  -20.5437  -48.9871 H         1 UNK         0.0600 
    219 H219       -4.2564  -20.2254  -50.0625 H         1 UNK         0.0600 
    220 H220       -3.0561  -23.8055  -52.2951 H         1 UNK         0.3000 
    221 H221       -3.3596  -24.3808  -54.3766 H         1 UNK         0.0600 
    222 H222       -3.1394  -21.4664  -55.2929 H         1 UNK         0.0600 
    223 H223       -1.7855  -22.5870  -55.1490 H         1 UNK         0.0600 
    224 H224       -3.0726  -22.8966  -56.3055 H         1 UNK         0.0600 
    225 H225       -5.1161  -21.3114  -53.8529 H         1 UNK         0.3000 
    226 H226       -7.7123  -22.5341  -53.7869 H         1 UNK         0.0600 
    227 H227       -7.4495  -22.5932  -56.2725 H         1 UNK         0.0600 
    228 H228       -8.6474  -21.3936  -55.8258 H         1 UNK         0.0600 
    229 H229       -7.0269  -20.8822  -56.2883 H         1 UNK         0.0600 
    230 H230       -6.5001  -21.2622  -51.8671 H         1 UNK         0.3000 
    231 H231       -6.6001  -19.7478  -50.3259 H         1 UNK         0.0600 
    232 H232       -9.0565  -19.5936  -50.7358 H         1 UNK         0.0600 
    233 H233       -8.7888  -18.2694  -51.8708 H         1 UNK         0.0600 
    234 H234       -8.3813  -18.0717  -50.1756 H         1 UNK         0.0600 
    235 H235       -5.9994  -18.6199  -53.5660 H         1 UNK         0.3000 
    236 H236       -3.7954  -16.9927  -52.6878 H         1 UNK         0.0600 
    237 H237       -4.5696  -14.9410  -53.9348 H         1 UNK         0.0600 
    238 H238       -6.1294  -15.7001  -54.2329 H         1 UNK         0.0600 
    239 H239       -5.6438  -15.2840  -52.5906 H         1 UNK         0.0600 
    240 H240       -2.5078  -16.3400  -54.6156 H         1 UNK         0.3000 
    241 H241       -3.0376  -17.7606  -57.1165 H         1 UNK         0.0600 
    242 H242       -1.4214  -14.2532  -57.3058 H         1 UNK         0.3800 
    243 H243       -2.5636  -14.7932  -56.1096 H         1 UNK         0.3800 
    244 H244       -1.9541  -19.5265  -55.8827 H         1 UNK         0.0800 
    245 H245       -0.8698  -18.9628  -57.1085 H         1 UNK         0.0800 
    246 H246       -0.9789  -20.2671  -53.7196 H         1 UNK         0.0800 
    247 H247       -1.7665  -18.7757  -53.2623 H         1 UNK         0.0800 
@<TRIPOS>BOND
     1    1    2 1    
     2    1  127 1    
     3    1  128 1    
     4    1  129 1    
     5    2    3 2    
     6    2    4 am   BACKBONE|DICT|INTERRES
     7    4    5 1    
     8    4  130 1    
     9    5    6 1    
    10    5   65 1    
    11    5  131 1    
    12    6    7 1    
    13    6  132 1    
    14    6  133 1    
    15    7    8 1    
    16    8    9 1    
    17    8  134 1    
    18    8  135 1    
    19    9   10 ar   
    20    9   14 ar   
    21   10   11 ar   
    22   10  136 1    
    23   11   12 ar   
    24   11  126 1    
    25   12   13 ar   
    26   12  137 1    
    27   13   14 ar   
    28   13   15 1    
    29   14  138 1    
    30   15   16 1    
    31   15  139 1    
    32   15  140 1    
    33   16   17 1    
    34   17   18 1    
    35   17  141 1    
    36   17  142 1    
    37   18   19 1    
    38   18   67 1    
    39   18  143 1    
    40   19   20 am   BACKBONE|DICT|INTERRES
    41   19  144 1    
    42   20   21 2    
    43   20   22 1    
    44   22   23 1    
    45   22   24 1    
    46   22  145 1    
    47   23  146 1    
    48   23  147 1    
    49   23  148 1    
    50   24   25 am   BACKBONE|DICT|INTERRES
    51   24  149 1    
    52   25   26 2    
    53   25   27 1    
    54   27   28 1    
    55   27   29 1    
    56   27  150 1    
    57   28  151 1    
    58   28  152 1    
    59   28  153 1    
    60   29   30 am   BACKBONE|DICT|INTERRES
    61   29  154 1    
    62   30   31 2    
    63   30   32 1    
    64   32   33 1    
    65   32   34 1    
    66   32  155 1    
    67   33  156 1    
    68   33  157 1    
    69   33  158 1    
    70   34   35 am   BACKBONE|DICT|INTERRES
    71   34  159 1    
    72   35   36 2    
    73   35   37 1    
    74   37   38 1    
    75   37   39 1    
    76   37  160 1    
    77   38  161 1    
    78   38  162 1    
    79   38  163 1    
    80   39   40 am   BACKBONE|DICT|INTERRES
    81   39  164 1    
    82   40   41 2    
    83   40   42 1    
    84   42   43 1    
    85   42   44 1    
    86   42  165 1    
    87   43  166 1    
    88   43  167 1    
    89   43  168 1    
    90   44   45 am   BACKBONE|DICT|INTERRES
    91   44  169 1    
    92   45   46 2    
    93   45   47 1    
    94   47   48 1    
    95   47   49 1    
    96   47  170 1    
    97   48  171 1    
    98   48  172 1    
    99   48  173 1    
   100   49   50 am   BACKBONE|DICT|INTERRES
   101   49  174 1    
   102   50   51 2    
   103   50   52 1    
   104   52   53 1    
   105   52   54 1    
   106   52  175 1    
   107   53  176 1    
   108   53  177 1    
   109   53  178 1    
   110   54   55 am   BACKBONE|DICT|INTERRES
   111   54  179 1    
   112   55   56 2    
   113   55   57 1    
   114   57   58 1    
   115   57   59 1    
   116   57  180 1    
   117   58  181 1    
   118   58  182 1    
   119   58  183 1    
   120   59   60 am   BACKBONE|DICT|INTERRES
   121   59  184 1    
   122   60   61 2    
   123   60   62 1    
   124   62   63 1    
   125   62   64 1    
   126   62  185 1    
   127   63  186 1    
   128   63  187 1    
   129   63  188 1    
   130   64   65 am   BACKBONE|DICT|INTERRES
   131   64  189 1    
   132   65   66 2    
   133   67   68 2    
   134   67   69 am   BACKBONE|DICT|INTERRES
   135   69   70 1    
   136   69  190 1    
   137   70   71 1    
   138   70   72 1    
   139   70  191 1    
   140   71  192 1    
   141   71  193 1    
   142   71  194 1    
   143   72   73 2    
   144   72   74 am   BACKBONE|DICT|INTERRES
   145   74   75 1    
   146   74  195 1    
   147   75   76 1    
   148   75   77 1    
   149   75  196 1    
   150   76  197 1    
   151   76  198 1    
   152   76  199 1    
   153   77   78 2    
   154   77   79 am   BACKBONE|DICT|INTERRES
   155   79   80 1    
   156   79  200 1    
   157   80   81 1    
   158   80   82 1    
   159   80  201 1    
   160   81  202 1    
   161   81  203 1    
   162   81  204 1    
   163   82   83 2    
   164   82   84 am   BACKBONE|DICT|INTERRES
   165   84   85 1    
   166   84  205 1    
   167   85   86 1    
   168   85   87 1    
   169   85  206 1    
   170   86  207 1    
   171   86  208 1    
   172   86  209 1    
   173   87   88 2    
   174   87   89 am   BACKBONE|DICT|INTERRES
   175   89   90 1    
   176   89  210 1    
   177   90   91 1    
   178   90   92 1    
   179   90  211 1    
   180   91  212 1    
   181   91  213 1    
   182   91  214 1    
   183   92   93 2    
   184   92   94 am   BACKBONE|DICT|INTERRES
   185   94   95 1    
   186   94  215 1    
   187   95   96 1    
   188   95   97 1    
   189   95  216 1    
   190   96  217 1    
   191   96  218 1    
   192   96  219 1    
   193   97   98 2    
   194   97   99 am   BACKBONE|DICT|INTERRES
   195   99  100 1    
   196   99  220 1    
   197  100  101 1    
   198  100  102 1    
   199  100  221 1    
   200  101  222 1    
   201  101  223 1    
   202  101  224 1    
   203  102  103 2    
   204  102  104 am   BACKBONE|DICT|INTERRES
   205  104  105 1    
   206  104  225 1    
   207  105  106 1    
   208  105  107 1    
   209  105  226 1    
   210  106  227 1    
   211  106  228 1    
   212  106  229 1    
   213  107  108 2    
   214  107  109 am   BACKBONE|DICT|INTERRES
   215  109  110 1    
   216  109  230 1    
   217  110  111 1    
   218  110  112 1    
   219  110  231 1    
   220  111  232 1    
   221  111  233 1    
   222  111  234 1    
   223  112  113 2    
   224  112  114 am   BACKBONE|DICT|INTERRES
   225  114  115 1    
   226  114  235 1    
   227  115  116 1    
   228  115  117 1    
   229  115  236 1    
   230  116  237 1    
   231  116  238 1    
   232  116  239 1    
   233  117  118 2    
   234  117  119 am   BACKBONE|DICT|INTERRES
   235  119  120 1    
   236  119  240 1    
   237  120  121 1    
   238  120  124 1    
   239  120  241 1    
   240  121  122 am   BACKBONE|DICT|INTERRES
   241  121  123 2    
   242  122  242 1    
   243  122  243 1    
   244  124  125 1    
   245  124  244 1    
   246  124  245 1    
   247  125  126 1    
   248  126  246 1    
   249  126  247 1    
@<TRIPOS>SUBSTRUCTURE
     1 UNK         1 GROUP             0       ****    0 ROOT    
