@<TRIPOS>MOLECULE
3R540
247   249    1
SMALL
USER_CHARGES


@<TRIPOS>ATOM
      1 CA          7.8839  -11.3641  -48.8052 C.3       0 UNK        -0.1800 
      2 C           6.7595  -12.3469  -48.5115 C.2       0 UNK         0.5000 
      3 O           6.0425  -12.1823  -47.5236 O.2       0 UNK        -0.5000 
      4 N           6.5975  -13.3664  -49.3645 N.am      1 UNK        -0.5000 
      5 CA          5.5583  -14.3958  -49.2687 C.3       1 UNK         0.1400 
      6 C6          6.0141  -15.7172  -49.9401 C.3       23 UNK        -0.0398 
      7 S7          5.0215  -17.1512  -49.3989 S.3       23 UNK        -0.2404 
      8 C8          4.3711  -17.7491  -50.9904 C.3       23 UNK        -0.0205 
      9 C9          3.2865  -18.7945  -50.7855 C.ar      23 UNK        -0.0193 
     10 C10         1.9418  -18.4582  -50.9691 C.ar      23 UNK        -0.1150 
     11 C11         0.9363  -19.4059  -50.7541 C.ar      23 UNK        -0.0193 
     12 C12         1.2892  -20.7044  -50.3759 C.ar      23 UNK        -0.1150 
     13 C13         2.6265  -21.0453  -50.1640 C.ar      23 UNK        -0.0193 
     14 C14         3.6236  -20.0921  -50.3889 C.ar      23 UNK        -0.1150 
     15 C15         2.9839  -22.4316  -49.6520 C.3       23 UNK        -0.0205 
     16 S16         3.5287  -22.4059  -47.9090 S.3       23 UNK        -0.2404 
     17 C17         2.0926  -21.7011  -47.0213 C.3       23 UNK        -0.0398 
     18 CA          1.2039  -22.7788  -46.3555 C.3       11 UNK         0.1400 
     19 N           0.5387  -22.2726  -45.1481 N.am      11 UNK        -0.5000 
     20 C          -0.1091  -23.0357  -44.2548 C.2       10 UNK         0.5000 
     21 O          -0.2081  -24.2591  -44.3604 O.2       10 UNK        -0.5000 
     22 CA         -0.7884  -22.3062  -43.0776 C.3       10 UNK         0.1400 
     23 CB         -1.1060  -23.2366  -41.8885 C.3       10 UNK        -0.1800 
     24 N          -0.0557  -21.1166  -42.6371 N.am      10 UNK        -0.5000 
     25 C           1.1747  -21.0545  -42.1056 C.2       9 UNK         0.5000 
     26 O           1.8713  -22.0428  -41.8717 O.2       9 UNK        -0.5000 
     27 CA          1.7399  -19.6515  -41.7946 C.3       9 UNK         0.1400 
     28 CB          2.9046  -19.3251  -42.7431 C.3       9 UNK        -0.1800 
     29 N           0.7440  -18.5814  -41.8905 N.am      9 UNK        -0.5000 
     30 C          -0.2284  -18.3456  -40.9997 C.2       8 UNK         0.5000 
     31 O          -0.3501  -18.9622  -39.9408 O.2       8 UNK        -0.5000 
     32 CA         -1.2670  -17.2719  -41.3806 C.3       8 UNK         0.1400 
     33 CB         -0.7867  -15.8733  -40.9653 C.3       8 UNK        -0.1800 
     34 N          -1.5976  -17.2745  -42.8093 N.am      8 UNK        -0.5000 
     35 C          -2.2007  -18.2883  -43.4494 C.2       7 UNK         0.5000 
     36 O          -2.5636  -19.3259  -42.8962 O.2       7 UNK        -0.5000 
     37 CA         -2.3887  -18.1411  -44.9690 C.3       7 UNK         0.1400 
     38 CB         -3.5738  -17.2107  -45.2714 C.3       7 UNK        -0.1800 
     39 N          -1.1776  -17.6513  -45.6281 N.am      7 UNK        -0.5000 
     40 C          -0.0135  -18.3167  -45.6773 C.2       6 UNK         0.5000 
     41 O           0.1377  -19.4625  -45.2509 O.2       6 UNK        -0.5000 
     42 CA          1.2033  -17.5642  -46.2462 C.3       6 UNK         0.1400 
     43 CB          1.2594  -17.6756  -47.7698 C.3       6 UNK        -0.1800 
     44 N           1.2283  -16.1537  -45.8717 N.am      6 UNK        -0.5000 
     45 C           1.3808  -15.6988  -44.6225 C.2       5 UNK         0.5000 
     46 O           1.5430  -16.4266  -43.6444 O.2       5 UNK        -0.5000 
     47 CA          1.2855  -14.1766  -44.4325 C.3       5 UNK         0.1400 
     48 CB          2.6051  -13.4876  -44.8149 C.3       5 UNK        -0.1800 
     49 N           0.1859  -13.6048  -45.2092 N.am      5 UNK        -0.5000 
     50 C          -1.1117  -13.8061  -44.9402 C.2       4 UNK         0.5000 
     51 O          -1.5172  -14.4671  -43.9838 O.2       4 UNK        -0.5000 
     52 CA         -2.1224  -13.1933  -45.9278 C.3       4 UNK         0.1400 
     53 CB         -2.3776  -11.7156  -45.5953 C.3       4 UNK        -0.1800 
     54 N          -1.6911  -13.3097  -47.3226 N.am      4 UNK        -0.5000 
     55 C          -1.5911  -14.4720  -47.9828 C.2       3 UNK         0.5000 
     56 O          -1.8703  -15.5618  -47.4890 O.2       3 UNK        -0.5000 
     57 CA         -1.0366  -14.4149  -49.4183 C.3       3 UNK         0.1400 
     58 CB         -2.1595  -14.1104  -50.4209 C.3       3 UNK        -0.1800 
     59 N           0.0545  -13.4503  -49.5910 N.am      3 UNK        -0.5000 
     60 C           1.2155  -13.4991  -48.9251 C.2       2 UNK         0.5000 
     61 O           1.4598  -14.3228  -48.0411 O.2       2 UNK        -0.5000 
     62 CA          2.2593  -12.4211  -49.2643 C.3       2 UNK         0.1400 
     63 CB          2.0489  -11.1816  -48.3812 C.3       2 UNK        -0.1800 
     64 N           3.6130  -12.9276  -49.0487 N.am      2 UNK        -0.5000 
     65 C           4.2139  -13.8536  -49.8054 C.2       1 UNK         0.5000 
     66 O           3.7636  -14.2443  -50.8843 O.2       1 UNK        -0.5000 
     67 C           0.1943  -23.3796  -47.3566 C.2       11 UNK         0.5000 
     68 O           0.5192  -24.3540  -48.0339 O.2       11 UNK        -0.5000 
     69 N          -1.0355  -22.8404  -47.3625 N.am      12 UNK        -0.5000 
     70 CA         -2.1892  -23.3029  -48.1392 C.3       12 UNK         0.1400 
     71 CB         -3.4098  -22.4591  -47.7474 C.3       12 UNK        -0.1800 
     72 C          -2.5108  -24.8018  -47.9702 C.2       12 UNK         0.5000 
     73 O          -2.9841  -25.4316  -48.9152 O.2       12 UNK        -0.5000 
     74 N          -2.2300  -25.3527  -46.7796 N.am      13 UNK        -0.5000 
     75 CA         -2.3965  -26.7714  -46.4658 C.3       13 UNK         0.1400 
     76 CB         -2.3225  -26.9624  -44.9433 C.3       13 UNK        -0.1800 
     77 C          -1.3700  -27.6764  -47.1761 C.2       13 UNK         0.5000 
     78 O          -1.6572  -28.8569  -47.3799 O.2       13 UNK        -0.5000 
     79 N          -0.2046  -27.1230  -47.5413 N.am      14 UNK        -0.5000 
     80 CA          0.8223  -27.8114  -48.3181 C.3       14 UNK         0.1400 
     81 CB          2.2132  -27.2633  -47.9576 C.3       14 UNK        -0.1800 
     82 C           0.5426  -27.6785  -49.8232 C.2       14 UNK         0.5000 
     83 O           0.5540  -28.6896  -50.5269 O.2       14 UNK        -0.5000 
     84 N           0.2766  -26.4503  -50.2883 N.am      15 UNK        -0.5000 
     85 CA         -0.0180  -26.1307  -51.6837 C.3       15 UNK         0.1400 
     86 CB          1.2598  -26.2522  -52.5397 C.3       15 UNK        -0.1800 
     87 C          -0.5861  -24.7093  -51.7949 C.2       15 UNK         0.5000 
     88 O          -0.3222  -23.8776  -50.9282 O.2       15 UNK        -0.5000 
     89 N          -1.2961  -24.4485  -52.9010 N.am      16 UNK        -0.5000 
     90 CA         -1.8061  -23.1414  -53.3316 C.3       16 UNK         0.1400 
     91 CB         -0.6460  -22.1598  -53.6091 C.3       16 UNK        -0.1800 
     92 C          -2.8897  -22.5479  -52.4074 C.2       16 UNK         0.5000 
     93 O          -2.8745  -21.3479  -52.1302 O.2       16 UNK        -0.5000 
     94 N          -3.8475  -23.3824  -51.9825 N.am      17 UNK        -0.5000 
     95 CA         -5.0852  -22.9323  -51.3389 C.3       17 UNK         0.1400 
     96 CB         -5.8120  -24.1423  -50.7321 C.3       17 UNK        -0.1800 
     97 C          -6.0104  -22.2084  -52.3385 C.2       17 UNK         0.5000 
     98 O          -5.9965  -22.5287  -53.5302 O.2       17 UNK        -0.5000 
     99 N          -6.8221  -21.2756  -51.8320 N.am      18 UNK        -0.5000 
    100 CA        -7.8050  -20.5071  -52.5914 C.3       18 UNK         0.1400 
    101 CB        -7.1060  -19.3799  -53.3758 C.3       18 UNK        -0.1800 
    102 C         -8.8423  -19.9278  -51.6196 C.2       18 UNK         0.5000 
    103 O         -8.6368  -19.9702  -50.4032 O.2       18 UNK        -0.5000 
    104 N         -9.9153  -19.3450  -52.1722 N.am      19 UNK        -0.5000 
    105 CA       -10.9892  -18.6679  -51.4320 C.3       19 UNK         0.1400 
    106 CB       -12.1125  -18.2953  -52.4114 C.3       19 UNK        -0.1800 
    107 C        -10.5226  -17.4223  -50.6474 C.2       19 UNK         0.5000 
    108 O        -11.1617  -17.0464  -49.6648 O.2       19 UNK        -0.5000 
    109 N         -9.3944  -16.8341  -51.0685 N.am      20 UNK        -0.5000 
    110 CA        -8.6834  -15.7488  -50.3867 C.3       20 UNK         0.1400 
    111 CB        -7.8304  -15.0056  -51.4292 C.3       20 UNK        -0.1800 
    112 C         -7.8125  -16.2317  -49.2020 C.2       20 UNK         0.5000 
    113 O         -7.0678  -15.4276  -48.6420 O.2       20 UNK        -0.5000 
    114 N         -7.8926  -17.5300  -48.8697 N.am      21 UNK        -0.5000 
    115 CA        -7.1460  -18.2913  -47.8593 C.3       21 UNK         0.1400 
    116 CB        -7.1178  -17.5930  -46.4841 C.3       21 UNK        -0.1800 
    117 C         -5.7436  -18.7297  -48.3226 C.2       21 UNK         0.5000 
    118 O         -5.1322  -19.5662  -47.6583 O.2       21 UNK        -0.5000 
    119 N         -5.2775  -18.2074  -49.4611 N.am      22 UNK        -0.5000 
    120 CA        -4.0390  -18.5801  -50.1473 C.3       22 UNK         0.1400 
    121 C         -4.0601  -17.9892  -51.5791 C.2       22 UNK         0.5000 
    122 N         -3.6031  -18.7292  -52.5759 N.am      22 UNK        -0.7600 
    123 O         -4.4795  -16.8533  -51.7898 O.2       22 UNK        -0.5000 
    124 C124       -2.7640  -18.1441  -49.3731 C.3       23 UNK        -0.0398 
    125 S125       -1.4675  -19.4192  -49.3738 S.3       23 UNK        -0.2404 
    126 C126       -0.5282  -19.0137  -50.8842 C.3       23 UNK        -0.0205 
    127 H127        8.4402  -11.6397  -49.7014 H         1 UNK         0.0600 
    128 H128        8.5816  -11.3319  -47.9686 H         1 UNK         0.0600 
    129 H129        7.4781  -10.3630  -48.9510 H         1 UNK         0.0600 
    130 H130        7.1989  -13.4279  -50.1739 H         1 UNK         0.3000 
    131 H131        5.4089  -14.6155  -48.2087 H         1 UNK         0.0600 
    132 H132        7.0462  -15.9326  -49.6603 H         1 UNK         0.0800 
    133 H133        6.0159  -15.6315  -51.0281 H         1 UNK         0.0800 
    134 H134        5.1852  -18.1731  -51.5797 H         1 UNK         0.0800 
    135 H135        3.9777  -16.9078  -51.5630 H         1 UNK         0.0800 
    136 H136        1.6778  -17.4488  -51.2520 H         1 UNK         0.1150 
    137 H137        0.5137  -21.4373  -50.1982 H         1 UNK         0.1150 
    138 H138        4.6599  -20.3501  -50.2212 H         1 UNK         0.1150 
    139 H139        2.1395  -23.1137  -49.7609 H         1 UNK         0.0800 
    140 H140        3.7854  -22.8441  -50.2660 H         1 UNK         0.0800 
    141 H141        1.5083  -21.0436  -47.6641 H         1 UNK         0.0800 
    142 H142        2.5110  -21.0479  -46.2541 H         1 UNK         0.0800 
    143 H143        1.8492  -23.5959  -46.0247 H         1 UNK         0.0600 
    144 H144        0.5182  -21.2613  -45.0291 H         1 UNK         0.3000 
    145 H145       -1.7400  -21.9419  -43.4667 H         1 UNK         0.0600 
    146 H146       -1.5920  -22.6900  -41.0803 H         1 UNK         0.0600 
    147 H147       -1.7820  -24.0380  -42.1892 H         1 UNK         0.0600 
    148 H148       -0.2067  -23.7037  -41.4860 H         1 UNK         0.0600 
    149 H149       -0.5372  -20.2406  -42.7962 H         1 UNK         0.3000 
    150 H150        2.1257  -19.6731  -40.7735 H         1 UNK         0.0600 
    151 H151        3.6974  -20.0698  -42.6634 H         1 UNK         0.0600 
    152 H152        3.3453  -18.3559  -42.5090 H         1 UNK         0.0600 
    153 H153        2.5790  -19.3029  -43.7833 H         1 UNK         0.0600 
    154 H154        0.8212  -17.9644  -42.6943 H         1 UNK         0.3000 
    155 H155       -2.1834  -17.4914  -40.8290 H         1 UNK         0.0600 
    156 H156       -0.5622  -15.8382  -39.8986 H         1 UNK         0.0600 
    157 H157       -1.5501  -15.1204  -41.1621 H         1 UNK         0.0600 
    158 H158        0.1164  -15.5806  -41.5007 H         1 UNK         0.0600 
    159 H159       -1.3594  -16.4377  -43.3313 H         1 UNK         0.3000 
    160 H160       -2.6181  -19.1271  -45.3792 H         1 UNK         0.0600 
    161 H161       -3.3864  -16.1915  -44.9341 H         1 UNK         0.0600 
    162 H162       -4.4785  -17.5598  -44.7728 H         1 UNK         0.0600 
    163 H163       -3.7901  -17.1720  -46.3374 H         1 UNK         0.0600 
    164 H164       -1.2445  -16.7453  -46.0823 H         1 UNK         0.3000 
    165 H165        2.1027  -18.0326  -45.8422 H         1 UNK         0.0600 
    166 H166        2.1456  -17.1844  -48.1715 H         1 UNK         0.0600 
    167 H167        1.3013  -18.7202  -48.0733 H         1 UNK         0.0600 
    168 H168        0.3852  -17.2257  -48.2409 H         1 UNK         0.0600 
    169 H169        1.1481  -15.4805  -46.6308 H         1 UNK         0.3000 
    170 H170        1.0950  -13.9818  -43.3750 H         1 UNK         0.0600 
    171 H171        3.4313  -13.8739  -44.2169 H         1 UNK         0.0600 
    172 H172        2.8602  -13.6459  -45.8630 H         1 UNK         0.0600 
    173 H173        2.5536  -12.4126  -44.6414 H         1 UNK         0.0600 
    174 H174        0.4348  -13.1046  -46.0491 H         1 UNK         0.3000 
    175 H175       -3.0643  -13.7351  -45.8174 H         1 UNK         0.0600 
    176 H176       -2.7157  -11.6009  -44.5645 H         1 UNK         0.0600 
    177 H177       -1.4766  -11.1126  -45.7146 H         1 UNK         0.0600 
    178 H178       -3.1510  -11.2950  -46.2382 H         1 UNK         0.0600 
    179 H179       -1.4369  -12.4575  -47.7996 H         1 UNK         0.3000 
    180 H180       -0.6353  -15.4037  -49.6502 H         1 UNK         0.0600 
    181 H181       -2.5624  -13.1065  -50.2828 H         1 UNK         0.0600 
    182 H182       -2.9870  -14.8127  -50.3092 H         1 UNK         0.0600 
    183 H183       -1.8043  -14.1927  -51.4482 H         1 UNK         0.0600 
    184 H184       -0.0821  -12.7353  -50.2910 H         1 UNK         0.3000 
    185 H185        2.1526  -12.1358  -50.3128 H         1 UNK         0.0600 
    186 H186        1.0551  -10.7574  -48.5292 H         1 UNK         0.0600 
    187 H187        2.1508  -11.4193  -47.3214 H         1 UNK         0.0600 
    188 H188        2.7725  -10.4017  -48.6193 H         1 UNK         0.0600 
    189 H189        4.0843  -12.6324  -48.2019 H         1 UNK         0.3000 
    190 H190       -1.1963  -22.0414  -46.7674 H         1 UNK         0.3000 
    191 H191       -1.9807  -23.1192  -49.1928 H         1 UNK         0.0600 
    192 H192       -3.6187  -22.5211  -46.6788 H         1 UNK         0.0600 
    193 H193       -4.3056  -22.7884  -48.2741 H         1 UNK         0.0600 
    194 H194       -3.2548  -21.4104  -47.9982 H         1 UNK         0.0600 
    195 H195       -1.8032  -24.7801  -46.0637 H         1 UNK         0.3000 
    196 H196       -3.3909  -27.0775  -46.7978 H         1 UNK         0.0600 
    197 H197       -2.5181  -28.0003  -44.6713 H         1 UNK         0.0600 
    198 H198       -3.0614  -26.3470  -44.4296 H         1 UNK         0.0600 
    199 H199       -1.3381  -26.7028  -44.5527 H         1 UNK         0.0600 
    200 H200       -0.0668  -26.1268  -47.4062 H         1 UNK         0.3000 
    201 H201        0.8152  -28.8738  -48.0649 H         1 UNK         0.0600 
    202 H202        2.4087  -27.3576  -46.8894 H         1 UNK         0.0600 
    203 H203        2.3261  -26.2131  -48.2266 H         1 UNK         0.0600 
    204 H204        2.9934  -27.8168  -48.4814 H         1 UNK         0.0600 
    205 H205        0.2691  -25.6531  -49.6559 H         1 UNK         0.3000 
    206 H206       -0.7729  -26.8298  -52.0493 H         1 UNK         0.0600 
    207 H207        1.6440  -27.2718  -52.5514 H         1 UNK         0.0600 
    208 H208        1.0688  -25.9733  -53.5767 H         1 UNK         0.0600 
    209 H209        2.0511  -25.6010  -52.1663 H         1 UNK         0.0600 
    210 H210       -1.4580  -25.2057  -53.5502 H         1 UNK         0.3000 
    211 H211       -2.3054  -23.3176  -54.2853 H         1 UNK         0.0600 
    212 H212       -0.1219  -21.8813  -52.6949 H         1 UNK         0.0600 
    213 H213       -1.0124  -21.2394  -54.0651 H         1 UNK         0.0600 
    214 H214        0.0827  -22.5925  -54.2943 H         1 UNK         0.0600 
    215 H215       -3.8058  -24.3517  -52.2596 H         1 UNK         0.3000 
    216 H216       -4.8266  -22.2370  -50.5378 H         1 UNK         0.0600 
    217 H217       -6.7364  -23.8377  -50.2397 H         1 UNK         0.0600 
    218 H218       -5.1996  -24.6393  -49.9822 H         1 UNK         0.0600 
    219 H219       -6.0730  -24.8786  -51.4933 H         1 UNK         0.0600 
    220 H220       -6.8503  -21.1007  -50.8351 H         1 UNK         0.3000 
    221 H221       -8.3225  -21.1739  -53.2841 H         1 UNK         0.0600 
    222 H222       -6.6673  -18.6407  -52.7061 H         1 UNK         0.0600 
    223 H223       -6.3101  -19.7657  -54.0126 H         1 UNK         0.0600 
    224 H224       -7.8077  -18.8560  -54.0253 H         1 UNK         0.0600 
    225 H225      -10.0075  -19.3512  -53.1782 H         1 UNK         0.3000 
    226 H226      -11.3902  -19.3769  -50.7047 H         1 UNK         0.0600 
    227 H227      -12.5114  -19.1792  -52.9096 H         1 UNK         0.0600 
    228 H228      -12.9426  -17.8158  -51.8905 H         1 UNK         0.0600 
    229 H229      -11.7639  -17.6040  -53.1797 H         1 UNK         0.0600 
    230 H230       -8.9502  -17.2078  -51.8941 H         1 UNK         0.3000 
    231 H231       -9.4156  -15.0468  -49.9825 H         1 UNK         0.0600 
    232 H232       -8.4459  -14.6279  -52.2458 H         1 UNK         0.0600 
    233 H233       -7.0645  -15.6534  -51.8579 H         1 UNK         0.0600 
    234 H234       -7.3233  -14.1473  -50.9866 H         1 UNK         0.0600 
    235 H235       -8.4987  -18.1121  -49.4368 H         1 UNK         0.3000 
    236 H236       -7.7126  -19.2156  -47.7330 H         1 UNK         0.0600 
    237 H237       -6.7441  -18.2716  -45.7167 H         1 UNK         0.0600 
    238 H238       -6.4671  -16.7178  -46.4822 H         1 UNK         0.0600 
    239 H239       -8.1151  -17.2759  -46.1784 H         1 UNK         0.0600 
    240 H240       -5.8271  -17.5070  -49.9410 H         1 UNK         0.3000 
    241 H241       -4.0595  -19.6685  -50.2345 H         1 UNK         0.0600 
    242 H242       -3.6050  -18.3537  -53.5098 H         1 UNK         0.3800 
    243 H243       -3.2781  -19.6844  -52.4150 H         1 UNK         0.3800 
    244 H244       -2.3629  -17.1955  -49.7305 H         1 UNK         0.0800 
    245 H245       -2.9922  -17.9681  -48.3235 H         1 UNK         0.0800 
    246 H246       -0.9626  -19.5383  -51.7346 H         1 UNK         0.0800 
    247 H247       -0.6157  -17.9476  -51.0968 H         1 UNK         0.0800 
@<TRIPOS>BOND
     1    1    2 1    
     2    1  127 1    
     3    1  128 1    
     4    1  129 1    
     5    2    3 2    
     6    2    4 am   BACKBONE|DICT|INTERRES
     7    4    5 1    
     8    4  130 1    
     9    5    6 1    
    10    5   65 1    
    11    5  131 1    
    12    6    7 1    
    13    6  132 1    
    14    6  133 1    
    15    7    8 1    
    16    8    9 1    
    17    8  134 1    
    18    8  135 1    
    19    9   10 ar   
    20    9   14 ar   
    21   10   11 ar   
    22   10  136 1    
    23   11   12 ar   
    24   11  126 1    
    25   12   13 ar   
    26   12  137 1    
    27   13   14 ar   
    28   13   15 1    
    29   14  138 1    
    30   15   16 1    
    31   15  139 1    
    32   15  140 1    
    33   16   17 1    
    34   17   18 1    
    35   17  141 1    
    36   17  142 1    
    37   18   19 1    
    38   18   67 1    
    39   18  143 1    
    40   19   20 am   BACKBONE|DICT|INTERRES
    41   19  144 1    
    42   20   21 2    
    43   20   22 1    
    44   22   23 1    
    45   22   24 1    
    46   22  145 1    
    47   23  146 1    
    48   23  147 1    
    49   23  148 1    
    50   24   25 am   BACKBONE|DICT|INTERRES
    51   24  149 1    
    52   25   26 2    
    53   25   27 1    
    54   27   28 1    
    55   27   29 1    
    56   27  150 1    
    57   28  151 1    
    58   28  152 1    
    59   28  153 1    
    60   29   30 am   BACKBONE|DICT|INTERRES
    61   29  154 1    
    62   30   31 2    
    63   30   32 1    
    64   32   33 1    
    65   32   34 1    
    66   32  155 1    
    67   33  156 1    
    68   33  157 1    
    69   33  158 1    
    70   34   35 am   BACKBONE|DICT|INTERRES
    71   34  159 1    
    72   35   36 2    
    73   35   37 1    
    74   37   38 1    
    75   37   39 1    
    76   37  160 1    
    77   38  161 1    
    78   38  162 1    
    79   38  163 1    
    80   39   40 am   BACKBONE|DICT|INTERRES
    81   39  164 1    
    82   40   41 2    
    83   40   42 1    
    84   42   43 1    
    85   42   44 1    
    86   42  165 1    
    87   43  166 1    
    88   43  167 1    
    89   43  168 1    
    90   44   45 am   BACKBONE|DICT|INTERRES
    91   44  169 1    
    92   45   46 2    
    93   45   47 1    
    94   47   48 1    
    95   47   49 1    
    96   47  170 1    
    97   48  171 1    
    98   48  172 1    
    99   48  173 1    
   100   49   50 am   BACKBONE|DICT|INTERRES
   101   49  174 1    
   102   50   51 2    
   103   50   52 1    
   104   52   53 1    
   105   52   54 1    
   106   52  175 1    
   107   53  176 1    
   108   53  177 1    
   109   53  178 1    
   110   54   55 am   BACKBONE|DICT|INTERRES
   111   54  179 1    
   112   55   56 2    
   113   55   57 1    
   114   57   58 1    
   115   57   59 1    
   116   57  180 1    
   117   58  181 1    
   118   58  182 1    
   119   58  183 1    
   120   59   60 am   BACKBONE|DICT|INTERRES
   121   59  184 1    
   122   60   61 2    
   123   60   62 1    
   124   62   63 1    
   125   62   64 1    
   126   62  185 1    
   127   63  186 1    
   128   63  187 1    
   129   63  188 1    
   130   64   65 am   BACKBONE|DICT|INTERRES
   131   64  189 1    
   132   65   66 2    
   133   67   68 2    
   134   67   69 am   BACKBONE|DICT|INTERRES
   135   69   70 1    
   136   69  190 1    
   137   70   71 1    
   138   70   72 1    
   139   70  191 1    
   140   71  192 1    
   141   71  193 1    
   142   71  194 1    
   143   72   73 2    
   144   72   74 am   BACKBONE|DICT|INTERRES
   145   74   75 1    
   146   74  195 1    
   147   75   76 1    
   148   75   77 1    
   149   75  196 1    
   150   76  197 1    
   151   76  198 1    
   152   76  199 1    
   153   77   78 2    
   154   77   79 am   BACKBONE|DICT|INTERRES
   155   79   80 1    
   156   79  200 1    
   157   80   81 1    
   158   80   82 1    
   159   80  201 1    
   160   81  202 1    
   161   81  203 1    
   162   81  204 1    
   163   82   83 2    
   164   82   84 am   BACKBONE|DICT|INTERRES
   165   84   85 1    
   166   84  205 1    
   167   85   86 1    
   168   85   87 1    
   169   85  206 1    
   170   86  207 1    
   171   86  208 1    
   172   86  209 1    
   173   87   88 2    
   174   87   89 am   BACKBONE|DICT|INTERRES
   175   89   90 1    
   176   89  210 1    
   177   90   91 1    
   178   90   92 1    
   179   90  211 1    
   180   91  212 1    
   181   91  213 1    
   182   91  214 1    
   183   92   93 2    
   184   92   94 am   BACKBONE|DICT|INTERRES
   185   94   95 1    
   186   94  215 1    
   187   95   96 1    
   188   95   97 1    
   189   95  216 1    
   190   96  217 1    
   191   96  218 1    
   192   96  219 1    
   193   97   98 2    
   194   97   99 am   BACKBONE|DICT|INTERRES
   195   99  100 1    
   196   99  220 1    
   197  100  101 1    
   198  100  102 1    
   199  100  221 1    
   200  101  222 1    
   201  101  223 1    
   202  101  224 1    
   203  102  103 2    
   204  102  104 am   BACKBONE|DICT|INTERRES
   205  104  105 1    
   206  104  225 1    
   207  105  106 1    
   208  105  107 1    
   209  105  226 1    
   210  106  227 1    
   211  106  228 1    
   212  106  229 1    
   213  107  108 2    
   214  107  109 am   BACKBONE|DICT|INTERRES
   215  109  110 1    
   216  109  230 1    
   217  110  111 1    
   218  110  112 1    
   219  110  231 1    
   220  111  232 1    
   221  111  233 1    
   222  111  234 1    
   223  112  113 2    
   224  112  114 am   BACKBONE|DICT|INTERRES
   225  114  115 1    
   226  114  235 1    
   227  115  116 1    
   228  115  117 1    
   229  115  236 1    
   230  116  237 1    
   231  116  238 1    
   232  116  239 1    
   233  117  118 2    
   234  117  119 am   BACKBONE|DICT|INTERRES
   235  119  120 1    
   236  119  240 1    
   237  120  121 1    
   238  120  124 1    
   239  120  241 1    
   240  121  122 am   BACKBONE|DICT|INTERRES
   241  121  123 2    
   242  122  242 1    
   243  122  243 1    
   244  124  125 1    
   245  124  244 1    
   246  124  245 1    
   247  125  126 1    
   248  126  246 1    
   249  126  247 1    
@<TRIPOS>SUBSTRUCTURE
     1 UNK         1 GROUP             0       ****    0 ROOT    
