@<TRIPOS>MOLECULE
3R540
247   249    1
SMALL
USER_CHARGES


@<TRIPOS>ATOM
      1 CA          1.5140  -16.1406  -52.6971 C.3       0 UNK        -0.1800 
      2 C           1.7575  -14.7157  -52.2181 C.2       0 UNK         0.5000 
      3 O           1.5607  -13.7692  -52.9812 O.2       0 UNK        -0.5000 
      4 N           2.1962  -14.5679  -50.9638 N.am      1 UNK        -0.5000 
      5 CA          2.3785  -13.2957  -50.2619 C.3       1 UNK         0.1400 
      6 C6          3.6250  -13.3451  -49.3292 C.3       23 UNK        -0.0398 
      7 S7          3.4365  -14.1678  -47.7034 S.3       23 UNK        -0.2404 
      8 C8          3.9051  -15.8992  -48.0511 C.3       23 UNK        -0.0205 
      9 C9          2.7944  -16.7949  -48.6036 C.ar      23 UNK        -0.0193 
     10 C10         1.4440  -16.4187  -48.6055 C.ar      23 UNK        -0.1150 
     11 C11         0.4576  -17.2794  -49.0900 C.ar      23 UNK        -0.0193 
     12 C12         0.8267  -18.5297  -49.5833 C.ar      23 UNK        -0.1150 
     13 C13         2.1613  -18.9420  -49.5541 C.ar      23 UNK        -0.0193 
     14 C14         3.1390  -18.0654  -49.0757 C.ar      23 UNK        -0.1150 
     15 C15         2.5373  -20.3473  -50.0041 C.3       23 UNK        -0.0205 
     16 S16         2.4281  -21.5513  -48.6349 S.3       23 UNK        -0.2404 
     17 C17         0.6429  -21.4924  -48.2771 C.3       23 UNK        -0.0398 
     18 CA          0.1196  -22.6827  -47.4437 C.3       11 UNK         0.1400 
     19 N           0.5247  -22.5816  -46.0361 N.am      11 UNK        -0.5000 
     20 C           0.2605  -23.4934  -45.0894 C.2       10 UNK         0.5000 
     21 O          -0.3236  -24.5530  -45.3069 O.2       10 UNK        -0.5000 
     22 CA          0.6605  -23.1432  -43.6450 C.3       10 UNK         0.1400 
     23 CB          2.1738  -23.2987  -43.4328 C.3       10 UNK        -0.1800 
     24 N           0.2338  -21.7992  -43.2548 N.am      10 UNK        -0.5000 
     25 C          -1.0452  -21.4017  -43.1804 C.2       9 UNK         0.5000 
     26 O          -2.0055  -22.1414  -43.3939 O.2       9 UNK        -0.5000 
     27 CA         -1.2965  -19.9160  -42.8644 C.3       9 UNK         0.1400 
     28 CB         -1.1704  -19.6423  -41.3586 C.3       9 UNK        -0.1800 
     29 N          -0.4001  -19.0265  -43.6005 N.am      9 UNK        -0.5000 
     30 C          -0.3491  -18.9308  -44.9365 C.2       8 UNK         0.5000 
     31 O          -1.0911  -19.5450  -45.7019 O.2       8 UNK        -0.5000 
     32 CA          0.7579  -18.0382  -45.5143 C.3       8 UNK         0.1400 
     33 CB          0.3616  -16.5571  -45.4373 C.3       8 UNK        -0.1800 
     34 N           2.0405  -18.2463  -44.8469 N.am      8 UNK        -0.5000 
     35 C           2.7342  -19.3928  -44.8875 C.2       7 UNK         0.5000 
     36 O           2.3677  -20.3962  -45.4961 O.2       7 UNK        -0.5000 
     37 CA          4.0273  -19.4391  -44.0565 C.3       7 UNK         0.1400 
     38 CB          5.1795  -18.7611  -44.8135 C.3       7 UNK        -0.1800 
     39 N           3.8619  -18.8056  -42.7477 N.am      7 UNK        -0.5000 
     40 C           3.0423  -19.2532  -41.7847 C.2       6 UNK         0.5000 
     41 O           2.3880  -20.2922  -41.8691 O.2       6 UNK        -0.5000 
     42 CA          2.8854  -18.3515  -40.5462 C.3       6 UNK         0.1400 
     43 CB          3.9953  -18.6349  -39.5232 C.3       6 UNK        -0.1800 
     44 N           2.8843  -16.9248  -40.8866 N.am      6 UNK        -0.5000 
     45 C           1.9384  -16.3295  -41.6242 C.2       5 UNK         0.5000 
     46 O           0.9503  -16.9170  -42.0725 O.2       5 UNK        -0.5000 
     47 CA          2.1596  -14.8498  -41.9602 C.3       5 UNK         0.1400 
     48 CB          3.1225  -14.6972  -43.1524 C.3       5 UNK        -0.1800 
     49 N           0.8746  -14.2387  -42.2836 N.am      5 UNK        -0.5000 
     50 C           0.5783  -12.9435  -42.1361 C.2       4 UNK         0.5000 
     51 O           1.3875  -12.1023  -41.7404 O.2       4 UNK        -0.5000 
     52 CA         -0.8529  -12.5273  -42.5153 C.3       4 UNK         0.1400 
     53 CB         -1.0832  -11.0038  -42.4367 C.3       4 UNK        -0.1800 
     54 N          -1.1650  -13.0091  -43.8582 N.am      4 UNK        -0.5000 
     55 C          -2.3901  -13.2379  -44.3412 C.2       3 UNK         0.5000 
     56 O          -3.4156  -13.1208  -43.6679 O.2       3 UNK        -0.5000 
     57 CA         -2.4781  -13.6330  -45.8334 C.3       3 UNK         0.1400 
     58 CB         -3.9285  -13.8121  -46.3179 C.3       3 UNK        -0.1800 
     59 N          -1.8101  -12.6633  -46.7068 N.am      3 UNK        -0.5000 
     60 C          -0.4880  -12.5655  -46.8887 C.2       2 UNK         0.5000 
     61 O           0.3310  -13.2795  -46.3065 O.2       2 UNK        -0.5000 
     62 CA          0.0009  -11.4516  -47.8348 C.3       2 UNK         0.1400 
     63 CB          0.4187  -10.2139  -47.0261 C.3       2 UNK        -0.1800 
     64 N           1.1325  -11.8920  -48.6524 N.am      2 UNK        -0.5000 
     65 C           1.0546  -12.8475  -49.5885 C.2       1 UNK         0.5000 
     66 O          -0.0176  -13.3571  -49.9254 O.2       1 UNK        -0.5000 
     67 C          -1.4129  -22.7846  -47.6066 C.2       11 UNK         0.5000 
     68 O          -1.8924  -23.5905  -48.4111 O.2       11 UNK        -0.5000 
     69 N          -2.1534  -21.9632  -46.8487 N.am      12 UNK        -0.5000 
     70 CA         -3.6135  -21.9502  -46.8253 C.3       12 UNK         0.1400 
     71 CB         -4.1198  -20.7520  -46.0094 C.3       12 UNK        -0.1800 
     72 C          -4.1984  -23.2713  -46.2994 C.2       12 UNK         0.5000 
     73 O          -5.0778  -23.8427  -46.9449 O.2       12 UNK        -0.5000 
     74 N          -3.6667  -23.7514  -45.1673 N.am      13 UNK        -0.5000 
     75 CA         -4.0474  -25.0185  -44.5436 C.3       13 UNK         0.1400 
     76 CB         -3.3860  -25.1236  -43.1610 C.3       13 UNK        -0.1800 
     77 C          -3.7011  -26.2490  -45.4021 C.2       13 UNK         0.5000 
     78 O          -4.4697  -27.2114  -45.4101 O.2       13 UNK        -0.5000 
     79 N          -2.5579  -26.1988  -46.1001 N.am      14 UNK        -0.5000 
     80 CA         -2.0598  -27.2698  -46.9587 C.3       14 UNK         0.1400 
     81 CB         -0.6094  -26.9783  -47.3773 C.3       14 UNK        -0.1800 
     82 C          -2.9424  -27.5177  -48.1922 C.2       14 UNK         0.5000 
     83 O          -3.3661  -28.6554  -48.4044 O.2       14 UNK        -0.5000 
     84 N          -3.1854  -26.4702  -48.9937 N.am      15 UNK        -0.5000 
     85 CA         -3.8507  -26.6036  -50.2932 C.3       15 UNK         0.1400 
     86 CB         -2.8793  -27.2345  -51.3182 C.3       15 UNK        -0.1800 
     87 C          -4.4392  -25.2789  -50.8069 C.2       15 UNK         0.5000 
     88 O          -4.4950  -25.0846  -52.0221 O.2       15 UNK        -0.5000 
     89 N          -4.8428  -24.3685  -49.9064 N.am      16 UNK        -0.5000 
     90 CA         -5.3964  -23.0415  -50.2252 C.3       16 UNK         0.1400 
     91 CB         -6.7946  -23.1721  -50.8654 C.3       16 UNK        -0.1800 
     92 C          -4.4303  -22.1794  -51.0694 C.2       16 UNK         0.5000 
     93 O          -4.8589  -21.5037  -52.0072 O.2       16 UNK        -0.5000 
     94 N          -3.1303  -22.2650  -50.7452 N.am      17 UNK        -0.5000 
     95 CA         -2.0063  -21.6696  -51.4754 C.3       17 UNK         0.1400 
     96 CB         -2.0783  -20.1282  -51.4329 C.3       17 UNK        -0.1800 
     97 C          -1.8659  -22.2362  -52.9024 C.2       17 UNK         0.5000 
     98 O          -1.6645  -21.4796  -53.8500 O.2       17 UNK        -0.5000 
     99 N          -2.0164  -23.5635  -53.0293 N.am      18 UNK        -0.5000 
    100 CA        -2.0840  -24.3248  -54.2848 C.3       18 UNK         0.1400 
    101 CB        -0.7233  -24.3177  -55.0119 C.3       18 UNK        -0.1800 
    102 C         -3.2569  -23.8540  -55.1719 C.2       18 UNK         0.5000 
    103 O         -3.0941  -23.6472  -56.3755 O.2       18 UNK        -0.5000 
    104 N         -4.4111  -23.6564  -54.5205 N.am      19 UNK        -0.5000 
    105 CA        -5.6740  -23.1250  -55.0382 C.3       19 UNK         0.1400 
    106 CB        -6.2654  -24.0654  -56.1087 C.3       19 UNK        -0.1800 
    107 C         -5.6195  -21.6540  -55.5103 C.2       19 UNK         0.5000 
    108 O         -6.5681  -21.2024  -56.1546 O.2       19 UNK        -0.5000 
    109 N         -4.5480  -20.9147  -55.1811 N.am      20 UNK        -0.5000 
    110 CA        -4.4128  -19.4916  -55.5040 C.3       20 UNK         0.1400 
    111 CB        -2.9436  -19.0586  -55.3959 C.3       20 UNK        -0.1800 
    112 C         -5.2996  -18.5951  -54.6214 C.2       20 UNK         0.5000 
    113 O         -5.7526  -17.5574  -55.1046 O.2       20 UNK        -0.5000 
    114 N         -5.5372  -19.0226  -53.3692 N.am      21 UNK        -0.5000 
    115 CA        -6.3828  -18.3960  -52.3490 C.3       21 UNK         0.1400 
    116 CB        -7.8693  -18.5856  -52.7129 C.3       21 UNK        -0.1800 
    117 C         -6.0175  -16.9196  -52.0835 C.2       21 UNK         0.5000 
    118 O         -6.7161  -16.0190  -52.5541 O.2       21 UNK        -0.5000 
    119 N         -4.9116  -16.7098  -51.3540 N.am      22 UNK        -0.5000 
    120 CA        -4.3753  -15.3968  -50.9453 C.3       22 UNK         0.1400 
    121 C         -5.4315  -14.4477  -50.3041 C.2       22 UNK         0.5000 
    122 N         -5.4288  -13.1706  -50.6618 N.am      22 UNK        -0.7600 
    123 O         -6.2141  -14.8510  -49.4465 O.2       22 UNK        -0.5000 
    124 C124       -3.1928  -15.5455  -49.9559 C.3       23 UNK        -0.0398 
    125 S125       -1.7665  -16.4903  -50.5858 S.3       23 UNK        -0.2404 
    126 C126       -1.0089  -16.8944  -48.9828 C.3       23 UNK        -0.0205 
    127 H127        2.0912  -16.3398  -53.5998 H         1 UNK         0.0600 
    128 H128        0.4578  -16.2831  -52.9258 H         1 UNK         0.0600 
    129 H129        1.7985  -16.8751  -51.9432 H         1 UNK         0.0600 
    130 H130        2.2763  -15.3884  -50.3783 H         1 UNK         0.3000 
    131 H131        2.5923  -12.5306  -51.0109 H         1 UNK         0.0600 
    132 H132        3.9501  -12.3247  -49.1229 H         1 UNK         0.0800 
    133 H133        4.4652  -13.7960  -49.8590 H         1 UNK         0.0800 
    134 H134        4.2495  -16.3412  -47.1154 H         1 UNK         0.0800 
    135 H135        4.7609  -15.9111  -48.7275 H         1 UNK         0.0800 
    136 H136        1.1390  -15.4642  -48.2027 H         1 UNK         0.1150 
    137 H137        0.0648  -19.2014  -49.9426 H         1 UNK         0.1150 
    138 H138        4.1715  -18.3848  -49.0478 H         1 UNK         0.1150 
    139 H139        1.8949  -20.6652  -50.8267 H         1 UNK         0.0800 
    140 H140        3.5554  -20.3511  -50.3959 H         1 UNK         0.0800 
    141 H141        0.1351  -21.4446  -49.2377 H         1 UNK         0.0800 
    142 H142        0.4208  -20.5547  -47.7660 H         1 UNK         0.0800 
    143 H143        0.5445  -23.6048  -47.8451 H         1 UNK         0.0600 
    144 H144        1.0546  -21.7510  -45.7816 H         1 UNK         0.3000 
    145 H145        0.1567  -23.8516  -42.9841 H         1 UNK         0.0600 
    146 H146        2.4446  -23.1255  -42.3912 H         1 UNK         0.0600 
    147 H147        2.7442  -22.6014  -44.0457 H         1 UNK         0.0600 
    148 H148        2.5017  -24.3063  -43.6914 H         1 UNK         0.0600 
    149 H149        0.9675  -21.1378  -43.0220 H         1 UNK         0.3000 
    150 H150       -2.3183  -19.6799  -43.1679 H         1 UNK         0.0600 
    151 H151       -1.8610  -20.2662  -40.7899 H         1 UNK         0.0600 
    152 H152       -1.4026  -18.6027  -41.1264 H         1 UNK         0.0600 
    153 H153       -0.1644  -19.8485  -40.9931 H         1 UNK         0.0600 
    154 H154        0.2236  -18.4457  -43.0479 H         1 UNK         0.3000 
    155 H155        0.8890  -18.3123  -46.5611 H         1 UNK         0.0600 
    156 H156       -0.5223  -16.3715  -46.0444 H         1 UNK         0.0600 
    157 H157        1.1555  -15.9109  -45.8107 H         1 UNK         0.0600 
    158 H158        0.1266  -16.2420  -44.4223 H         1 UNK         0.0600 
    159 H159        2.3875  -17.4883  -44.2813 H         1 UNK         0.3000 
    160 H160        4.2880  -20.4877  -43.8982 H         1 UNK         0.0600 
    161 H161        4.9926  -17.6977  -44.9680 H         1 UNK         0.0600 
    162 H162        5.3205  -19.2151  -45.7955 H         1 UNK         0.0600 
    163 H163        6.1200  -18.8615  -44.2716 H         1 UNK         0.0600 
    164 H164        4.3670  -17.9469  -42.5884 H         1 UNK         0.3000 
    165 H165        1.9254  -18.5893  -40.0830 H         1 UNK         0.0600 
    166 H166        3.8472  -18.0570  -38.6108 H         1 UNK         0.0600 
    167 H167        4.0051  -19.6886  -39.2409 H         1 UNK         0.0600 
    168 H168        4.9822  -18.3918  -39.9190 H         1 UNK         0.0600 
    169 H169        3.6659  -16.3797  -40.5518 H         1 UNK         0.3000 
    170 H170        2.5847  -14.3625  -41.0801 H         1 UNK         0.0600 
    171 H171        2.7202  -15.1519  -44.0579 H         1 UNK         0.0600 
    172 H172        3.3157  -13.6467  -43.3704 H         1 UNK         0.0600 
    173 H173        4.0858  -15.1654  -42.9471 H         1 UNK         0.0600 
    174 H174        0.1571  -14.8947  -42.5651 H         1 UNK         0.3000 
    175 H175       -1.5175  -13.0135  -41.7981 H         1 UNK         0.0600 
    176 H176       -0.4530  -10.4676  -43.1473 H         1 UNK         0.0600 
    177 H177       -2.1206  -10.7465  -42.6502 H         1 UNK         0.0600 
    178 H178       -0.8572  -10.6230  -41.4399 H         1 UNK         0.0600 
    179 H179       -0.3755  -13.1335  -44.4878 H         1 UNK         0.3000 
    180 H180       -1.9796  -14.5970  -45.9380 H         1 UNK         0.0600 
    181 H181       -4.4991  -12.8864  -46.2335 H         1 UNK         0.0600 
    182 H182       -4.4464  -14.5731  -45.7329 H         1 UNK         0.0600 
    183 H183       -3.9620  -14.1299  -47.3594 H         1 UNK         0.0600 
    184 H184       -2.4151  -12.0094  -47.1820 H         1 UNK         0.3000 
    185 H185       -0.8150  -11.1709  -48.5043 H         1 UNK         0.0600 
    186 H186        1.2459  -10.4358  -46.3501 H         1 UNK         0.0600 
    187 H187        0.7286   -9.3994  -47.6811 H         1 UNK         0.0600 
    188 H188       -0.4094   -9.8453  -46.4193 H         1 UNK         0.0600 
    189 H189        2.0395  -11.5442  -48.3801 H         1 UNK         0.3000 
    190 H190       -1.6872  -21.2788  -46.2583 H         1 UNK         0.3000 
    191 H191       -3.9508  -21.8133  -47.8518 H         1 UNK         0.0600 
    192 H192       -3.7766  -19.8109  -46.4394 H         1 UNK         0.0600 
    193 H193       -3.7763  -20.7912  -44.9758 H         1 UNK         0.0600 
    194 H194       -5.2100  -20.7232  -45.9928 H         1 UNK         0.0600 
    195 H195       -2.9583  -23.2046  -44.6841 H         1 UNK         0.3000 
    196 H196       -5.1302  -25.0082  -44.4027 H         1 UNK         0.0600 
    197 H197       -3.6956  -24.3035  -42.5130 H         1 UNK         0.0600 
    198 H198       -2.2979  -25.0987  -43.2342 H         1 UNK         0.0600 
    199 H199       -3.6623  -26.0540  -42.6634 H         1 UNK         0.0600 
    200 H200       -1.9426  -25.4007  -45.9708 H         1 UNK         0.3000 
    201 H201       -2.0541  -28.1894  -46.3696 H         1 UNK         0.0600 
    202 H202        0.0522  -26.9581  -46.5114 H         1 UNK         0.0600 
    203 H203       -0.5197  -26.0197  -47.8891 H         1 UNK         0.0600 
    204 H204       -0.2332  -27.7483  -48.0520 H         1 UNK         0.0600 
    205 H205       -2.8031  -25.5606  -48.7576 H         1 UNK         0.3000 
    206 H206       -4.7063  -27.2722  -50.1786 H         1 UNK         0.0600 
    207 H207       -2.5259  -28.2122  -50.9916 H         1 UNK         0.0600 
    208 H208       -2.0057  -26.6023  -51.4799 H         1 UNK         0.0600 
    209 H209       -3.3616  -27.3856  -52.2848 H         1 UNK         0.0600 
    210 H210       -4.7876  -24.5872  -48.9175 H         1 UNK         0.3000 
    211 H211       -5.5325  -22.5164  -49.2814 H         1 UNK         0.0600 
    212 H212       -6.7554  -23.6628  -51.8376 H         1 UNK         0.0600 
    213 H213       -7.2516  -22.1927  -51.0126 H         1 UNK         0.0600 
    214 H214       -7.4648  -23.7484  -50.2277 H         1 UNK         0.0600 
    215 H215       -2.8720  -22.8571  -49.9614 H         1 UNK         0.3000 
    216 H216       -1.1027  -21.9800  -50.9554 H         1 UNK         0.0600 
    217 H217       -1.1827  -19.6823  -51.8666 H         1 UNK         0.0600 
    218 H218       -2.1657  -19.7665  -50.4086 H         1 UNK         0.0600 
    219 H219       -2.9288  -19.7408  -51.9927 H         1 UNK         0.0600 
    220 H220       -2.2353  -24.0906  -52.1967 H         1 UNK         0.3000 
    221 H221       -2.3049  -25.3571  -54.0092 H         1 UNK         0.0600 
    222 H222       -0.4566  -23.3226  -55.3689 H         1 UNK         0.0600 
    223 H223        0.0752  -24.6639  -54.3559 H         1 UNK         0.0600 
    224 H224       -0.7419  -24.9800  -55.8780 H         1 UNK         0.0600 
    225 H225       -4.4296  -23.9130  -53.5364 H         1 UNK         0.3000 
    226 H226       -6.3583  -23.1295  -54.1894 H         1 UNK         0.0600 
    227 H227       -6.3146  -25.0925  -55.7468 H         1 UNK         0.0600 
    228 H228       -7.2807  -23.7692  -56.3743 H         1 UNK         0.0600 
    229 H229       -5.6746  -24.0592  -57.0249 H         1 UNK         0.0600 
    230 H230       -3.7962  -21.3390  -54.6527 H         1 UNK         0.3000 
    231 H231       -4.7228  -19.3491  -56.5415 H         1 UNK         0.0600 
    232 H232       -2.8131  -18.0390  -55.7600 H         1 UNK         0.0600 
    233 H233       -2.2945  -19.7024  -55.9897 H         1 UNK         0.0600 
    234 H234       -2.5909  -19.0801  -54.3648 H         1 UNK         0.0600 
    235 H235       -5.1270  -19.9088  -53.0857 H         1 UNK         0.3000 
    236 H236       -6.2046  -18.9417  -51.4210 H         1 UNK         0.0600 
    237 H237       -8.1234  -18.0988  -53.6551 H         1 UNK         0.0600 
    238 H238       -8.1174  -19.6430  -52.8065 H         1 UNK         0.0600 
    239 H239       -8.5160  -18.1660  -51.9416 H         1 UNK         0.0600 
    240 H240       -4.3839  -17.5085  -51.0355 H         1 UNK         0.3000 
    241 H241       -4.0006  -14.9216  -51.8537 H         1 UNK         0.0600 
    242 H242       -6.0984  -12.5448  -50.2419 H         1 UNK         0.3800 
    243 H243       -4.7921  -12.8159  -51.3586 H         1 UNK         0.3800 
    244 H244       -3.5436  -16.0171  -49.0356 H         1 UNK         0.0800 
    245 H245       -2.8134  -14.5623  -49.6684 H         1 UNK         0.0800 
    246 H246       -1.5651  -17.7080  -48.5142 H         1 UNK         0.0800 
    247 H247       -1.1114  -16.0324  -48.3216 H         1 UNK         0.0800 
@<TRIPOS>BOND
     1    1    2 1    
     2    1  127 1    
     3    1  128 1    
     4    1  129 1    
     5    2    3 2    
     6    2    4 am   BACKBONE|DICT|INTERRES
     7    4    5 1    
     8    4  130 1    
     9    5    6 1    
    10    5   65 1    
    11    5  131 1    
    12    6    7 1    
    13    6  132 1    
    14    6  133 1    
    15    7    8 1    
    16    8    9 1    
    17    8  134 1    
    18    8  135 1    
    19    9   10 ar   
    20    9   14 ar   
    21   10   11 ar   
    22   10  136 1    
    23   11   12 ar   
    24   11  126 1    
    25   12   13 ar   
    26   12  137 1    
    27   13   14 ar   
    28   13   15 1    
    29   14  138 1    
    30   15   16 1    
    31   15  139 1    
    32   15  140 1    
    33   16   17 1    
    34   17   18 1    
    35   17  141 1    
    36   17  142 1    
    37   18   19 1    
    38   18   67 1    
    39   18  143 1    
    40   19   20 am   BACKBONE|DICT|INTERRES
    41   19  144 1    
    42   20   21 2    
    43   20   22 1    
    44   22   23 1    
    45   22   24 1    
    46   22  145 1    
    47   23  146 1    
    48   23  147 1    
    49   23  148 1    
    50   24   25 am   BACKBONE|DICT|INTERRES
    51   24  149 1    
    52   25   26 2    
    53   25   27 1    
    54   27   28 1    
    55   27   29 1    
    56   27  150 1    
    57   28  151 1    
    58   28  152 1    
    59   28  153 1    
    60   29   30 am   BACKBONE|DICT|INTERRES
    61   29  154 1    
    62   30   31 2    
    63   30   32 1    
    64   32   33 1    
    65   32   34 1    
    66   32  155 1    
    67   33  156 1    
    68   33  157 1    
    69   33  158 1    
    70   34   35 am   BACKBONE|DICT|INTERRES
    71   34  159 1    
    72   35   36 2    
    73   35   37 1    
    74   37   38 1    
    75   37   39 1    
    76   37  160 1    
    77   38  161 1    
    78   38  162 1    
    79   38  163 1    
    80   39   40 am   BACKBONE|DICT|INTERRES
    81   39  164 1    
    82   40   41 2    
    83   40   42 1    
    84   42   43 1    
    85   42   44 1    
    86   42  165 1    
    87   43  166 1    
    88   43  167 1    
    89   43  168 1    
    90   44   45 am   BACKBONE|DICT|INTERRES
    91   44  169 1    
    92   45   46 2    
    93   45   47 1    
    94   47   48 1    
    95   47   49 1    
    96   47  170 1    
    97   48  171 1    
    98   48  172 1    
    99   48  173 1    
   100   49   50 am   BACKBONE|DICT|INTERRES
   101   49  174 1    
   102   50   51 2    
   103   50   52 1    
   104   52   53 1    
   105   52   54 1    
   106   52  175 1    
   107   53  176 1    
   108   53  177 1    
   109   53  178 1    
   110   54   55 am   BACKBONE|DICT|INTERRES
   111   54  179 1    
   112   55   56 2    
   113   55   57 1    
   114   57   58 1    
   115   57   59 1    
   116   57  180 1    
   117   58  181 1    
   118   58  182 1    
   119   58  183 1    
   120   59   60 am   BACKBONE|DICT|INTERRES
   121   59  184 1    
   122   60   61 2    
   123   60   62 1    
   124   62   63 1    
   125   62   64 1    
   126   62  185 1    
   127   63  186 1    
   128   63  187 1    
   129   63  188 1    
   130   64   65 am   BACKBONE|DICT|INTERRES
   131   64  189 1    
   132   65   66 2    
   133   67   68 2    
   134   67   69 am   BACKBONE|DICT|INTERRES
   135   69   70 1    
   136   69  190 1    
   137   70   71 1    
   138   70   72 1    
   139   70  191 1    
   140   71  192 1    
   141   71  193 1    
   142   71  194 1    
   143   72   73 2    
   144   72   74 am   BACKBONE|DICT|INTERRES
   145   74   75 1    
   146   74  195 1    
   147   75   76 1    
   148   75   77 1    
   149   75  196 1    
   150   76  197 1    
   151   76  198 1    
   152   76  199 1    
   153   77   78 2    
   154   77   79 am   BACKBONE|DICT|INTERRES
   155   79   80 1    
   156   79  200 1    
   157   80   81 1    
   158   80   82 1    
   159   80  201 1    
   160   81  202 1    
   161   81  203 1    
   162   81  204 1    
   163   82   83 2    
   164   82   84 am   BACKBONE|DICT|INTERRES
   165   84   85 1    
   166   84  205 1    
   167   85   86 1    
   168   85   87 1    
   169   85  206 1    
   170   86  207 1    
   171   86  208 1    
   172   86  209 1    
   173   87   88 2    
   174   87   89 am   BACKBONE|DICT|INTERRES
   175   89   90 1    
   176   89  210 1    
   177   90   91 1    
   178   90   92 1    
   179   90  211 1    
   180   91  212 1    
   181   91  213 1    
   182   91  214 1    
   183   92   93 2    
   184   92   94 am   BACKBONE|DICT|INTERRES
   185   94   95 1    
   186   94  215 1    
   187   95   96 1    
   188   95   97 1    
   189   95  216 1    
   190   96  217 1    
   191   96  218 1    
   192   96  219 1    
   193   97   98 2    
   194   97   99 am   BACKBONE|DICT|INTERRES
   195   99  100 1    
   196   99  220 1    
   197  100  101 1    
   198  100  102 1    
   199  100  221 1    
   200  101  222 1    
   201  101  223 1    
   202  101  224 1    
   203  102  103 2    
   204  102  104 am   BACKBONE|DICT|INTERRES
   205  104  105 1    
   206  104  225 1    
   207  105  106 1    
   208  105  107 1    
   209  105  226 1    
   210  106  227 1    
   211  106  228 1    
   212  106  229 1    
   213  107  108 2    
   214  107  109 am   BACKBONE|DICT|INTERRES
   215  109  110 1    
   216  109  230 1    
   217  110  111 1    
   218  110  112 1    
   219  110  231 1    
   220  111  232 1    
   221  111  233 1    
   222  111  234 1    
   223  112  113 2    
   224  112  114 am   BACKBONE|DICT|INTERRES
   225  114  115 1    
   226  114  235 1    
   227  115  116 1    
   228  115  117 1    
   229  115  236 1    
   230  116  237 1    
   231  116  238 1    
   232  116  239 1    
   233  117  118 2    
   234  117  119 am   BACKBONE|DICT|INTERRES
   235  119  120 1    
   236  119  240 1    
   237  120  121 1    
   238  120  124 1    
   239  120  241 1    
   240  121  122 am   BACKBONE|DICT|INTERRES
   241  121  123 2    
   242  122  242 1    
   243  122  243 1    
   244  124  125 1    
   245  124  244 1    
   246  124  245 1    
   247  125  126 1    
   248  126  246 1    
   249  126  247 1    
@<TRIPOS>SUBSTRUCTURE
     1 UNK         1 GROUP             0       ****    0 ROOT    
