@<TRIPOS>MOLECULE
3R540
247   249    1
SMALL
USER_CHARGES


@<TRIPOS>ATOM
      1 CA          0.7230  -11.1265  -44.1998 C.3       0 UNK        -0.1800 
      2 C           0.2571  -12.3319  -45.0002 C.2       0 UNK         0.5000 
      3 O          -0.3808  -13.2291  -44.4468 O.2       0 UNK        -0.5000 
      4 N           0.5668  -12.3689  -46.3048 N.am      1 UNK        -0.5000 
      5 CA          0.2391  -13.4822  -47.2094 C.3       1 UNK         0.1400 
      6 C6          0.9814  -13.3948  -48.5723 C.3       23 UNK        -0.0398 
      7 S7          1.8747  -14.9352  -48.9841 S.3       23 UNK        -0.2404 
      8 C8          0.6161  -15.8458  -49.9345 C.3       23 UNK        -0.0205 
      9 C9          1.1405  -17.1706  -50.4684 C.ar      23 UNK        -0.0193 
     10 C10         1.1769  -17.4093  -51.8472 C.ar      23 UNK        -0.1150 
     11 C11         1.6012  -18.6463  -52.3408 C.ar      23 UNK        -0.0193 
     12 C12         2.0294  -19.6286  -51.4476 C.ar      23 UNK        -0.1150 
     13 C13         1.9675  -19.4182  -50.0697 C.ar      23 UNK        -0.0193 
     14 C14         1.5264  -18.1843  -49.5830 C.ar      23 UNK        -0.1150 
     15 C15         2.3525  -20.5456  -49.1248 C.3       23 UNK        -0.0205 
     16 S16         1.2303  -21.9671  -49.2971 S.3       23 UNK        -0.2404 
     17 C17        -0.2606  -21.3587  -48.4395 C.3       23 UNK        -0.0398 
     18 CA         -0.5994  -22.2427  -47.2158 C.3       11 UNK         0.1400 
     19 N           0.4581  -22.2167  -46.2002 N.am      11 UNK        -0.5000 
     20 C           1.0356  -23.2986  -45.6623 C.2       10 UNK         0.5000 
     21 O           0.7172  -24.4565  -45.9343 O.2       10 UNK        -0.5000 
     22 CA          2.1433  -23.0413  -44.6221 C.3       10 UNK         0.1400 
     23 CB          3.5172  -23.0234  -45.3077 C.3       10 UNK        -0.1800 
     24 N           1.9652  -21.8013  -43.8571 N.am      10 UNK        -0.5000 
     25 C           0.9268  -21.5541  -43.0424 C.2       9 UNK         0.5000 
     26 O          -0.0117  -22.3385  -42.9016 O.2       9 UNK        -0.5000 
     27 CA          0.8956  -20.2004  -42.3028 C.3       9 UNK         0.1400 
     28 CB          0.2416  -20.2909  -40.9086 C.3       9 UNK        -0.1800 
     29 N           2.1945  -19.5226  -42.2450 N.am      9 UNK        -0.5000 
     30 C           3.2893  -19.8969  -41.5662 C.2       8 UNK         0.5000 
     31 O           3.3399  -20.8954  -40.8463 O.2       8 UNK        -0.5000 
     32 CA          4.5372  -18.9994  -41.7278 C.3       8 UNK         0.1400 
     33 CB          5.8518  -19.7439  -41.4142 C.3       8 UNK        -0.1800 
     34 N           4.6266  -18.3293  -43.0319 N.am      8 UNK        -0.5000 
     35 C           4.6958  -18.9105  -44.2410 C.2       7 UNK         0.5000 
     36 O           4.6430  -20.1291  -44.4066 O.2       7 UNK        -0.5000 
     37 CA          4.8087  -17.9799  -45.4673 C.3       7 UNK         0.1400 
     38 CB          4.0335  -18.5332  -46.6733 C.3       7 UNK        -0.1800 
     39 N           4.2889  -16.6498  -45.1625 N.am      7 UNK        -0.5000 
     40 C           5.0060  -15.5240  -45.0539 C.2       6 UNK         0.5000 
     41 O           6.2162  -15.4581  -45.2699 O.2       6 UNK        -0.5000 
     42 CA          4.2470  -14.2581  -44.5992 C.3       6 UNK         0.1400 
     43 CB          3.9692  -13.3353  -45.7951 C.3       6 UNK        -0.1800 
     44 N           2.9801  -14.5514  -43.9224 N.am      6 UNK        -0.5000 
     45 C           2.8650  -15.1707  -42.7393 C.2       5 UNK         0.5000 
     46 O           3.8253  -15.5103  -42.0482 O.2       5 UNK        -0.5000 
     47 CA          1.4410  -15.5455  -42.2970 C.3       5 UNK         0.1400 
     48 CB          0.8384  -14.4481  -41.4081 C.3       5 UNK        -0.1800 
     49 N           0.5382  -15.8062  -43.4208 N.am      5 UNK        -0.5000 
     50 C           0.6300  -16.8370  -44.2728 C.2       4 UNK         0.5000 
     51 O           1.5816  -17.6178  -44.2673 O.2       4 UNK        -0.5000 
     52 CA         -0.4921  -17.0164  -45.3212 C.3       4 UNK         0.1400 
     53 CB         -0.8771  -18.4953  -45.5296 C.3       4 UNK        -0.1800 
     54 N          -1.6786  -16.1826  -45.0864 N.am      4 UNK        -0.5000 
     55 C          -2.5039  -16.1815  -44.0255 C.2       3 UNK         0.5000 
     56 O          -2.4501  -17.0158  -43.1223 O.2       3 UNK        -0.5000 
     57 CA         -3.5208  -15.0226  -43.9252 C.3       3 UNK         0.1400 
     58 CB         -3.4371  -14.3407  -42.5486 C.3       3 UNK        -0.1800 
     59 N          -3.2749  -14.0065  -44.9508 N.am      3 UNK        -0.5000 
     60 C          -4.0964  -13.7027  -45.9653 C.2       2 UNK         0.5000 
     61 O          -5.2317  -14.1620  -46.0867 O.2       2 UNK        -0.5000 
     62 CA         -3.5577  -12.7323  -47.0421 C.3       2 UNK         0.1400 
     63 CB         -4.1092  -11.3171  -46.8115 C.3       2 UNK        -0.1800 
     64 N          -2.0932  -12.6630  -47.1109 N.am      2 UNK        -0.5000 
     65 C          -1.2821  -13.6946  -47.3889 C.2       1 UNK         0.5000 
     66 O          -1.6991  -14.8112  -47.6852 O.2       1 UNK        -0.5000 
     67 C          -1.9783  -21.9047  -46.6130 C.2       11 UNK         0.5000 
     68 O          -2.9125  -21.6219  -47.3661 O.2       11 UNK        -0.5000 
     69 N          -2.1266  -21.9863  -45.2801 N.am      12 UNK        -0.5000 
     70 CA         -3.4191  -21.8722  -44.5928 C.3       12 UNK         0.1400 
     71 CB         -3.2067  -21.8712  -43.0735 C.3       12 UNK        -0.1800 
     72 C          -4.4051  -22.9825  -45.0104 C.2       12 UNK         0.5000 
     73 O          -5.5972  -22.7150  -45.1587 O.2       12 UNK        -0.5000 
     74 N          -3.8685  -24.1828  -45.2779 N.am      13 UNK        -0.5000 
     75 CA         -4.5856  -25.3389  -45.8232 C.3       13 UNK         0.1400 
     76 CB         -3.6763  -26.5732  -45.7253 C.3       13 UNK        -0.1800 
     77 C          -5.0727  -25.1441  -47.2755 C.2       13 UNK         0.5000 
     78 O          -6.0013  -25.8336  -47.6958 O.2       13 UNK        -0.5000 
     79 N          -4.4711  -24.1917  -48.0028 N.am      14 UNK        -0.5000 
     80 CA         -4.8681  -23.7583  -49.3451 C.3       14 UNK         0.1400 
     81 CB         -3.5988  -23.4611  -50.1661 C.3       14 UNK        -0.1800 
     82 C          -5.8190  -22.5430  -49.2810 C.2       14 UNK         0.5000 
     83 O          -5.8419  -21.7331  -50.2100 O.2       14 UNK        -0.5000 
     84 N          -6.5627  -22.4208  -48.1696 N.am      15 UNK        -0.5000 
     85 CA         -7.5000  -21.3470  -47.8290 C.3       15 UNK         0.1400 
     86 CB         -8.7187  -21.3696  -48.7755 C.3       15 UNK        -0.1800 
     87 C          -6.8049  -19.9735  -47.7480 C.2       15 UNK         0.5000 
     88 O          -7.3175  -18.9882  -48.2766 O.2       15 UNK        -0.5000 
     89 N          -5.6225  -19.9553  -47.1140 N.am      16 UNK        -0.5000 
     90 CA         -4.6856  -18.8279  -47.0291 C.3       16 UNK         0.1400 
     91 CB         -5.2752  -17.6667  -46.2055 C.3       16 UNK        -0.1800 
     92 C          -4.1787  -18.4021  -48.4222 C.2       16 UNK         0.5000 
     93 O          -4.1840  -17.2177  -48.7581 O.2       16 UNK        -0.5000 
     94 N          -3.7826  -19.4113  -49.2120 N.am      17 UNK        -0.5000 
     95 CA         -3.3159  -19.3335  -50.6004 C.3       17 UNK         0.1400 
     96 CB         -1.9658  -18.5958  -50.6736 C.3       17 UNK        -0.1800 
     97 C          -4.3539  -18.7651  -51.5951 C.2       17 UNK         0.5000 
     98 O          -3.9705  -18.2565  -52.6498 O.2       17 UNK        -0.5000 
     99 N          -5.6489  -18.8683  -51.2632 N.am      18 UNK        -0.5000 
    100 CA        -6.7511  -18.4911  -52.1490 C.3       18 UNK         0.1400 
    101 CB        -8.0120  -18.2036  -51.3228 C.3       18 UNK        -0.1800 
    102 C         -7.0309  -19.5670  -53.2132 C.2       18 UNK         0.5000 
    103 O         -7.5192  -19.2302  -54.2933 O.2       18 UNK        -0.5000 
    104 N         -6.7114  -20.8331  -52.9062 N.am      19 UNK        -0.5000 
    105 CA        -6.7397  -21.9394  -53.8608 C.3       19 UNK         0.1400 
    106 CB        -6.6374  -23.2692  -53.0993 C.3       19 UNK        -0.1800 
    107 C         -5.6011  -21.8082  -54.8909 C.2       19 UNK         0.5000 
    108 O         -4.5139  -21.3331  -54.5514 O.2       19 UNK        -0.5000 
    109 N         -5.8747  -22.2367  -56.1290 N.am      20 UNK        -0.5000 
    110 CA        -4.9365  -22.2019  -57.2516 C.3       20 UNK         0.1400 
    111 CB        -5.6883  -22.5813  -58.5372 C.3       20 UNK        -0.1800 
    112 C         -3.7239  -23.1296  -57.0437 C.2       20 UNK         0.5000 
    113 O         -3.8515  -24.1691  -56.3915 O.2       20 UNK        -0.5000 
    114 N         -2.5864  -22.7404  -57.6382 N.am      21 UNK        -0.5000 
    115 CA        -1.2874  -23.4225  -57.5911 C.3       21 UNK         0.1400 
    116 CB        -1.3479  -24.7735  -58.3360 C.3       21 UNK        -0.1800 
    117 C         -0.7335  -23.5393  -56.1549 C.2       21 UNK         0.5000 
    118 O         -0.3459  -24.6267  -55.7215 O.2       21 UNK        -0.5000 
    119 N         -0.7274  -22.4064  -55.4399 N.am      22 UNK        -0.5000 
    120 CA        -0.1695  -22.2612  -54.0872 C.3       22 UNK         0.1400 
    121 C          1.3548  -22.5663  -53.9948 C.2       22 UNK         0.5000 
    122 N          1.8307  -23.0301  -52.8468 N.am      22 UNK        -0.7600 
    123 O          2.1144  -22.3657  -54.9405 O.2       22 UNK        -0.5000 
    124 C124       -0.5302  -20.8876  -53.4589 C.3       23 UNK        -0.0398 
    125 S125       -0.0739  -19.4106  -54.4479 S.3       23 UNK        -0.2404 
    126 C126        1.5831  -18.9416  -53.8333 C.3       23 UNK        -0.0205 
    127 H127       -0.1280  -10.6461  -43.7175 H         1 UNK         0.0600 
    128 H128        1.4229  -11.4414  -43.4260 H         1 UNK         0.0600 
    129 H129        1.2202  -10.3893  -44.8303 H         1 UNK         0.0600 
    130 H130        1.0751  -11.5973  -46.7139 H         1 UNK         0.3000 
    131 H131        0.5948  -14.3736  -46.6894 H         1 UNK         0.0600 
    132 H132        1.7357  -12.6073  -48.5447 H         1 UNK         0.0800 
    133 H133        0.3177  -13.1192  -49.3944 H         1 UNK         0.0800 
    134 H134        0.2551  -15.2170  -50.7499 H         1 UNK         0.0800 
    135 H135       -0.2430  -16.0570  -49.3000 H         1 UNK         0.0800 
    136 H136        0.8470  -16.6459  -52.5376 H         1 UNK         0.1150 
    137 H137        2.3685  -20.5829  -51.8225 H         1 UNK         0.1150 
    138 H138        1.4711  -18.0116  -48.5176 H         1 UNK         0.1150 
    139 H139        3.3720  -20.8649  -49.3447 H         1 UNK         0.0800 
    140 H140        2.3446  -20.2161  -48.0873 H         1 UNK         0.0800 
    141 H141       -0.1339  -20.3173  -48.1409 H         1 UNK         0.0800 
    142 H142       -1.0703  -21.3698  -49.1699 H         1 UNK         0.0800 
    143 H143       -0.7134  -23.2608  -47.5937 H         1 UNK         0.0600 
    144 H144        0.7859  -21.3091  -45.9068 H         1 UNK         0.3000 
    145 H145        2.1265  -23.8719  -43.9135 H         1 UNK         0.0600 
    146 H146        4.3211  -22.9259  -44.5778 H         1 UNK         0.0600 
    147 H147        3.6917  -23.9471  -45.8610 H         1 UNK         0.0600 
    148 H148        3.6028  -22.1964  -46.0140 H         1 UNK         0.0600 
    149 H149        2.7144  -21.1215  -43.9192 H         1 UNK         0.3000 
    150 H150        0.2547  -19.5587  -42.9064 H         1 UNK         0.0600 
    151 H151       -0.7920  -20.6304  -40.9827 H         1 UNK         0.0600 
    152 H152        0.2258  -19.3181  -40.4172 H         1 UNK         0.0600 
    153 H153        0.7650  -20.9903  -40.2567 H         1 UNK         0.0600 
    154 H154        2.2681  -18.7180  -42.8614 H         1 UNK         0.3000 
    155 H155        4.4275  -18.2039  -40.9894 H         1 UNK         0.0600 
    156 H156        5.8565  -20.1188  -40.3900 H         1 UNK         0.0600 
    157 H157        6.7131  -19.0842  -41.5192 H         1 UNK         0.0600 
    158 H158        6.0005  -20.5981  -42.0756 H         1 UNK         0.0600 
    159 H159        4.6336  -17.3174  -42.9909 H         1 UNK         0.3000 
    160 H160        5.8661  -17.9291  -45.7330 H         1 UNK         0.0600 
    161 H161        2.9769  -18.6627  -46.4372 H         1 UNK         0.0600 
    162 H162        4.4287  -19.5010  -46.9838 H         1 UNK         0.0600 
    163 H163        4.1052  -17.8641  -47.5311 H         1 UNK         0.0600 
    164 H164        3.3038  -16.6239  -44.9286 H         1 UNK         0.3000 
    165 H165        4.8911  -13.7255  -43.8965 H         1 UNK         0.0600 
    166 H166        4.8935  -13.0772  -46.3136 H         1 UNK         0.0600 
    167 H167        3.3086  -13.8089  -46.5210 H         1 UNK         0.0600 
    168 H168        3.5073  -12.4015  -45.4749 H         1 UNK         0.0600 
    169 H169        2.1321  -14.3241  -44.4194 H         1 UNK         0.3000 
    170 H170        1.5108  -16.4616  -41.7066 H         1 UNK         0.0600 
    171 H171        1.4673  -14.2625  -40.5365 H         1 UNK         0.0600 
    172 H172        0.7341  -13.5046  -41.9443 H         1 UNK         0.0600 
    173 H173       -0.1474  -14.7357  -41.0421 H         1 UNK         0.0600 
    174 H174       -0.2124  -15.1395  -43.5534 H         1 UNK         0.3000 
    175 H175       -0.0618  -16.6685  -46.2608 H         1 UNK         0.0600 
    176 H176       -1.3766  -18.9188  -44.6583 H         1 UNK         0.0600 
    177 H177       -1.5429  -18.6022  -46.3848 H         1 UNK         0.0600 
    178 H178        0.0011  -19.1078  -45.7345 H         1 UNK         0.0600 
    179 H179       -1.8614  -15.5042  -45.8178 H         1 UNK         0.3000 
    180 H180       -4.5163  -15.4560  -44.0361 H         1 UNK         0.0600 
    181 H181       -2.4447  -13.9258  -42.3660 H         1 UNK         0.0600 
    182 H182       -4.1590  -13.5278  -42.4686 H         1 UNK         0.0600 
    183 H183       -3.6536  -15.0446  -41.7441 H         1 UNK         0.0600 
    184 H184       -2.3634  -13.5620  -44.9115 H         1 UNK         0.3000 
    185 H185       -3.9186  -13.0896  -48.0088 H         1 UNK         0.0600 
    186 H186       -3.8088  -10.6404  -47.6116 H         1 UNK         0.0600 
    187 H187       -5.1997  -11.3217  -46.7846 H         1 UNK         0.0600 
    188 H188       -3.7594  -10.8988  -45.8668 H         1 UNK         0.0600 
    189 H189       -1.6722  -11.7815  -46.8560 H         1 UNK         0.3000 
    190 H190       -1.3287  -22.2307  -44.7057 H         1 UNK         0.3000 
    191 H191       -3.8637  -20.9142  -44.8651 H         1 UNK         0.0600 
    192 H192       -4.1555  -21.7657  -42.5460 H         1 UNK         0.0600 
    193 H193       -2.5720  -21.0393  -42.7675 H         1 UNK         0.0600 
    194 H194       -2.7401  -22.7952  -42.7300 H         1 UNK         0.0600 
    195 H195       -2.8776  -24.3033  -45.1264 H         1 UNK         0.3000 
    196 H196       -5.4679  -25.5115  -45.2033 H         1 UNK         0.0600 
    197 H197       -4.1845  -27.4647  -46.0956 H         1 UNK         0.0600 
    198 H198       -3.3891  -26.7711  -44.6924 H         1 UNK         0.0600 
    199 H199       -2.7640  -26.4483  -46.3102 H         1 UNK         0.0600 
    200 H200       -3.7596  -23.6264  -47.5601 H         1 UNK         0.3000 
    201 H201       -5.4107  -24.5604  -49.8491 H         1 UNK         0.0600 
    202 H202       -3.0376  -22.6239  -49.7558 H         1 UNK         0.0600 
    203 H203       -3.8403  -23.2103  -51.1987 H         1 UNK         0.0600 
    204 H204       -2.9361  -24.3261  -50.1926 H         1 UNK         0.0600 
    205 H205       -6.4373  -23.1196  -47.4505 H         1 UNK         0.3000 
    206 H206       -7.8622  -21.5598  -46.8221 H         1 UNK         0.0600 
    207 H207       -9.2295  -22.3313  -48.7305 H         1 UNK         0.0600 
    208 H208       -9.4457  -20.6045  -48.5008 H         1 UNK         0.0600 
    209 H209       -8.4334  -21.1957  -49.8125 H         1 UNK         0.0600 
    210 H210       -5.2839  -20.8347  -46.7486 H         1 UNK         0.3000 
    211 H211       -3.8119  -19.1902  -46.4892 H         1 UNK         0.0600 
    212 H212       -6.1549  -17.2306  -46.6789 H         1 UNK         0.0600 
    213 H213       -4.5426  -16.8682  -46.0973 H         1 UNK         0.0600 
    214 H214       -5.5552  -17.9927  -45.2041 H         1 UNK         0.0600 
    215 H215       -3.8080  -20.3423  -48.8128 H         1 UNK         0.3000 
    216 H216       -3.1429  -20.3633  -50.9154 H         1 UNK         0.0600 
    217 H217       -2.0693  -17.5379  -50.4318 H         1 UNK         0.0600 
    218 H218       -1.5356  -18.6592  -51.6732 H         1 UNK         0.0600 
    219 H219       -1.2414  -19.0263  -49.9848 H         1 UNK         0.0600 
    220 H220       -5.8928  -19.3161  -50.3895 H         1 UNK         0.3000 
    221 H221       -6.4814  -17.5707  -52.6711 H         1 UNK         0.0600 
    222 H222       -8.3647  -19.0932  -50.8029 H         1 UNK         0.0600 
    223 H223       -7.8277  -17.4293  -50.5779 H         1 UNK         0.0600 
    224 H224       -8.8246  -17.8549  -51.9611 H         1 UNK         0.0600 
    225 H225       -6.3067  -21.0306  -51.9958 H         1 UNK         0.3000 
    226 H226       -7.6980  -21.9150  -54.3841 H         1 UNK         0.0600 
    227 H227       -7.4274  -23.3611  -52.3537 H         1 UNK         0.0600 
    228 H228       -6.7288  -24.1164  -53.7800 H         1 UNK         0.0600 
    229 H229       -5.6806  -23.3641  -52.5877 H         1 UNK         0.0600 
    230 H230       -6.7778  -22.6468  -56.3163 H         1 UNK         0.3000 
    231 H231       -4.5754  -21.1758  -57.3503 H         1 UNK         0.0600 
    232 H232       -6.0905  -23.5939  -58.4833 H         1 UNK         0.0600 
    233 H233       -6.5175  -21.8994  -58.7267 H         1 UNK         0.0600 
    234 H234       -5.0289  -22.5370  -59.4050 H         1 UNK         0.0600 
    235 H235       -2.5956  -21.8728  -58.1564 H         1 UNK         0.3000 
    236 H236       -0.5863  -22.7863  -58.1335 H         1 UNK         0.0600 
    237 H237       -1.7152  -24.6458  -59.3542 H         1 UNK         0.0600 
    238 H238       -0.3575  -25.2252  -58.4033 H         1 UNK         0.0600 
    239 H239       -1.9983  -25.4891  -57.8324 H         1 UNK         0.0600 
    240 H240       -1.0575  -21.5553  -55.8701 H         1 UNK         0.3000 
    241 H241       -0.6672  -23.0221  -53.4825 H         1 UNK         0.0600 
    242 H242        2.8156  -23.2319  -52.7765 H         1 UNK         0.3800 
    243 H243        1.2373  -23.1961  -52.0490 H         1 UNK         0.3800 
    244 H244       -0.1366  -20.8095  -52.4465 H         1 UNK         0.0800 
    245 H245       -1.6132  -20.8453  -53.3321 H         1 UNK         0.0800 
    246 H246        2.2969  -19.7298  -54.0750 H         1 UNK         0.0800 
    247 H247        1.9192  -18.0586  -54.3784 H         1 UNK         0.0800 
@<TRIPOS>BOND
     1    1    2 1    
     2    1  127 1    
     3    1  128 1    
     4    1  129 1    
     5    2    3 2    
     6    2    4 am   BACKBONE|DICT|INTERRES
     7    4    5 1    
     8    4  130 1    
     9    5    6 1    
    10    5   65 1    
    11    5  131 1    
    12    6    7 1    
    13    6  132 1    
    14    6  133 1    
    15    7    8 1    
    16    8    9 1    
    17    8  134 1    
    18    8  135 1    
    19    9   10 ar   
    20    9   14 ar   
    21   10   11 ar   
    22   10  136 1    
    23   11   12 ar   
    24   11  126 1    
    25   12   13 ar   
    26   12  137 1    
    27   13   14 ar   
    28   13   15 1    
    29   14  138 1    
    30   15   16 1    
    31   15  139 1    
    32   15  140 1    
    33   16   17 1    
    34   17   18 1    
    35   17  141 1    
    36   17  142 1    
    37   18   19 1    
    38   18   67 1    
    39   18  143 1    
    40   19   20 am   BACKBONE|DICT|INTERRES
    41   19  144 1    
    42   20   21 2    
    43   20   22 1    
    44   22   23 1    
    45   22   24 1    
    46   22  145 1    
    47   23  146 1    
    48   23  147 1    
    49   23  148 1    
    50   24   25 am   BACKBONE|DICT|INTERRES
    51   24  149 1    
    52   25   26 2    
    53   25   27 1    
    54   27   28 1    
    55   27   29 1    
    56   27  150 1    
    57   28  151 1    
    58   28  152 1    
    59   28  153 1    
    60   29   30 am   BACKBONE|DICT|INTERRES
    61   29  154 1    
    62   30   31 2    
    63   30   32 1    
    64   32   33 1    
    65   32   34 1    
    66   32  155 1    
    67   33  156 1    
    68   33  157 1    
    69   33  158 1    
    70   34   35 am   BACKBONE|DICT|INTERRES
    71   34  159 1    
    72   35   36 2    
    73   35   37 1    
    74   37   38 1    
    75   37   39 1    
    76   37  160 1    
    77   38  161 1    
    78   38  162 1    
    79   38  163 1    
    80   39   40 am   BACKBONE|DICT|INTERRES
    81   39  164 1    
    82   40   41 2    
    83   40   42 1    
    84   42   43 1    
    85   42   44 1    
    86   42  165 1    
    87   43  166 1    
    88   43  167 1    
    89   43  168 1    
    90   44   45 am   BACKBONE|DICT|INTERRES
    91   44  169 1    
    92   45   46 2    
    93   45   47 1    
    94   47   48 1    
    95   47   49 1    
    96   47  170 1    
    97   48  171 1    
    98   48  172 1    
    99   48  173 1    
   100   49   50 am   BACKBONE|DICT|INTERRES
   101   49  174 1    
   102   50   51 2    
   103   50   52 1    
   104   52   53 1    
   105   52   54 1    
   106   52  175 1    
   107   53  176 1    
   108   53  177 1    
   109   53  178 1    
   110   54   55 am   BACKBONE|DICT|INTERRES
   111   54  179 1    
   112   55   56 2    
   113   55   57 1    
   114   57   58 1    
   115   57   59 1    
   116   57  180 1    
   117   58  181 1    
   118   58  182 1    
   119   58  183 1    
   120   59   60 am   BACKBONE|DICT|INTERRES
   121   59  184 1    
   122   60   61 2    
   123   60   62 1    
   124   62   63 1    
   125   62   64 1    
   126   62  185 1    
   127   63  186 1    
   128   63  187 1    
   129   63  188 1    
   130   64   65 am   BACKBONE|DICT|INTERRES
   131   64  189 1    
   132   65   66 2    
   133   67   68 2    
   134   67   69 am   BACKBONE|DICT|INTERRES
   135   69   70 1    
   136   69  190 1    
   137   70   71 1    
   138   70   72 1    
   139   70  191 1    
   140   71  192 1    
   141   71  193 1    
   142   71  194 1    
   143   72   73 2    
   144   72   74 am   BACKBONE|DICT|INTERRES
   145   74   75 1    
   146   74  195 1    
   147   75   76 1    
   148   75   77 1    
   149   75  196 1    
   150   76  197 1    
   151   76  198 1    
   152   76  199 1    
   153   77   78 2    
   154   77   79 am   BACKBONE|DICT|INTERRES
   155   79   80 1    
   156   79  200 1    
   157   80   81 1    
   158   80   82 1    
   159   80  201 1    
   160   81  202 1    
   161   81  203 1    
   162   81  204 1    
   163   82   83 2    
   164   82   84 am   BACKBONE|DICT|INTERRES
   165   84   85 1    
   166   84  205 1    
   167   85   86 1    
   168   85   87 1    
   169   85  206 1    
   170   86  207 1    
   171   86  208 1    
   172   86  209 1    
   173   87   88 2    
   174   87   89 am   BACKBONE|DICT|INTERRES
   175   89   90 1    
   176   89  210 1    
   177   90   91 1    
   178   90   92 1    
   179   90  211 1    
   180   91  212 1    
   181   91  213 1    
   182   91  214 1    
   183   92   93 2    
   184   92   94 am   BACKBONE|DICT|INTERRES
   185   94   95 1    
   186   94  215 1    
   187   95   96 1    
   188   95   97 1    
   189   95  216 1    
   190   96  217 1    
   191   96  218 1    
   192   96  219 1    
   193   97   98 2    
   194   97   99 am   BACKBONE|DICT|INTERRES
   195   99  100 1    
   196   99  220 1    
   197  100  101 1    
   198  100  102 1    
   199  100  221 1    
   200  101  222 1    
   201  101  223 1    
   202  101  224 1    
   203  102  103 2    
   204  102  104 am   BACKBONE|DICT|INTERRES
   205  104  105 1    
   206  104  225 1    
   207  105  106 1    
   208  105  107 1    
   209  105  226 1    
   210  106  227 1    
   211  106  228 1    
   212  106  229 1    
   213  107  108 2    
   214  107  109 am   BACKBONE|DICT|INTERRES
   215  109  110 1    
   216  109  230 1    
   217  110  111 1    
   218  110  112 1    
   219  110  231 1    
   220  111  232 1    
   221  111  233 1    
   222  111  234 1    
   223  112  113 2    
   224  112  114 am   BACKBONE|DICT|INTERRES
   225  114  115 1    
   226  114  235 1    
   227  115  116 1    
   228  115  117 1    
   229  115  236 1    
   230  116  237 1    
   231  116  238 1    
   232  116  239 1    
   233  117  118 2    
   234  117  119 am   BACKBONE|DICT|INTERRES
   235  119  120 1    
   236  119  240 1    
   237  120  121 1    
   238  120  124 1    
   239  120  241 1    
   240  121  122 am   BACKBONE|DICT|INTERRES
   241  121  123 2    
   242  122  242 1    
   243  122  243 1    
   244  124  125 1    
   245  124  244 1    
   246  124  245 1    
   247  125  126 1    
   248  126  246 1    
   249  126  247 1    
@<TRIPOS>SUBSTRUCTURE
     1 UNK         1 GROUP             0       ****    0 ROOT    
