@<TRIPOS>MOLECULE
3R540
247   249    1
SMALL
USER_CHARGES


@<TRIPOS>ATOM
      1 CA          5.3276  -18.4403  -47.7848 C.3       0 UNK        -0.1800 
      2 C           5.4765  -16.9878  -48.2105 C.2       0 UNK         0.5000 
      3 O           6.5825  -16.4500  -48.1835 O.2       0 UNK        -0.5000 
      4 N           4.3615  -16.3413  -48.5713 N.am      1 UNK        -0.5000 
      5 CA          4.2185  -14.9276  -48.9572 C.3       1 UNK         0.1400 
      6 C6          5.1993  -14.4752  -50.0762 C.3       23 UNK        -0.0398 
      7 S7          4.4164  -13.3461  -51.2793 S.3       23 UNK        -0.2404 
      8 C8          4.1168  -14.4523  -52.6975 C.3       23 UNK        -0.0205 
      9 C9          3.0007  -15.4515  -52.4250 C.ar      23 UNK        -0.0193 
     10 C10         1.6695  -15.1108  -52.6885 C.ar      23 UNK        -0.1150 
     11 C11         0.6421  -16.0268  -52.4446 C.ar      23 UNK        -0.0193 
     12 C12         0.9557  -17.2851  -51.9270 C.ar      23 UNK        -0.1150 
     13 C13         2.2797  -17.6454  -51.6697 C.ar      23 UNK        -0.0193 
     14 C14         3.2986  -16.7234  -51.9245 C.ar      23 UNK        -0.1150 
     15 C15         2.6136  -19.0350  -51.1450 C.3       23 UNK        -0.0205 
     16 S16         2.1691  -19.2385  -49.3914 S.3       23 UNK        -0.2404 
     17 C17         0.5493  -20.0706  -49.5243 C.3       23 UNK        -0.0398 
     18 CA         -0.3129  -19.9374  -48.2428 C.3       11 UNK         0.1400 
     19 N          -0.5403  -18.5479  -47.8227 N.am      11 UNK        -0.5000 
     20 C          -1.1943  -17.5825  -48.4848 C.2       10 UNK         0.5000 
     21 O          -1.7555  -17.7569  -49.5637 O.2       10 UNK        -0.5000 
     22 CA         -1.3077  -16.2066  -47.8004 C.3       10 UNK         0.1400 
     23 CB         -2.7779  -15.8934  -47.4775 C.3       10 UNK        -0.1800 
     24 N          -0.5259  -16.1140  -46.5663 N.am      10 UNK        -0.5000 
     25 C           0.8014  -15.9449  -46.5248 C.2       9 UNK         0.5000 
     26 O           1.5013  -15.8019  -47.5239 O.2       9 UNK        -0.5000 
     27 CA          1.4573  -16.0020  -45.1363 C.3       9 UNK         0.1400 
     28 CB          1.1882  -14.7065  -44.3555 C.3       9 UNK        -0.1800 
     29 N           1.0015  -17.1496  -44.3509 N.am      9 UNK        -0.5000 
     30 C           1.2249  -18.4354  -44.6613 C.2       8 UNK         0.5000 
     31 O           1.8368  -18.8011  -45.6629 O.2       8 UNK        -0.5000 
     32 CA          0.6316  -19.4920  -43.7147 C.3       8 UNK         0.1400 
     33 CB          1.5353  -19.7152  -42.4927 C.3       8 UNK        -0.1800 
     34 N          -0.7069  -19.1066  -43.2742 N.am      8 UNK        -0.5000 
     35 C          -1.8192  -19.3168  -43.9904 C.2       7 UNK         0.5000 
     36 O          -1.8438  -19.9580  -45.0407 O.2       7 UNK        -0.5000 
     37 CA         -3.1261  -18.7008  -43.4575 C.3       7 UNK         0.1400 
     38 CB         -3.9315  -19.7450  -42.6715 C.3       7 UNK        -0.1800 
     39 N          -2.9109  -17.5190  -42.6188 N.am      7 UNK        -0.5000 
     40 C          -2.4827  -16.3361  -43.0816 C.2       6 UNK         0.5000 
     41 O          -2.2159  -16.1217  -44.2631 O.2       6 UNK        -0.5000 
     42 CA         -2.2679  -15.2213  -42.0425 C.3       6 UNK         0.1400 
     43 CB         -3.5884  -14.4929  -41.7523 C.3       6 UNK        -0.1800 
     44 N          -1.6846  -15.6949  -40.7838 N.am      6 UNK        -0.5000 
     45 C          -0.4830  -16.2746  -40.6711 C.2       5 UNK         0.5000 
     46 O           0.2388  -16.5505  -41.6324 O.2       5 UNK        -0.5000 
     47 CA         -0.0279  -16.6494  -39.2559 C.3       5 UNK         0.1400 
     48 CB         -0.2125  -18.1569  -39.0217 C.3       5 UNK        -0.1800 
     49 N           1.3856  -16.3122  -39.1086 N.am      5 UNK        -0.5000 
     50 C           1.8692  -15.3331  -38.3336 C.2       4 UNK         0.5000 
     51 O           1.1707  -14.6338  -37.5984 O.2       4 UNK        -0.5000 
     52 CA          3.3920  -15.0886  -38.3759 C.3       4 UNK         0.1400 
     53 CB          4.0787  -15.7901  -37.1936 C.3       4 UNK        -0.1800 
     54 N           4.0240  -15.5315  -39.6219 N.am      4 UNK        -0.5000 
     55 C           3.8979  -14.9068  -40.7991 C.2       3 UNK         0.5000 
     56 O           3.2506  -13.8678  -40.9604 O.2       3 UNK        -0.5000 
     57 CA          4.5980  -15.5676  -41.9967 C.3       3 UNK         0.1400 
     58 CB          3.9364  -16.9218  -42.3232 C.3       3 UNK        -0.1800 
     59 N           4.5127  -14.6584  -43.1368 N.am      3 UNK        -0.5000 
     60 C           5.1600  -14.7824  -44.2978 C.2       2 UNK         0.5000 
     61 O           5.9405  -15.7018  -44.5577 O.2       2 UNK        -0.5000 
     62 CA          4.8924  -13.7009  -45.3529 C.3       2 UNK         0.1400 
     63 CB          5.9646  -12.5997  -45.3144 C.3       2 UNK        -0.1800 
     64 N           4.8902  -14.3525  -46.6544 N.am      2 UNK        -0.5000 
     65 C           4.2182  -13.9658  -47.7434 C.2       1 UNK         0.5000 
     66 O           3.5797  -12.9139  -47.7998 O.2       1 UNK        -0.5000 
     67 C          -1.6094  -20.7751  -48.3415 C.2       11 UNK         0.5000 
     68 O          -1.5561  -21.9253  -48.7777 O.2       11 UNK        -0.5000 
     69 N          -2.7420  -20.2213  -47.8863 N.am      12 UNK        -0.5000 
     70 CA         -4.0736  -20.8233  -47.8786 C.3       12 UNK         0.1400 
     71 CB         -5.0708  -19.8030  -47.3119 C.3       12 UNK        -0.1800 
     72 C          -4.1503  -22.1503  -47.1027 C.2       12 UNK         0.5000 
     73 O          -4.9409  -23.0177  -47.4736 O.2       12 UNK        -0.5000 
     74 N          -3.3009  -22.3024  -46.0773 N.am      13 UNK        -0.5000 
     75 CA         -3.1274  -23.5363  -45.3099 C.3       13 UNK         0.1400 
     76 CB         -2.1954  -23.2569  -44.1204 C.3       13 UNK        -0.1800 
     77 C          -2.5886  -24.7141  -46.1494 C.2       13 UNK         0.5000 
     78 O          -2.9283  -25.8621  -45.8613 O.2       13 UNK        -0.5000 
     79 N          -1.7715  -24.4135  -47.1682 N.am      14 UNK        -0.5000 
     80 CA         -1.2129  -25.3894  -48.1043 C.3       14 UNK         0.1400 
     81 CB          0.2323  -24.9905  -48.4427 C.3       14 UNK        -0.1800 
     82 C          -2.0576  -25.4829  -49.3863 C.2       14 UNK         0.5000 
     83 O          -2.2491  -26.5789  -49.9121 O.2       14 UNK        -0.5000 
     84 N          -2.5607  -24.3350  -49.8585 N.am      15 UNK        -0.5000 
     85 CA         -3.3143  -24.1724  -51.1030 C.3       15 UNK         0.1400 
     86 CB         -3.1024  -22.7387  -51.6118 C.3       15 UNK        -0.1800 
     87 C          -4.8145  -24.5205  -50.9945 C.2       15 UNK         0.5000 
     88 O          -5.5809  -24.1443  -51.8843 O.2       15 UNK        -0.5000 
     89 N          -5.2165  -25.2194  -49.9235 N.am      16 UNK        -0.5000 
     90 CA         -6.5617  -25.7442  -49.6605 C.3       16 UNK         0.1400 
     91 CB         -6.9117  -26.8519  -50.6774 C.3       16 UNK        -0.1800 
     92 C          -7.6270  -24.6318  -49.5949 C.2       16 UNK         0.5000 
     93 O          -8.6105  -24.6672  -50.3344 O.2       16 UNK        -0.5000 
     94 N          -7.3756  -23.6421  -48.7272 N.am      17 UNK        -0.5000 
     95 CA         -8.1446  -22.4058  -48.5446 C.3       17 UNK         0.1400 
     96 CB         -9.6017  -22.6913  -48.1216 C.3       17 UNK        -0.1800 
     97 C          -8.0295  -21.4592  -49.7582 C.2       17 UNK         0.5000 
     98 O          -8.9772  -20.7363  -50.0688 O.2       17 UNK        -0.5000 
     99 N          -6.8545  -21.4846  -50.4082 N.am      18 UNK        -0.5000 
    100 CA        -6.4814  -20.7253  -51.6078 C.3       18 UNK         0.1400 
    101 CB        -6.4259  -19.2131  -51.3085 C.3       18 UNK        -0.1800 
    102 C         -7.3581  -21.0813  -52.8271 C.2       18 UNK         0.5000 
    103 O         -7.8053  -20.1939  -53.5569 O.2       18 UNK        -0.5000 
    104 N         -7.5979  -22.3857  -53.0074 N.am      19 UNK        -0.5000 
    105 CA        -8.3724  -22.9524  -54.1094 C.3       19 UNK         0.1400 
    106 CB        -9.4157  -23.9257  -53.5404 C.3       19 UNK        -0.1800 
    107 C         -7.4659  -23.6789  -55.1153 C.2       19 UNK         0.5000 
    108 O         -7.7413  -23.6339  -56.3149 O.2       19 UNK        -0.5000 
    109 N         -6.4077  -24.3377  -54.6222 N.am      20 UNK        -0.5000 
    110 CA        -5.4669  -25.1109  -55.4356 C.3       20 UNK         0.1400 
    111 CB        -4.8749  -26.2347  -54.5699 C.3       20 UNK        -0.1800 
    112 C         -4.3404  -24.2457  -56.0303 C.2       20 UNK         0.5000 
    113 O         -3.7130  -24.6585  -57.0066 O.2       20 UNK        -0.5000 
    114 N         -4.0960  -23.0763  -55.4310 N.am      21 UNK        -0.5000 
    115 CA        -3.0473  -22.1196  -55.7692 C.3       21 UNK         0.1400 
    116 CB        -1.6662  -22.6828  -55.3657 C.3       21 UNK        -0.1800 
    117 C         -3.3545  -20.7936  -55.0508 C.2       21 UNK         0.5000 
    118 O         -4.4172  -20.6642  -54.4365 O.2       21 UNK        -0.5000 
    119 N         -2.4133  -19.8436  -55.1224 N.am      22 UNK        -0.5000 
    120 CA        -2.3950  -18.6075  -54.3223 C.3       22 UNK         0.1400 
    121 C         -2.4155  -18.9029  -52.7969 C.2       22 UNK         0.5000 
    122 N         -3.1864  -18.1593  -52.0192 N.am      22 UNK        -0.7600 
    123 O         -1.6870  -19.7653  -52.3145 O.2       22 UNK        -0.5000 
    124 C124       -1.1561  -17.7398  -54.6852 C.3       23 UNK        -0.0398 
    125 S125       -1.3733  -15.9428  -54.4091 S.3       23 UNK        -0.2404 
    126 C126       -0.8121  -15.6517  -52.6924 C.3       23 UNK        -0.0205 
    127 H127        4.3386  -18.6300  -47.3664 H         1 UNK         0.0600 
    128 H128        6.0651  -18.6913  -47.0223 H         1 UNK         0.0600 
    129 H129        5.4760  -19.1011  -48.6388 H         1 UNK         0.0600 
    130 H130        3.4789  -16.8365  -48.5249 H         1 UNK         0.3000 
    131 H131        3.2076  -14.8832  -49.3656 H         1 UNK         0.0600 
    132 H132        5.5852  -15.3361  -50.6216 H         1 UNK         0.0800 
    133 H133        6.0829  -13.9901  -49.6576 H         1 UNK         0.0800 
    134 H134        5.0391  -14.9711  -52.9632 H         1 UNK         0.0800 
    135 H135        3.8558  -13.8437  -53.5646 H         1 UNK         0.0800 
    136 H136        1.4326  -14.1304  -53.0777 H         1 UNK         0.1150 
    137 H137        0.1601  -17.9849  -51.7274 H         1 UNK         0.1150 
    138 H138        4.3260  -16.9968  -51.7313 H         1 UNK         0.1150 
    139 H139        2.1108  -19.7892  -51.7523 H         1 UNK         0.0800 
    140 H140        3.6820  -19.2288  -51.2501 H         1 UNK         0.0800 
    141 H141        0.7445  -21.1207  -49.7484 H         1 UNK         0.0800 
    142 H142        0.0042  -19.6795  -50.3797 H         1 UNK         0.0800 
    143 H143        0.2511  -20.3918  -47.4270 H         1 UNK         0.0600 
    144 H144       -0.1006  -18.2946  -46.9495 H         1 UNK         0.3000 
    145 H145       -0.9439  -15.4581  -48.5075 H         1 UNK         0.0600 
    146 H146       -2.8788  -14.9160  -47.0054 H         1 UNK         0.0600 
    147 H147       -3.2086  -16.6360  -46.8045 H         1 UNK         0.0600 
    148 H148       -3.3852  -15.8803  -48.3835 H         1 UNK         0.0600 
    149 H149       -1.0452  -16.1995  -45.6944 H         1 UNK         0.3000 
    150 H150        2.5354  -16.1019  -45.2776 H         1 UNK         0.0600 
    151 H151        1.5695  -13.8393  -44.8951 H         1 UNK         0.0600 
    152 H152        1.6668  -14.7238  -43.3768 H         1 UNK         0.0600 
    153 H153        0.1219  -14.5469  -44.1973 H         1 UNK         0.0600 
    154 H154        0.5335  -16.9363  -43.4746 H         1 UNK         0.3000 
    155 H155        0.5732  -20.4360  -44.2614 H         1 UNK         0.0600 
    156 H156        2.5433  -19.9969  -42.7996 H         1 UNK         0.0600 
    157 H157        1.1508  -20.5171  -41.8625 H         1 UNK         0.0600 
    158 H158        1.6187  -18.8200  -41.8779 H         1 UNK         0.0600 
    159 H159       -0.7652  -18.5374  -42.4421 H         1 UNK         0.3000 
    160 H160       -3.7186  -18.3966  -44.3229 H         1 UNK         0.0600 
    161 H161       -3.3823  -20.1076  -41.8016 H         1 UNK         0.0600 
    162 H162       -4.1662  -20.6069  -43.2974 H         1 UNK         0.0600 
    163 H163       -4.8791  -19.3329  -42.3240 H         1 UNK         0.0600 
    164 H164       -3.1003  -17.6142  -41.6318 H         1 UNK         0.3000 
    165 H165       -1.5730  -14.4992  -42.4752 H         1 UNK         0.0600 
    166 H166       -3.4312  -13.6383  -41.0939 H         1 UNK         0.0600 
    167 H167       -4.0354  -14.1137  -42.6725 H         1 UNK         0.0600 
    168 H168       -4.3182  -15.1516  -41.2799 H         1 UNK         0.0600 
    169 H169       -2.2224  -15.5176  -39.9475 H         1 UNK         0.3000 
    170 H170       -0.6368  -16.1082  -38.5289 H         1 UNK         0.0600 
    171 H171        0.3691  -18.7525  -39.7260 H         1 UNK         0.0600 
    172 H172        0.0971  -18.4370  -38.0147 H         1 UNK         0.0600 
    173 H173       -1.2585  -18.4457  -39.1318 H         1 UNK         0.0600 
    174 H174        2.0181  -16.7866  -39.7357 H         1 UNK         0.3000 
    175 H175        3.5536  -14.0134  -38.2722 H         1 UNK         0.0600 
    176 H176        3.9646  -16.8735  -37.2466 H         1 UNK         0.0600 
    177 H177        5.1450  -15.5646  -37.1659 H         1 UNK         0.0600 
    178 H178        3.6542  -15.4616  -36.2440 H         1 UNK         0.0600 
    179 H179        4.5781  -16.3742  -39.5686 H         1 UNK         0.3000 
    180 H180        5.6500  -15.7184  -41.7466 H         1 UNK         0.0600 
    181 H181        2.8635  -16.8056  -42.4617 H         1 UNK         0.0600 
    182 H182        4.0837  -17.6387  -41.5152 H         1 UNK         0.0600 
    183 H183        4.3431  -17.3755  -43.2265 H         1 UNK         0.0600 
    184 H184        3.9173  -13.8574  -42.9601 H         1 UNK         0.3000 
    185 H185        3.9117  -13.2591  -45.1671 H         1 UNK         0.0600 
    186 H186        6.9599  -13.0023  -45.5065 H         1 UNK         0.0600 
    187 H187        5.7661  -11.8284  -46.0588 H         1 UNK         0.0600 
    188 H188        5.9882  -12.1122  -44.3391 H         1 UNK         0.0600 
    189 H189        5.4032  -15.2267  -46.6839 H         1 UNK         0.3000 
    190 H190       -2.6664  -19.2962  -47.4918 H         1 UNK         0.3000 
    191 H191       -4.3447  -21.0301  -48.9145 H         1 UNK         0.0600 
    192 H192       -5.0728  -18.8851  -47.9003 H         1 UNK         0.0600 
    193 H193       -4.8325  -19.5402  -46.2807 H         1 UNK         0.0600 
    194 H194       -6.0873  -20.1949  -47.3235 H         1 UNK         0.0600 
    195 H195       -2.7015  -21.5198  -45.8288 H         1 UNK         0.3000 
    196 H196       -4.1046  -23.8290  -44.9204 H         1 UNK         0.0600 
    197 H197       -2.6151  -22.5008  -43.4577 H         1 UNK         0.0600 
    198 H198       -1.2170  -22.9052  -44.4505 H         1 UNK         0.0600 
    199 H199       -2.0386  -24.1572  -43.5248 H         1 UNK         0.0600 
    200 H200       -1.5879  -23.4389  -47.3747 H         1 UNK         0.3000 
    201 H201       -1.1881  -26.3797  -47.6445 H         1 UNK         0.0600 
    202 H202        0.8524  -24.9640  -47.5465 H         1 UNK         0.0600 
    203 H203        0.2832  -24.0078  -48.9134 H         1 UNK         0.0600 
    204 H204        0.6841  -25.7072  -49.1296 H         1 UNK         0.0600 
    205 H205       -2.3085  -23.4716  -49.3830 H         1 UNK         0.3000 
    206 H206       -2.8950  -24.8497  -51.8494 H         1 UNK         0.0600 
    207 H207       -2.0433  -22.5270  -51.7596 H         1 UNK         0.0600 
    208 H208       -3.4885  -21.9990  -50.9117 H         1 UNK         0.0600 
    209 H209       -3.5963  -22.5781  -52.5691 H         1 UNK         0.0600 
    210 H210       -4.5148  -25.4446  -49.2331 H         1 UNK         0.3000 
    211 H211       -6.5303  -26.2021  -48.6709 H         1 UNK         0.0600 
    212 H212       -6.9909  -26.4634  -51.6935 H         1 UNK         0.0600 
    213 H213       -7.8662  -27.3188  -50.4319 H         1 UNK         0.0600 
    214 H214       -6.1566  -27.6379  -50.6785 H         1 UNK         0.0600 
    215 H215       -6.5047  -23.6776  -48.1995 H         1 UNK         0.3000 
    216 H216       -7.6706  -21.8859  -47.7122 H         1 UNK         0.0600 
    217 H217      -10.1021  -21.7735  -47.8111 H         1 UNK         0.0600 
    218 H218       -9.6404  -23.3817  -47.2792 H         1 UNK         0.0600 
    219 H219      -10.1881  -23.1187  -48.9352 H         1 UNK         0.0600 
    220 H220       -6.1763  -22.1616  -50.0928 H         1 UNK         0.3000 
    221 H221       -5.4704  -21.0362  -51.8695 H         1 UNK         0.0600 
    222 H222       -7.4082  -18.8068  -51.0676 H         1 UNK         0.0600 
    223 H223       -5.7584  -19.0017  -50.4733 H         1 UNK         0.0600 
    224 H224       -6.0489  -18.6630  -52.1712 H         1 UNK         0.0600 
    225 H225       -7.1624  -23.0461  -52.3720 H         1 UNK         0.3000 
    226 H226       -8.9048  -22.1659  -54.6480 H         1 UNK         0.0600 
    227 H227      -10.0670  -23.4290  -52.8209 H         1 UNK         0.0600 
    228 H228      -10.0487  -24.3269  -54.3327 H         1 UNK         0.0600 
    229 H229       -8.9454  -24.7708  -53.0361 H         1 UNK         0.0600 
    230 H230       -6.2226  -24.3131  -53.6228 H         1 UNK         0.3000 
    231 H231       -6.0044  -25.5738  -56.2659 H         1 UNK         0.0600 
    232 H232       -4.2247  -26.8806  -55.1611 H         1 UNK         0.0600 
    233 H233       -5.6588  -26.8625  -54.1459 H         1 UNK         0.0600 
    234 H234       -4.2804  -25.8387  -53.7468 H         1 UNK         0.0600 
    235 H235       -4.7063  -22.7665  -54.6850 H         1 UNK         0.3000 
    236 H236       -3.0710  -21.9343  -56.8447 H         1 UNK         0.0600 
    237 H237       -1.5952  -22.8319  -54.2878 H         1 UNK         0.0600 
    238 H238       -1.4653  -23.6401  -55.8460 H         1 UNK         0.0600 
    239 H239       -0.8582  -22.0123  -55.6587 H         1 UNK         0.0600 
    240 H240       -1.5684  -20.0462  -55.6350 H         1 UNK         0.3000 
    241 H241       -3.3005  -18.0564  -54.5835 H         1 UNK         0.0600 
    242 H242       -3.0529  -18.2487  -51.0189 H         1 UNK         0.3800 
    243 H243       -3.7732  -17.4295  -52.3876 H         1 UNK         0.3800 
    244 H244       -0.9540  -17.8357  -55.7528 H         1 UNK         0.0800 
    245 H245       -0.2502  -18.1024  -54.1996 H         1 UNK         0.0800 
    246 H246       -1.4555  -16.1809  -51.9914 H         1 UNK         0.0800 
    247 H247       -0.9500  -14.5936  -52.4653 H         1 UNK         0.0800 
@<TRIPOS>BOND
     1    1    2 1    
     2    1  127 1    
     3    1  128 1    
     4    1  129 1    
     5    2    3 2    
     6    2    4 am   BACKBONE|DICT|INTERRES
     7    4    5 1    
     8    4  130 1    
     9    5    6 1    
    10    5   65 1    
    11    5  131 1    
    12    6    7 1    
    13    6  132 1    
    14    6  133 1    
    15    7    8 1    
    16    8    9 1    
    17    8  134 1    
    18    8  135 1    
    19    9   10 ar   
    20    9   14 ar   
    21   10   11 ar   
    22   10  136 1    
    23   11   12 ar   
    24   11  126 1    
    25   12   13 ar   
    26   12  137 1    
    27   13   14 ar   
    28   13   15 1    
    29   14  138 1    
    30   15   16 1    
    31   15  139 1    
    32   15  140 1    
    33   16   17 1    
    34   17   18 1    
    35   17  141 1    
    36   17  142 1    
    37   18   19 1    
    38   18   67 1    
    39   18  143 1    
    40   19   20 am   BACKBONE|DICT|INTERRES
    41   19  144 1    
    42   20   21 2    
    43   20   22 1    
    44   22   23 1    
    45   22   24 1    
    46   22  145 1    
    47   23  146 1    
    48   23  147 1    
    49   23  148 1    
    50   24   25 am   BACKBONE|DICT|INTERRES
    51   24  149 1    
    52   25   26 2    
    53   25   27 1    
    54   27   28 1    
    55   27   29 1    
    56   27  150 1    
    57   28  151 1    
    58   28  152 1    
    59   28  153 1    
    60   29   30 am   BACKBONE|DICT|INTERRES
    61   29  154 1    
    62   30   31 2    
    63   30   32 1    
    64   32   33 1    
    65   32   34 1    
    66   32  155 1    
    67   33  156 1    
    68   33  157 1    
    69   33  158 1    
    70   34   35 am   BACKBONE|DICT|INTERRES
    71   34  159 1    
    72   35   36 2    
    73   35   37 1    
    74   37   38 1    
    75   37   39 1    
    76   37  160 1    
    77   38  161 1    
    78   38  162 1    
    79   38  163 1    
    80   39   40 am   BACKBONE|DICT|INTERRES
    81   39  164 1    
    82   40   41 2    
    83   40   42 1    
    84   42   43 1    
    85   42   44 1    
    86   42  165 1    
    87   43  166 1    
    88   43  167 1    
    89   43  168 1    
    90   44   45 am   BACKBONE|DICT|INTERRES
    91   44  169 1    
    92   45   46 2    
    93   45   47 1    
    94   47   48 1    
    95   47   49 1    
    96   47  170 1    
    97   48  171 1    
    98   48  172 1    
    99   48  173 1    
   100   49   50 am   BACKBONE|DICT|INTERRES
   101   49  174 1    
   102   50   51 2    
   103   50   52 1    
   104   52   53 1    
   105   52   54 1    
   106   52  175 1    
   107   53  176 1    
   108   53  177 1    
   109   53  178 1    
   110   54   55 am   BACKBONE|DICT|INTERRES
   111   54  179 1    
   112   55   56 2    
   113   55   57 1    
   114   57   58 1    
   115   57   59 1    
   116   57  180 1    
   117   58  181 1    
   118   58  182 1    
   119   58  183 1    
   120   59   60 am   BACKBONE|DICT|INTERRES
   121   59  184 1    
   122   60   61 2    
   123   60   62 1    
   124   62   63 1    
   125   62   64 1    
   126   62  185 1    
   127   63  186 1    
   128   63  187 1    
   129   63  188 1    
   130   64   65 am   BACKBONE|DICT|INTERRES
   131   64  189 1    
   132   65   66 2    
   133   67   68 2    
   134   67   69 am   BACKBONE|DICT|INTERRES
   135   69   70 1    
   136   69  190 1    
   137   70   71 1    
   138   70   72 1    
   139   70  191 1    
   140   71  192 1    
   141   71  193 1    
   142   71  194 1    
   143   72   73 2    
   144   72   74 am   BACKBONE|DICT|INTERRES
   145   74   75 1    
   146   74  195 1    
   147   75   76 1    
   148   75   77 1    
   149   75  196 1    
   150   76  197 1    
   151   76  198 1    
   152   76  199 1    
   153   77   78 2    
   154   77   79 am   BACKBONE|DICT|INTERRES
   155   79   80 1    
   156   79  200 1    
   157   80   81 1    
   158   80   82 1    
   159   80  201 1    
   160   81  202 1    
   161   81  203 1    
   162   81  204 1    
   163   82   83 2    
   164   82   84 am   BACKBONE|DICT|INTERRES
   165   84   85 1    
   166   84  205 1    
   167   85   86 1    
   168   85   87 1    
   169   85  206 1    
   170   86  207 1    
   171   86  208 1    
   172   86  209 1    
   173   87   88 2    
   174   87   89 am   BACKBONE|DICT|INTERRES
   175   89   90 1    
   176   89  210 1    
   177   90   91 1    
   178   90   92 1    
   179   90  211 1    
   180   91  212 1    
   181   91  213 1    
   182   91  214 1    
   183   92   93 2    
   184   92   94 am   BACKBONE|DICT|INTERRES
   185   94   95 1    
   186   94  215 1    
   187   95   96 1    
   188   95   97 1    
   189   95  216 1    
   190   96  217 1    
   191   96  218 1    
   192   96  219 1    
   193   97   98 2    
   194   97   99 am   BACKBONE|DICT|INTERRES
   195   99  100 1    
   196   99  220 1    
   197  100  101 1    
   198  100  102 1    
   199  100  221 1    
   200  101  222 1    
   201  101  223 1    
   202  101  224 1    
   203  102  103 2    
   204  102  104 am   BACKBONE|DICT|INTERRES
   205  104  105 1    
   206  104  225 1    
   207  105  106 1    
   208  105  107 1    
   209  105  226 1    
   210  106  227 1    
   211  106  228 1    
   212  106  229 1    
   213  107  108 2    
   214  107  109 am   BACKBONE|DICT|INTERRES
   215  109  110 1    
   216  109  230 1    
   217  110  111 1    
   218  110  112 1    
   219  110  231 1    
   220  111  232 1    
   221  111  233 1    
   222  111  234 1    
   223  112  113 2    
   224  112  114 am   BACKBONE|DICT|INTERRES
   225  114  115 1    
   226  114  235 1    
   227  115  116 1    
   228  115  117 1    
   229  115  236 1    
   230  116  237 1    
   231  116  238 1    
   232  116  239 1    
   233  117  118 2    
   234  117  119 am   BACKBONE|DICT|INTERRES
   235  119  120 1    
   236  119  240 1    
   237  120  121 1    
   238  120  124 1    
   239  120  241 1    
   240  121  122 am   BACKBONE|DICT|INTERRES
   241  121  123 2    
   242  122  242 1    
   243  122  243 1    
   244  124  125 1    
   245  124  244 1    
   246  124  245 1    
   247  125  126 1    
   248  126  246 1    
   249  126  247 1    
@<TRIPOS>SUBSTRUCTURE
     1 UNK         1 GROUP             0       ****    0 ROOT    
