@<TRIPOS>MOLECULE
3R540
247   249    1
SMALL
USER_CHARGES


@<TRIPOS>ATOM
      1 CA          5.6571  -17.6721  -46.0322 C.3       0 UNK        -0.1800 
      2 C           5.4995  -17.7218  -47.5504 C.2       0 UNK         0.5000 
      3 O           6.1228  -18.5640  -48.1932 O.2       0 UNK        -0.5000 
      4 N           4.6767  -16.8639  -48.1679 N.am      1 UNK        -0.5000 
      5 CA          3.9358  -15.7495  -47.5663 C.3       1 UNK         0.1400 
      6 C6          2.7840  -15.2676  -48.4848 C.3       23 UNK        -0.0398 
      7 S7          1.5900  -16.5999  -48.8532 S.3       23 UNK        -0.2404 
      8 C8          0.2482  -15.6647  -49.6434 C.3       23 UNK        -0.0205 
      9 C9         -0.8871  -16.5830  -50.0726 C.ar      23 UNK        -0.0193 
     10 C10        -0.8035  -17.2841  -51.2795 C.ar      23 UNK        -0.1150 
     11 C11        -1.8468  -18.1147  -51.7010 C.ar      23 UNK        -0.0193 
     12 C12        -2.9817  -18.2410  -50.8899 C.ar      23 UNK        -0.1150 
     13 C13        -3.0863  -17.5366  -49.6879 C.ar      23 UNK        -0.0193 
     14 C14        -2.0301  -16.7164  -49.2785 C.ar      23 UNK        -0.1150 
     15 C15        -4.3607  -17.6284  -48.8583 C.3       23 UNK        -0.0205 
     16 S16        -4.6285  -19.2850  -48.1498 S.3       23 UNK        -0.2404 
     17 C17        -3.2461  -19.3986  -46.9656 C.3       23 UNK        -0.0398 
     18 CA         -2.2691  -20.5464  -47.3121 C.3       11 UNK         0.1400 
     19 N          -0.9394  -20.3509  -46.7354 N.am      11 UNK        -0.5000 
     20 C           0.1186  -21.1395  -46.9685 C.2       10 UNK         0.5000 
     21 O           0.0965  -22.0995  -47.7400 O.2       10 UNK        -0.5000 
     22 CA          1.3991  -20.8455  -46.1671 C.3       10 UNK         0.1400 
     23 CB          2.2257  -19.7424  -46.8412 C.3       10 UNK        -0.1800 
     24 N           1.1295  -20.4750  -44.7767 N.am      10 UNK        -0.5000 
     25 C           0.5555  -21.2779  -43.8698 C.2       9 UNK         0.5000 
     26 O           0.2132  -22.4363  -44.1022 O.2       9 UNK        -0.5000 
     27 CA          0.2629  -20.6703  -42.4868 C.3       9 UNK         0.1400 
     28 CB          1.5434  -20.5525  -41.6467 C.3       9 UNK        -0.1800 
     29 N          -0.3908  -19.3658  -42.5820 N.am      9 UNK        -0.5000 
     30 C          -1.6080  -19.1661  -43.1085 C.2       8 UNK         0.5000 
     31 O          -2.3289  -20.0685  -43.5383 O.2       8 UNK        -0.5000 
     32 CA         -2.0757  -17.7032  -43.2171 C.3       8 UNK         0.1400 
     33 CB         -2.6173  -17.2043  -41.8695 C.3       8 UNK        -0.1800 
     34 N          -1.0179  -16.8051  -43.6862 N.am      8 UNK        -0.5000 
     35 C          -0.4220  -16.9079  -44.8827 C.2       7 UNK         0.5000 
     36 O          -0.7282  -17.7454  -45.7252 O.2       7 UNK        -0.5000 
     37 CA          0.7535  -15.9672  -45.1744 C.3       7 UNK         0.1400 
     38 CB          0.2595  -14.5771  -45.5964 C.3       7 UNK        -0.1800 
     39 N           1.6813  -15.8602  -44.0514 N.am      7 UNK        -0.5000 
     40 C           2.3875  -16.8838  -43.5496 C.2       6 UNK         0.5000 
     41 O           2.3732  -18.0185  -44.0224 O.2       6 UNK        -0.5000 
     42 CA          3.2294  -16.6040  -42.2959 C.3       6 UNK         0.1400 
     43 CB          4.6204  -16.0859  -42.6797 C.3       6 UNK        -0.1800 
     44 N           2.5728  -15.6473  -41.4072 N.am      6 UNK        -0.5000 
     45 C           1.5357  -15.9591  -40.6186 C.2       5 UNK         0.5000 
     46 O           1.0413  -17.0856  -40.5498 O.2       5 UNK        -0.5000 
     47 CA          0.9323  -14.8068  -39.7956 C.3       5 UNK         0.1400 
     48 CB          1.8155  -14.4797  -38.5817 C.3       5 UNK        -0.1800 
     49 N           0.7207  -13.5925  -40.5864 N.am      5 UNK        -0.5000 
     50 C          -0.1463  -13.5008  -41.6033 C.2       4 UNK         0.5000 
     51 O          -0.8347  -14.4394  -42.0028 O.2       4 UNK        -0.5000 
     52 CA         -0.2521  -12.1385  -42.3123 C.3       4 UNK         0.1400 
     53 CB         -1.1838  -11.2007  -41.5294 C.3       4 UNK        -0.1800 
     54 N           1.0188  -11.4513  -42.5686 N.am      4 UNK        -0.5000 
     55 C           2.0922  -11.9707  -43.1801 C.2       3 UNK         0.5000 
     56 O           2.2195  -13.1688  -43.4433 O.2       3 UNK        -0.5000 
     57 CA          3.1736  -10.9591  -43.6097 C.3       3 UNK         0.1400 
     58 CB          3.8493  -10.2784  -42.4003 C.3       3 UNK        -0.1800 
     59 N           4.1456  -11.5558  -44.5371 N.am      3 UNK        -0.5000 
     60 C           5.1267  -12.4237  -44.2554 C.2       2 UNK         0.5000 
     61 O           5.4649  -12.7515  -43.1172 O.2       2 UNK        -0.5000 
     62 CA          5.7845  -13.0892  -45.4725 C.3       2 UNK         0.1400 
     63 CB          7.1325  -13.7583  -45.1297 C.3       2 UNK        -0.1800 
     64 N           4.8521  -14.0808  -46.0088 N.am      2 UNK        -0.5000 
     65 C           4.9091  -14.5964  -47.2424 C.2       1 UNK         0.5000 
     66 O           5.7025  -14.2151  -48.1058 O.2       1 UNK        -0.5000 
     67 C          -2.8602  -21.9155  -46.9239 C.2       11 UNK         0.5000 
     68 O          -3.3579  -22.6312  -47.7913 O.2       11 UNK        -0.5000 
     69 N          -2.7670  -22.2712  -45.6368 N.am      12 UNK        -0.5000 
     70 CA         -3.2197  -23.5578  -45.1170 C.3       12 UNK         0.1400 
     71 CB         -3.2584  -23.5009  -43.5820 C.3       12 UNK        -0.1800 
     72 C          -2.3532  -24.7337  -45.6050 C.2       12 UNK         0.5000 
     73 O          -2.8983  -25.7339  -46.0726 O.2       12 UNK        -0.5000 
     74 N          -1.0276  -24.6001  -45.4698 N.am      13 UNK        -0.5000 
     75 CA         -0.0688  -25.6782  -45.7008 C.3       13 UNK         0.1400 
     76 CB          1.2432  -25.3614  -44.9653 C.3       13 UNK        -0.1800 
     77 C           0.2067  -25.9619  -47.1858 C.2       13 UNK         0.5000 
     78 O           0.1899  -27.1270  -47.5857 O.2       13 UNK        -0.5000 
     79 N           0.4985  -24.9121  -47.9641 N.am      14 UNK        -0.5000 
     80 CA          0.9859  -25.0313  -49.3381 C.3       14 UNK         0.1400 
     81 CB          2.1536  -24.0550  -49.5579 C.3       14 UNK        -0.1800 
     82 C          -0.1271  -24.7863  -50.3639 C.2       14 UNK         0.5000 
     83 O          -0.2358  -25.5505  -51.3236 O.2       14 UNK        -0.5000 
     84 N          -0.9331  -23.7349  -50.1563 N.am      15 UNK        -0.5000 
     85 CA         -1.9959  -23.3475  -51.0914 C.3       15 UNK         0.1400 
     86 CB         -2.2846  -21.8448  -50.9647 C.3       15 UNK        -0.1800 
     87 C          -3.2922  -24.1597  -50.9158 C.2       15 UNK         0.5000 
     88 O          -4.1714  -24.0576  -51.7710 O.2       15 UNK        -0.5000 
     89 N          -3.4035  -24.9158  -49.8130 N.am      16 UNK        -0.5000 
     90 CA         -4.5465  -25.7433  -49.4118 C.3       16 UNK         0.1400 
     91 CB         -4.6785  -26.9656  -50.3432 C.3       16 UNK        -0.1800 
     92 C          -5.8533  -24.9307  -49.2820 C.2       16 UNK         0.5000 
     93 O          -6.8937  -25.3378  -49.8008 O.2       16 UNK        -0.5000 
     94 N          -5.7518  -23.7779  -48.6048 N.am      17 UNK        -0.5000 
     95 CA         -6.7848  -22.7545  -48.4180 C.3       17 UNK         0.1400 
     96 CB         -7.9937  -23.3050  -47.6325 C.3       17 UNK        -0.1800 
     97 C          -7.1656  -22.0716  -49.7477 C.2       17 UNK         0.5000 
     98 O          -8.3480  -21.8708  -50.0306 O.2       17 UNK        -0.5000 
     99 N          -6.1318  -21.7297  -50.5311 N.am      18 UNK        -0.5000 
    100 CA        -6.1813  -21.0758  -51.8420 C.3       18 UNK         0.1400 
    101 CB        -6.7315  -19.6393  -51.7267 C.3       18 UNK        -0.1800 
    102 C         -6.9100  -21.9187  -52.9081 C.2       18 UNK         0.5000 
    103 O         -7.6983  -21.3874  -53.6922 O.2       18 UNK        -0.5000 
    104 N         -6.6000  -23.2220  -52.9533 N.am      19 UNK        -0.5000 
    105 CA        -7.0956  -24.1663  -53.9607 C.3       19 UNK         0.1400 
    106 CB        -6.7244  -25.5954  -53.5402 C.3       19 UNK        -0.1800 
    107 C         -6.5579  -23.8631  -55.3740 C.2       19 UNK         0.5000 
    108 O         -7.2120  -24.1923  -56.3634 O.2       19 UNK        -0.5000 
    109 N         -5.3964  -23.1982  -55.4350 N.am      20 UNK        -0.5000 
    110 CA        -4.7737  -22.6595  -56.6444 C.3       20 UNK         0.1400 
    111 CB        -3.2616  -22.5379  -56.3880 C.3       20 UNK        -0.1800 
    112 C         -5.3685  -21.3020  -57.0858 C.2       20 UNK         0.5000 
    113 O         -4.8362  -20.6910  -58.0135 O.2       20 UNK        -0.5000 
    114 N         -6.4204  -20.8260  -56.4001 N.am      21 UNK        -0.5000 
    115 CA        -7.1284  -19.5456  -56.5401 C.3       21 UNK         0.1400 
    116 CB        -7.6614  -19.3249  -57.9688 C.3       21 UNK        -0.1800 
    117 C         -6.3169  -18.3363  -56.0401 C.2       21 UNK         0.5000 
    118 O         -6.8661  -17.5011  -55.3212 O.2       21 UNK        -0.5000 
    119 N         -5.0272  -18.2854  -56.3949 N.am      22 UNK        -0.5000 
    120 CA        -4.0138  -17.3347  -55.9017 C.3       22 UNK         0.1400 
    121 C         -4.2222  -15.8545  -56.3494 C.2       22 UNK         0.5000 
    122 N         -5.0405  -15.5777  -57.3573 N.am      22 UNK        -0.7600 
    123 O         -3.6085  -14.9418  -55.8029 O.2       22 UNK        -0.5000 
    124 C124       -3.7659  -17.4713  -54.3719 C.3       23 UNK        -0.0398 
    125 S125       -3.2874  -19.1703  -53.8940 S.3       23 UNK        -0.2404 
    126 C126       -1.7098  -18.8695  -53.0243 C.3       23 UNK        -0.0205 
    127 H127        4.6888  -17.7186  -45.5363 H         1 UNK         0.0600 
    128 H128        6.1739  -16.7645  -45.7222 H         1 UNK         0.0600 
    129 H129        6.2427  -18.5224  -45.6824 H         1 UNK         0.0600 
    130 H130        4.5941  -16.9259  -49.1719 H         1 UNK         0.3000 
    131 H131        3.4921  -16.0978  -46.6335 H         1 UNK         0.0600 
    132 H132        2.2461  -14.4415  -48.0171 H         1 UNK         0.0800 
    133 H133        3.1758  -14.8854  -49.4294 H         1 UNK         0.0800 
    134 H134        0.6395  -15.1330  -50.5120 H         1 UNK         0.0800 
    135 H135       -0.1200  -14.9033  -48.9545 H         1 UNK         0.0800 
    136 H136        0.0815  -17.1810  -51.8917 H         1 UNK         0.1150 
    137 H137       -3.7960  -18.8823  -51.1920 H         1 UNK         0.1150 
    138 H138       -2.1011  -16.1712  -48.3478 H         1 UNK         0.1150 
    139 H139       -4.3555  -16.8917  -48.0535 H         1 UNK         0.0800 
    140 H140       -5.2117  -17.3754  -49.4917 H         1 UNK         0.0800 
    141 H141       -3.6416  -19.4950  -45.9531 H         1 UNK         0.0800 
    142 H142       -2.7206  -18.4467  -46.9853 H         1 UNK         0.0800 
    143 H143       -2.1149  -20.5362  -48.3906 H         1 UNK         0.0600 
    144 H144       -0.8189  -19.5296  -46.1467 H         1 UNK         0.3000 
    145 H145        1.9964  -21.7595  -46.1584 H         1 UNK         0.0600 
    146 H146        3.1888  -19.6177  -46.3472 H         1 UNK         0.0600 
    147 H147        2.4231  -19.9781  -47.8878 H         1 UNK         0.0600 
    148 H148        1.7090  -18.7834  -46.8104 H         1 UNK         0.0600 
    149 H149        1.4127  -19.5389  -44.4957 H         1 UNK         0.3000 
    150 H150       -0.4196  -21.3458  -41.9666 H         1 UNK         0.0600 
    151 H151        2.0205  -21.5260  -41.5271 H         1 UNK         0.0600 
    152 H152        1.3261  -20.1711  -40.6488 H         1 UNK         0.0600 
    153 H153        2.2723  -19.8855  -42.1065 H         1 UNK         0.0600 
    154 H154        0.1333  -18.5661  -42.2521 H         1 UNK         0.3000 
    155 H155       -2.8891  -17.6692  -43.9449 H         1 UNK         0.0600 
    156 H156       -1.8330  -17.1587  -41.1126 H         1 UNK         0.0600 
    157 H157       -3.4017  -17.8625  -41.4940 H         1 UNK         0.0600 
    158 H158       -3.0474  -16.2071  -41.9641 H         1 UNK         0.0600 
    159 H159       -0.7423  -16.0572  -43.0555 H         1 UNK         0.3000 
    160 H160        1.3031  -16.3992  -46.0087 H         1 UNK         0.0600 
    161 H161       -0.3015  -14.0929  -44.7983 H         1 UNK         0.0600 
    162 H162       -0.3977  -14.6451  -46.4639 H         1 UNK         0.0600 
    163 H163        1.0901  -13.9254  -45.8661 H         1 UNK         0.0600 
    164 H164        1.7778  -14.9390  -43.6293 H         1 UNK         0.3000 
    165 H165        3.3584  -17.5461  -41.7586 H         1 UNK         0.0600 
    166 H166        5.2106  -15.8369  -41.7976 H         1 UNK         0.0600 
    167 H167        5.1759  -16.8383  -43.2394 H         1 UNK         0.0600 
    168 H168        4.5539  -15.1954  -43.3011 H         1 UNK         0.0600 
    169 H169        2.8814  -14.6865  -41.4571 H         1 UNK         0.3000 
    170 H170       -0.0400  -15.1401  -39.4264 H         1 UNK         0.0600 
    171 H171        1.9812  -15.3672  -37.9695 H         1 UNK         0.0600 
    172 H172        2.7931  -14.1008  -38.8824 H         1 UNK         0.0600 
    173 H173        1.3467  -13.7298  -37.9444 H         1 UNK         0.0600 
    174 H174        1.2610  -12.7774  -40.3365 H         1 UNK         0.3000 
    175 H175       -0.7115  -12.3206  -43.2851 H         1 UNK         0.0600 
    176 H176       -0.7568  -10.9219  -40.5652 H         1 UNK         0.0600 
    177 H177       -1.3822  -10.2848  -42.0864 H         1 UNK         0.0600 
    178 H178       -2.1469  -11.6758  -41.3371 H         1 UNK         0.0600 
    179 H179        1.0183  -10.4596  -42.3788 H         1 UNK         0.3000 
    180 H180        2.6657  -10.1828  -44.1839 H         1 UNK         0.0600 
    181 H181        4.2342  -11.0030  -41.6823 H         1 UNK         0.0600 
    182 H182        3.1434   -9.6431  -41.8648 H         1 UNK         0.0600 
    183 H183        4.6775   -9.6437  -42.7153 H         1 UNK         0.0600 
    184 H184        3.9404  -11.3972  -45.5136 H         1 UNK         0.3000 
    185 H185        5.9627  -12.3128  -46.2197 H         1 UNK         0.0600 
    186 H186        7.8187  -13.0421  -44.6763 H         1 UNK         0.0600 
    187 H187        7.0058  -14.5833  -44.4275 H         1 UNK         0.0600 
    188 H188        7.6208  -14.1518  -46.0211 H         1 UNK         0.0600 
    189 H189        4.1409  -14.3908  -45.3605 H         1 UNK         0.3000 
    190 H190       -2.3558  -21.6246  -44.9720 H         1 UNK         0.3000 
    191 H191       -4.2390  -23.7268  -45.4715 H         1 UNK         0.0600 
    192 H192       -2.2748  -23.2927  -43.1595 H         1 UNK         0.0600 
    193 H193       -3.6036  -24.4472  -43.1638 H         1 UNK         0.0600 
    194 H194       -3.9393  -22.7233  -43.2353 H         1 UNK         0.0600 
    195 H195       -0.6561  -23.7450  -45.0603 H         1 UNK         0.3000 
    196 H196       -0.4762  -26.5920  -45.2623 H         1 UNK         0.0600 
    197 H197        1.9680  -26.1665  -45.0923 H         1 UNK         0.0600 
    198 H198        1.0753  -25.2409  -43.8949 H         1 UNK         0.0600 
    199 H199        1.7026  -24.4441  -45.3360 H         1 UNK         0.0600 
    200 H200        0.4218  -23.9688  -47.5944 H         1 UNK         0.3000 
    201 H201        1.3754  -26.0372  -49.5103 H         1 UNK         0.0600 
    202 H202        2.9581  -24.2376  -48.8453 H         1 UNK         0.0600 
    203 H203        1.8459  -23.0145  -49.4548 H         1 UNK         0.0600 
    204 H204        2.5730  -24.1717  -50.5579 H         1 UNK         0.0600 
    205 H205       -0.7782  -23.1434  -49.3467 H         1 UNK         0.3000 
    206 H206       -1.6391  -23.5222  -52.1088 H         1 UNK         0.0600 
    207 H207       -1.3710  -21.2631  -50.8409 H         1 UNK         0.0600 
    208 H208       -2.7846  -21.4819  -51.8621 H         1 UNK         0.0600 
    209 H209       -2.9455  -21.6238  -50.1298 H         1 UNK         0.0600 
    210 H210       -2.6429  -24.8705  -49.1500 H         1 UNK         0.3000 
    211 H211       -4.3214  -26.1165  -48.4120 H         1 UNK         0.0600 
    212 H212       -4.9207  -26.6729  -51.3643 H         1 UNK         0.0600 
    213 H213       -5.4657  -27.6373  -49.9992 H         1 UNK         0.0600 
    214 H214       -3.7521  -27.5392  -50.3713 H         1 UNK         0.0600 
    215 H215       -4.8274  -23.5128  -48.2646 H         1 UNK         0.3000 
    216 H216       -6.3277  -21.9786  -47.8020 H         1 UNK         0.0600 
    217 H217       -8.6843  -22.5023  -47.3721 H         1 UNK         0.0600 
    218 H218       -7.6773  -23.7753  -46.7016 H         1 UNK         0.0600 
    219 H219       -8.5551  -24.0413  -48.2079 H         1 UNK         0.0600 
    220 H220       -5.2095  -21.9757  -50.2033 H         1 UNK         0.3000 
    221 H221       -5.1474  -20.9987  -52.1783 H         1 UNK         0.0600 
    222 H222       -7.7925  -19.6295  -51.4762 H         1 UNK         0.0600 
    223 H223       -6.2030  -19.0739  -50.9608 H         1 UNK         0.0600 
    224 H224       -6.6118  -19.1004  -52.6677 H         1 UNK         0.0600 
    225 H225       -5.8900  -23.5780  -52.3167 H         1 UNK         0.3000 
    226 H226       -8.1841  -24.0877  -53.9932 H         1 UNK         0.0600 
    227 H227       -7.1278  -25.8346  -52.5561 H         1 UNK         0.0600 
    228 H228       -7.1255  -26.3266  -54.2430 H         1 UNK         0.0600 
    229 H229       -5.6433  -25.7334  -53.5035 H         1 UNK         0.0600 
    230 H230       -4.9318  -22.9907  -54.5627 H         1 UNK         0.3000 
    231 H231       -4.9266  -23.3626  -57.4655 H         1 UNK         0.0600 
    232 H232       -2.8309  -23.4986  -56.1048 H         1 UNK         0.0600 
    233 H233       -3.0449  -21.8253  -55.5912 H         1 UNK         0.0600 
    234 H234       -2.7350  -22.2010  -57.2817 H         1 UNK         0.0600 
    235 H235       -6.7520  -21.3835  -55.6223 H         1 UNK         0.3000 
    236 H236       -7.9964  -19.6271  -55.8839 H         1 UNK         0.0600 
    237 H237       -6.8585  -19.1760  -58.6909 H         1 UNK         0.0600 
    238 H238       -8.2600  -20.1729  -58.3013 H         1 UNK         0.0600 
    239 H239       -8.2990  -18.4410  -58.0095 H         1 UNK         0.0600 
    240 H240       -4.6902  -19.0170  -57.0126 H         1 UNK         0.3000 
    241 H241       -3.0881  -17.6297  -56.3966 H         1 UNK         0.0600 
    242 H242       -5.5451  -16.3156  -57.8219 H         1 UNK         0.3800 
    243 H243       -5.1634  -14.6213  -57.6511 H         1 UNK         0.3800 
    244 H244       -4.6560  -17.1908  -53.8075 H         1 UNK         0.0800 
    245 H245       -2.9824  -16.7830  -54.0515 H         1 UNK         0.0800 
    246 H246       -1.0447  -18.3283  -53.6992 H         1 UNK         0.0800 
    247 H247       -1.2280  -19.8274  -52.8303 H         1 UNK         0.0800 
@<TRIPOS>BOND
     1    1    2 1    
     2    1  127 1    
     3    1  128 1    
     4    1  129 1    
     5    2    3 2    
     6    2    4 am   BACKBONE|DICT|INTERRES
     7    4    5 1    
     8    4  130 1    
     9    5    6 1    
    10    5   65 1    
    11    5  131 1    
    12    6    7 1    
    13    6  132 1    
    14    6  133 1    
    15    7    8 1    
    16    8    9 1    
    17    8  134 1    
    18    8  135 1    
    19    9   10 ar   
    20    9   14 ar   
    21   10   11 ar   
    22   10  136 1    
    23   11   12 ar   
    24   11  126 1    
    25   12   13 ar   
    26   12  137 1    
    27   13   14 ar   
    28   13   15 1    
    29   14  138 1    
    30   15   16 1    
    31   15  139 1    
    32   15  140 1    
    33   16   17 1    
    34   17   18 1    
    35   17  141 1    
    36   17  142 1    
    37   18   19 1    
    38   18   67 1    
    39   18  143 1    
    40   19   20 am   BACKBONE|DICT|INTERRES
    41   19  144 1    
    42   20   21 2    
    43   20   22 1    
    44   22   23 1    
    45   22   24 1    
    46   22  145 1    
    47   23  146 1    
    48   23  147 1    
    49   23  148 1    
    50   24   25 am   BACKBONE|DICT|INTERRES
    51   24  149 1    
    52   25   26 2    
    53   25   27 1    
    54   27   28 1    
    55   27   29 1    
    56   27  150 1    
    57   28  151 1    
    58   28  152 1    
    59   28  153 1    
    60   29   30 am   BACKBONE|DICT|INTERRES
    61   29  154 1    
    62   30   31 2    
    63   30   32 1    
    64   32   33 1    
    65   32   34 1    
    66   32  155 1    
    67   33  156 1    
    68   33  157 1    
    69   33  158 1    
    70   34   35 am   BACKBONE|DICT|INTERRES
    71   34  159 1    
    72   35   36 2    
    73   35   37 1    
    74   37   38 1    
    75   37   39 1    
    76   37  160 1    
    77   38  161 1    
    78   38  162 1    
    79   38  163 1    
    80   39   40 am   BACKBONE|DICT|INTERRES
    81   39  164 1    
    82   40   41 2    
    83   40   42 1    
    84   42   43 1    
    85   42   44 1    
    86   42  165 1    
    87   43  166 1    
    88   43  167 1    
    89   43  168 1    
    90   44   45 am   BACKBONE|DICT|INTERRES
    91   44  169 1    
    92   45   46 2    
    93   45   47 1    
    94   47   48 1    
    95   47   49 1    
    96   47  170 1    
    97   48  171 1    
    98   48  172 1    
    99   48  173 1    
   100   49   50 am   BACKBONE|DICT|INTERRES
   101   49  174 1    
   102   50   51 2    
   103   50   52 1    
   104   52   53 1    
   105   52   54 1    
   106   52  175 1    
   107   53  176 1    
   108   53  177 1    
   109   53  178 1    
   110   54   55 am   BACKBONE|DICT|INTERRES
   111   54  179 1    
   112   55   56 2    
   113   55   57 1    
   114   57   58 1    
   115   57   59 1    
   116   57  180 1    
   117   58  181 1    
   118   58  182 1    
   119   58  183 1    
   120   59   60 am   BACKBONE|DICT|INTERRES
   121   59  184 1    
   122   60   61 2    
   123   60   62 1    
   124   62   63 1    
   125   62   64 1    
   126   62  185 1    
   127   63  186 1    
   128   63  187 1    
   129   63  188 1    
   130   64   65 am   BACKBONE|DICT|INTERRES
   131   64  189 1    
   132   65   66 2    
   133   67   68 2    
   134   67   69 am   BACKBONE|DICT|INTERRES
   135   69   70 1    
   136   69  190 1    
   137   70   71 1    
   138   70   72 1    
   139   70  191 1    
   140   71  192 1    
   141   71  193 1    
   142   71  194 1    
   143   72   73 2    
   144   72   74 am   BACKBONE|DICT|INTERRES
   145   74   75 1    
   146   74  195 1    
   147   75   76 1    
   148   75   77 1    
   149   75  196 1    
   150   76  197 1    
   151   76  198 1    
   152   76  199 1    
   153   77   78 2    
   154   77   79 am   BACKBONE|DICT|INTERRES
   155   79   80 1    
   156   79  200 1    
   157   80   81 1    
   158   80   82 1    
   159   80  201 1    
   160   81  202 1    
   161   81  203 1    
   162   81  204 1    
   163   82   83 2    
   164   82   84 am   BACKBONE|DICT|INTERRES
   165   84   85 1    
   166   84  205 1    
   167   85   86 1    
   168   85   87 1    
   169   85  206 1    
   170   86  207 1    
   171   86  208 1    
   172   86  209 1    
   173   87   88 2    
   174   87   89 am   BACKBONE|DICT|INTERRES
   175   89   90 1    
   176   89  210 1    
   177   90   91 1    
   178   90   92 1    
   179   90  211 1    
   180   91  212 1    
   181   91  213 1    
   182   91  214 1    
   183   92   93 2    
   184   92   94 am   BACKBONE|DICT|INTERRES
   185   94   95 1    
   186   94  215 1    
   187   95   96 1    
   188   95   97 1    
   189   95  216 1    
   190   96  217 1    
   191   96  218 1    
   192   96  219 1    
   193   97   98 2    
   194   97   99 am   BACKBONE|DICT|INTERRES
   195   99  100 1    
   196   99  220 1    
   197  100  101 1    
   198  100  102 1    
   199  100  221 1    
   200  101  222 1    
   201  101  223 1    
   202  101  224 1    
   203  102  103 2    
   204  102  104 am   BACKBONE|DICT|INTERRES
   205  104  105 1    
   206  104  225 1    
   207  105  106 1    
   208  105  107 1    
   209  105  226 1    
   210  106  227 1    
   211  106  228 1    
   212  106  229 1    
   213  107  108 2    
   214  107  109 am   BACKBONE|DICT|INTERRES
   215  109  110 1    
   216  109  230 1    
   217  110  111 1    
   218  110  112 1    
   219  110  231 1    
   220  111  232 1    
   221  111  233 1    
   222  111  234 1    
   223  112  113 2    
   224  112  114 am   BACKBONE|DICT|INTERRES
   225  114  115 1    
   226  114  235 1    
   227  115  116 1    
   228  115  117 1    
   229  115  236 1    
   230  116  237 1    
   231  116  238 1    
   232  116  239 1    
   233  117  118 2    
   234  117  119 am   BACKBONE|DICT|INTERRES
   235  119  120 1    
   236  119  240 1    
   237  120  121 1    
   238  120  124 1    
   239  120  241 1    
   240  121  122 am   BACKBONE|DICT|INTERRES
   241  121  123 2    
   242  122  242 1    
   243  122  243 1    
   244  124  125 1    
   245  124  244 1    
   246  124  245 1    
   247  125  126 1    
   248  126  246 1    
   249  126  247 1    
@<TRIPOS>SUBSTRUCTURE
     1 UNK         1 GROUP             0       ****    0 ROOT    
