@<TRIPOS>MOLECULE
3R540
247   249    1
SMALL
USER_CHARGES


@<TRIPOS>ATOM
      1 CA         -0.6566  -14.2286  -55.8090 C.3       0 UNK        -0.1800 
      2 C           0.4345  -13.8444  -54.8191 C.2       0 UNK         0.5000 
      3 O           0.9420  -12.7235  -54.8699 O.2       0 UNK        -0.5000 
      4 N           0.8009  -14.7719  -53.9276 N.am      1 UNK        -0.5000 
      5 CA          1.7615  -14.5701  -52.8369 C.3       1 UNK         0.1400 
      6 C6          2.3474  -15.9185  -52.3375 C.3       23 UNK        -0.0398 
      7 S7          1.0989  -17.1837  -51.9097 S.3       23 UNK        -0.2404 
      8 C8          1.1500  -17.1761  -50.0883 C.3       23 UNK        -0.0205 
      9 C9         -0.2311  -17.1385  -49.4416 C.ar      23 UNK        -0.0193 
     10 C10        -1.1776  -16.1849  -49.8284 C.ar      23 UNK        -0.1150 
     11 C11        -2.4086  -16.0885  -49.1762 C.ar      23 UNK        -0.0193 
     12 C12        -2.6859  -16.9450  -48.1079 C.ar      23 UNK        -0.1150 
     13 C13        -1.7428  -17.8893  -47.6964 C.ar      23 UNK        -0.0193 
     14 C14        -0.5312  -18.0015  -48.3837 C.ar      23 UNK        -0.1150 
     15 C15        -1.9872  -18.7178  -46.4491 C.3       23 UNK        -0.0205 
     16 S16        -3.0201  -20.1756  -46.7532 S.3       23 UNK        -0.2404 
     17 C17        -2.7180  -21.0660  -45.1902 C.3       23 UNK        -0.0398 
     18 CA         -1.5091  -22.0281  -45.3199 C.3       11 UNK         0.1400 
     19 N          -0.6624  -22.0345  -44.1194 N.am      11 UNK        -0.5000 
     20 C           0.5413  -22.6207  -44.0161 C.2       10 UNK         0.5000 
     21 O           1.0716  -23.2335  -44.9436 O.2       10 UNK        -0.5000 
     22 CA          1.2520  -22.5737  -42.6472 C.3       10 UNK         0.1400 
     23 CB          2.5579  -21.7702  -42.7263 C.3       10 UNK        -0.1800 
     24 N           0.4309  -22.0523  -41.5501 N.am      10 UNK        -0.5000 
     25 C          -0.6251  -22.6833  -41.0136 C.2       9 UNK         0.5000 
     26 O          -1.0573  -23.7540  -41.4452 O.2       9 UNK        -0.5000 
     27 CA         -1.3262  -21.9896  -39.8242 C.3       9 UNK         0.1400 
     28 CB         -2.0908  -22.9774  -38.9184 C.3       9 UNK        -0.1800 
     29 N          -0.4288  -21.1374  -39.0361 N.am      9 UNK        -0.5000 
     30 C           0.6621  -21.5124  -38.3477 C.2       8 UNK         0.5000 
     31 O           1.0222  -22.6841  -38.2237 O.2       8 UNK        -0.5000 
     32 CA          1.4931  -20.3833  -37.6930 C.3       8 UNK         0.1400 
     33 CB          2.9975  -20.7220  -37.6284 C.3       8 UNK        -0.1800 
     34 N           1.2886  -19.0585  -38.2987 N.am      8 UNK        -0.5000 
     35 C           1.5310  -18.7057  -39.5696 C.2       7 UNK         0.5000 
     36 O           1.9895  -19.4680  -40.4230 O.2       7 UNK        -0.5000 
     37 CA          1.1727  -17.2552  -39.9460 C.3       7 UNK         0.1400 
     38 CB          2.4179  -16.3600  -39.8671 C.3       7 UNK        -0.1800 
     39 N           0.5824  -17.1348  -41.2807 N.am      7 UNK        -0.5000 
     40 C          -0.5016  -17.7924  -41.7231 C.2       6 UNK         0.5000 
     41 O          -1.1519  -18.5823  -41.0351 O.2       6 UNK        -0.5000 
     42 CA         -0.9596  -17.5146  -43.1696 C.3       6 UNK         0.1400 
     43 CB         -2.1944  -16.5999  -43.1588 C.3       6 UNK        -0.1800 
     44 N           0.0766  -16.9102  -44.0112 N.am      6 UNK        -0.5000 
     45 C           1.1801  -17.5455  -44.4363 C.2       5 UNK         0.5000 
     46 O           1.3517  -18.7538  -44.2842 O.2       5 UNK        -0.5000 
     47 CA          2.2892  -16.7141  -45.1233 C.3       5 UNK         0.1400 
     48 CB          2.5108  -17.1671  -46.5729 C.3       5 UNK        -0.1800 
     49 N           2.0581  -15.2688  -45.1219 N.am      5 UNK        -0.5000 
     50 C           2.0523  -14.4776  -44.0392 C.2       4 UNK         0.5000 
     51 O           2.3096  -14.8795  -42.9044 O.2       4 UNK        -0.5000 
     52 CA          1.6252  -13.0086  -44.2490 C.3       4 UNK         0.1400 
     53 CB          2.8601  -12.1019  -44.3577 C.3       4 UNK        -0.1800 
     54 N           0.7797  -12.8016  -45.4298 N.am      4 UNK        -0.5000 
     55 C          -0.4021  -13.3937  -45.6588 C.2       3 UNK         0.5000 
     56 O          -0.9562  -14.1277  -44.8412 O.2       3 UNK        -0.5000 
     57 CA         -1.0564  -13.1734  -47.0384 C.3       3 UNK         0.1400 
     58 CB         -2.3118  -12.2976  -46.9099 C.3       3 UNK        -0.1800 
     59 N          -0.1729  -12.5934  -48.0572 N.am      3 UNK        -0.5000 
     60 C           0.9136  -13.1862  -48.5701 C.2       2 UNK         0.5000 
     61 O           1.3527  -14.2692  -48.1791 O.2       2 UNK        -0.5000 
     62 CA          1.6771  -12.3979  -49.6492 C.3       2 UNK         0.1400 
     63 CB          2.9512  -11.7789  -49.0533 C.3       2 UNK        -0.1800 
     64 N           2.0418  -13.2380  -50.7905 N.am      2 UNK        -0.5000 
     65 C           1.1715  -13.7028  -51.6972 C.2       1 UNK         0.5000 
     66 O          -0.0360  -13.4489  -51.6645 O.2       1 UNK        -0.5000 
     67 C          -1.9586  -23.4304  -45.7877 C.2       11 UNK         0.5000 
     68 O          -2.3895  -23.5699  -46.9317 O.2       11 UNK        -0.5000 
     69 N          -1.8044  -24.4580  -44.9402 N.am      12 UNK        -0.5000 
     70 CA         -1.9547  -25.8683  -45.3052 C.3       12 UNK         0.1400 
     71 CB         -1.7410  -26.7356  -44.0564 C.3       12 UNK        -0.1800 
     72 C          -1.0014  -26.3037  -46.4393 C.2       12 UNK         0.5000 
     73 O          -1.3954  -27.1099  -47.2819 O.2       12 UNK        -0.5000 
     74 N           0.2053  -25.7161  -46.4855 N.am      13 UNK        -0.5000 
     75 CA          1.1845  -25.9154  -47.5588 C.3       13 UNK         0.1400 
     76 CB          2.5617  -25.4306  -47.0816 C.3       13 UNK        -0.1800 
     77 C           0.7897  -25.2104  -48.8733 C.2       13 UNK         0.5000 
     78 O           1.2506  -25.6172  -49.9396 O.2       13 UNK        -0.5000 
     79 N          -0.0717  -24.1887  -48.7771 N.am      14 UNK        -0.5000 
     80 CA         -0.6649  -23.4600  -49.8992 C.3       14 UNK         0.1400 
     81 CB         -0.7147  -21.9635  -49.5478 C.3       14 UNK        -0.1800 
     82 C          -2.0689  -23.9936  -50.2534 C.2       14 UNK         0.5000 
     83 O          -2.7827  -23.3443  -51.0208 O.2       14 UNK        -0.5000 
     84 N          -2.4515  -25.1461  -49.6800 N.am      15 UNK        -0.5000 
     85 CA         -3.7295  -25.8439  -49.8456 C.3       15 UNK         0.1400 
     86 CB         -3.8526  -26.4007  -51.2797 C.3       15 UNK        -0.1800 
     87 C          -4.9399  -24.9864  -49.4203 C.2       15 UNK         0.5000 
     88 O          -5.9567  -24.9689  -50.1135 O.2       15 UNK        -0.5000 
     89 N          -4.7901  -24.2563  -48.3042 N.am      16 UNK        -0.5000 
     90 CA         -5.7375  -23.2725  -47.7642 C.3       16 UNK         0.1400 
     91 CB         -7.0435  -23.9482  -47.2971 C.3       16 UNK        -0.1800 
     92 C          -5.9639  -22.1015  -48.7436 C.2       16 UNK         0.5000 
     93 O          -7.0967  -21.6678  -48.9577 O.2       16 UNK        -0.5000 
     94 N          -4.8520  -21.6461  -49.3349 N.am      17 UNK        -0.5000 
     95 CA         -4.7048  -20.5834  -50.3311 C.3       17 UNK         0.1400 
     96 CB         -5.2882  -19.2439  -49.8379 C.3       17 UNK        -0.1800 
     97 C          -5.1976  -20.9517  -51.7464 C.2       17 UNK         0.5000 
     98 O          -5.1466  -20.0999  -52.6367 O.2       17 UNK        -0.5000 
     99 N          -5.6080  -22.2084  -51.9716 N.am      18 UNK        -0.5000 
    100 CA        -6.0163  -22.7078  -53.2867 C.3       18 UNK         0.1400 
    101 CB        -6.7197  -24.0639  -53.1383 C.3       18 UNK        -0.1800 
    102 C         -4.8418  -22.8094  -54.2780 C.2       18 UNK         0.5000 
    103 O         -5.0430  -22.5797  -55.4710 O.2       18 UNK        -0.5000 
    104 N         -3.6387  -23.1202  -53.7727 N.am      19 UNK        -0.5000 
    105 CA        -2.4033  -23.1282  -54.5586 C.3       19 UNK         0.1400 
    106 CB        -1.4273  -24.1619  -53.9761 C.3       19 UNK        -0.1800 
    107 C         -1.7504  -21.7341  -54.6147 C.2       19 UNK         0.5000 
    108 O         -0.9798  -21.4719  -55.5387 O.2       19 UNK        -0.5000 
    109 N         -2.0662  -20.8660  -53.6404 N.am      20 UNK        -0.5000 
    110 CA        -1.6275  -19.4698  -53.6023 C.3       20 UNK         0.1400 
    111 CB        -1.9264  -18.8506  -52.2273 C.3       20 UNK        -0.1800 
    112 C         -2.2933  -18.6292  -54.7012 C.2       20 UNK         0.5000 
    113 O         -1.6005  -17.8873  -55.3980 O.2       20 UNK        -0.5000 
    114 N         -3.6265  -18.7589  -54.8123 N.am      21 UNK        -0.5000 
    115 CA        -4.5110  -18.0103  -55.7143 C.3       21 UNK         0.1400 
    116 CB        -4.2709  -18.4274  -57.1799 C.3       21 UNK        -0.1800 
    117 C         -4.4215  -16.4830  -55.4933 C.2       21 UNK         0.5000 
    118 O         -4.4469  -15.7070  -56.4502 O.2       21 UNK        -0.5000 
    119 N         -4.2862  -16.0899  -54.2210 N.am      22 UNK        -0.5000 
    120 CA        -4.0543  -14.7111  -53.7674 C.3       22 UNK         0.1400 
    121 C         -5.2905  -13.7640  -53.8226 C.2       22 UNK         0.5000 
    122 N         -6.4939  -14.2518  -54.0989 N.am      22 UNK        -0.7600 
    123 O         -5.1510  -12.5598  -53.6268 O.2       22 UNK        -0.5000 
    124 C124       -3.3578  -14.6985  -52.3824 C.3       23 UNK        -0.0398 
    125 S125       -4.3471  -15.4925  -51.0648 S.3       23 UNK        -0.2404 
    126 C126       -3.4108  -15.0188  -49.5802 C.3       23 UNK        -0.0205 
    127 H127       -0.2376  -14.3282  -56.8101 H         1 UNK         0.0600 
    128 H128       -1.1312  -15.1731  -55.5420 H         1 UNK         0.0600 
    129 H129       -1.4278  -13.4591  -55.8370 H         1 UNK         0.0600 
    130 H130        0.3365  -15.6691  -53.9234 H         1 UNK         0.3000 
    131 H131        2.5965  -13.9974  -53.2467 H         1 UNK         0.0600 
    132 H132        2.9595  -16.3440  -53.1339 H         1 UNK         0.0800 
    133 H133        3.0389  -15.7698  -51.5072 H         1 UNK         0.0800 
    134 H134        1.7086  -16.3124  -49.7304 H         1 UNK         0.0800 
    135 H135        1.7059  -18.0551  -49.7594 H         1 UNK         0.0800 
    136 H136       -0.9491  -15.5039  -50.6310 H         1 UNK         0.1150 
    137 H137       -3.6216  -16.8565  -47.5740 H         1 UNK         0.1150 
    138 H138        0.2026  -18.7239  -48.0553 H         1 UNK         0.1150 
    139 H139       -1.0324  -19.0324  -46.0252 H         1 UNK         0.0800 
    140 H140       -2.4740  -18.0999  -45.6964 H         1 UNK         0.0800 
    141 H141       -2.5504  -20.3294  -44.4041 H         1 UNK         0.0800 
    142 H142       -3.6298  -21.5902  -44.8971 H         1 UNK         0.0800 
    143 H143       -0.8556  -21.6553  -46.1120 H         1 UNK         0.0600 
    144 H144       -1.0261  -21.5709  -43.3009 H         1 UNK         0.3000 
    145 H145        1.5146  -23.6046  -42.4010 H         1 UNK         0.0600 
    146 H146        3.1206  -21.8430  -41.7954 H         1 UNK         0.0600 
    147 H147        3.2024  -22.1386  -43.5254 H         1 UNK         0.0600 
    148 H148        2.3681  -20.7146  -42.9164 H         1 UNK         0.0600 
    149 H149        0.7365  -21.1757  -41.1422 H         1 UNK         0.3000 
    150 H150       -2.0624  -21.3171  -40.2667 H         1 UNK         0.0600 
    151 H151       -2.8698  -23.4976  -39.4770 H         1 UNK         0.0600 
    152 H152       -2.5779  -22.4592  -38.0925 H         1 UNK         0.0600 
    153 H153       -1.4314  -23.7364  -38.4969 H         1 UNK         0.0600 
    154 H154       -0.6184  -20.1460  -39.1014 H         1 UNK         0.3000 
    155 H155        1.1308  -20.3057  -36.6670 H         1 UNK         0.0600 
    156 H156        3.5635  -19.9168  -37.1601 H         1 UNK         0.0600 
    157 H157        3.4169  -20.8945  -38.6201 H         1 UNK         0.0600 
    158 H158        3.1725  -21.6231  -37.0395 H         1 UNK         0.0600 
    159 H159        0.9011  -18.3616  -37.6772 H         1 UNK         0.3000 
    160 H160        0.4339  -16.8829  -39.2336 H         1 UNK         0.0600 
    161 H161        3.1706  -16.6569  -40.5988 H         1 UNK         0.0600 
    162 H162        2.8790  -16.4127  -38.8800 H         1 UNK         0.0600 
    163 H163        2.1659  -15.3156  -40.0523 H         1 UNK         0.0600 
    164 H164        1.0600  -16.5144  -41.9221 H         1 UNK         0.3000 
    165 H165       -1.2405  -18.4734  -43.6060 H         1 UNK         0.0600 
    166 H166       -1.9812  -15.6482  -42.6701 H         1 UNK         0.0600 
    167 H167       -2.5431  -16.3791  -44.1671 H         1 UNK         0.0600 
    168 H168       -3.0220  -17.0659  -42.6225 H         1 UNK         0.0600 
    169 H169       -0.0325  -15.9231  -44.2156 H         1 UNK         0.3000 
    170 H170        3.2085  -16.9065  -44.5667 H         1 UNK         0.0600 
    171 H171        2.6351  -18.2485  -46.6434 H         1 UNK         0.0600 
    172 H172        1.6680  -16.8854  -47.2007 H         1 UNK         0.0600 
    173 H173        3.4045  -16.7082  -46.9960 H         1 UNK         0.0600 
    174 H174        1.8195  -14.8582  -46.0171 H         1 UNK         0.3000 
    175 H175        1.0500  -12.7074  -43.3713 H         1 UNK         0.0600 
    176 H176        3.4576  -12.3406  -45.2386 H         1 UNK         0.0600 
    177 H177        2.5750  -11.0514  -44.4188 H         1 UNK         0.0600 
    178 H178        3.5041  -12.2120  -43.4840 H         1 UNK         0.0600 
    179 H179        1.1598  -12.2170  -46.1587 H         1 UNK         0.3000 
    180 H180       -1.3640  -14.1580  -47.3933 H         1 UNK         0.0600 
    181 H181       -3.0142  -12.7231  -46.1917 H         1 UNK         0.0600 
    182 H182       -2.0659  -11.2902  -46.5719 H         1 UNK         0.0600 
    183 H183       -2.8360  -12.2154  -47.8622 H         1 UNK         0.0600 
    184 H184       -0.4477  -11.6907  -48.4169 H         1 UNK         0.3000 
    185 H185        1.0422  -11.5869  -50.0132 H         1 UNK         0.0600 
    186 H186        2.7129  -11.1219  -48.2158 H         1 UNK         0.0600 
    187 H187        3.6367  -12.5436  -48.6851 H         1 UNK         0.0600 
    188 H188        3.4825  -11.1797  -49.7931 H         1 UNK         0.0600 
    189 H189        3.0156  -13.4941  -50.8584 H         1 UNK         0.3000 
    190 H190       -1.4620  -24.2657  -44.0086 H         1 UNK         0.3000 
    191 H191       -2.9780  -26.0151  -45.6571 H         1 UNK         0.0600 
    192 H192       -1.8664  -27.7939  -44.2889 H         1 UNK         0.0600 
    193 H193       -2.4604  -26.4870  -43.2759 H         1 UNK         0.0600 
    194 H194       -0.7401  -26.6052  -43.6425 H         1 UNK         0.0600 
    195 H195        0.4476  -25.0246  -45.7834 H         1 UNK         0.3000 
    196 H196        1.2543  -26.9854  -47.7658 H         1 UNK         0.0600 
    197 H197        3.3277  -25.6346  -47.8308 H         1 UNK         0.0600 
    198 H198        2.8627  -25.9350  -46.1632 H         1 UNK         0.0600 
    199 H199        2.5676  -24.3566  -46.8927 H         1 UNK         0.0600 
    200 H200       -0.4407  -23.9562  -47.8650 H         1 UNK         0.3000 
    201 H201       -0.0416  -23.5755  -50.7875 H         1 UNK         0.0600 
    202 H202        0.2742  -21.5820  -49.2938 H         1 UNK         0.0600 
    203 H203       -1.3763  -21.7671  -48.7050 H         1 UNK         0.0600 
    204 H204       -1.0785  -21.3785  -50.3917 H         1 UNK         0.0600 
    205 H205       -1.8033  -25.5870  -49.0418 H         1 UNK         0.3000 
    206 H206       -3.7070  -26.6939  -49.1621 H         1 UNK         0.0600 
    207 H207       -3.0078  -27.0446  -51.5238 H         1 UNK         0.0600 
    208 H208       -4.7578  -26.9981  -51.3936 H         1 UNK         0.0600 
    209 H209       -3.8888  -25.6050  -52.0233 H         1 UNK         0.0600 
    210 H210       -3.8852  -24.2734  -47.8395 H         1 UNK         0.3000 
    211 H211       -5.2592  -22.8415  -46.8833 H         1 UNK         0.0600 
    212 H212       -7.6167  -24.3512  -48.1323 H         1 UNK         0.0600 
    213 H213       -7.6846  -23.2357  -46.7769 H         1 UNK         0.0600 
    214 H214       -6.8382  -24.7650  -46.6053 H         1 UNK         0.0600 
    215 H215       -3.9900  -22.1187  -49.1006 H         1 UNK         0.3000 
    216 H216       -3.6268  -20.4499  -50.4195 H         1 UNK         0.0600 
    217 H217       -6.3767  -19.2652  -49.7905 H         1 UNK         0.0600 
    218 H218       -5.0103  -18.4290  -50.5063 H         1 UNK         0.0600 
    219 H219       -4.9117  -18.9875  -48.8481 H         1 UNK         0.0600 
    220 H220       -5.6049  -22.8719  -51.2079 H         1 UNK         0.3000 
    221 H221       -6.7385  -22.0014  -53.7016 H         1 UNK         0.0600 
    222 H222       -6.0374  -24.8360  -52.7842 H         1 UNK         0.0600 
    223 H223       -7.5525  -24.0042  -52.4373 H         1 UNK         0.0600 
    224 H224       -7.1217  -24.3994  -54.0950 H         1 UNK         0.0600 
    225 H225       -3.5401  -23.2778  -52.7726 H         1 UNK         0.3000 
    226 H226       -2.6307  -23.4308  -55.5830 H         1 UNK         0.0600 
    227 H227       -1.9029  -25.1351  -53.8535 H         1 UNK         0.0600 
    228 H228       -0.5709  -24.2983  -54.6374 H         1 UNK         0.0600 
    229 H229       -1.0385  -23.8506  -53.0082 H         1 UNK         0.0600 
    230 H230       -2.7131  -21.1663  -52.9280 H         1 UNK         0.3000 
    231 H231       -0.5472  -19.4416  -53.7606 H         1 UNK         0.0600 
    232 H232       -2.9825  -18.8883  -51.9763 H         1 UNK         0.0600 
    233 H233       -1.3639  -19.3380  -51.4326 H         1 UNK         0.0600 
    234 H234       -1.6565  -17.7954  -52.2140 H         1 UNK         0.0600 
    235 H235       -4.1005  -19.3696  -54.1523 H         1 UNK         0.3000 
    236 H236       -5.5299  -18.2981  -55.4514 H         1 UNK         0.0600 
    237 H237       -4.3499  -19.5082  -57.2983 H         1 UNK         0.0600 
    238 H238       -5.0095  -17.9738  -57.8416 H         1 UNK         0.0600 
    239 H239       -3.2849  -18.1227  -57.5321 H         1 UNK         0.0600 
    240 H240       -4.3013  -16.7908  -53.4944 H         1 UNK         0.3000 
    241 H241       -3.3439  -14.2721  -54.4693 H         1 UNK         0.0600 
    242 H242       -6.6201  -15.2376  -54.2612 H         1 UNK         0.3800 
    243 H243       -7.2860  -13.6299  -54.1388 H         1 UNK         0.3800 
    244 H244       -3.1163  -13.6755  -52.0885 H         1 UNK         0.0800 
    245 H245       -2.4012  -15.2173  -52.4545 H         1 UNK         0.0800 
    246 H246       -4.1173  -14.8429  -48.7678 H         1 UNK         0.0800 
    247 H247       -2.8960  -14.0702  -49.7401 H         1 UNK         0.0800 
@<TRIPOS>BOND
     1    1    2 1    
     2    1  127 1    
     3    1  128 1    
     4    1  129 1    
     5    2    3 2    
     6    2    4 am   BACKBONE|DICT|INTERRES
     7    4    5 1    
     8    4  130 1    
     9    5    6 1    
    10    5   65 1    
    11    5  131 1    
    12    6    7 1    
    13    6  132 1    
    14    6  133 1    
    15    7    8 1    
    16    8    9 1    
    17    8  134 1    
    18    8  135 1    
    19    9   10 ar   
    20    9   14 ar   
    21   10   11 ar   
    22   10  136 1    
    23   11   12 ar   
    24   11  126 1    
    25   12   13 ar   
    26   12  137 1    
    27   13   14 ar   
    28   13   15 1    
    29   14  138 1    
    30   15   16 1    
    31   15  139 1    
    32   15  140 1    
    33   16   17 1    
    34   17   18 1    
    35   17  141 1    
    36   17  142 1    
    37   18   19 1    
    38   18   67 1    
    39   18  143 1    
    40   19   20 am   BACKBONE|DICT|INTERRES
    41   19  144 1    
    42   20   21 2    
    43   20   22 1    
    44   22   23 1    
    45   22   24 1    
    46   22  145 1    
    47   23  146 1    
    48   23  147 1    
    49   23  148 1    
    50   24   25 am   BACKBONE|DICT|INTERRES
    51   24  149 1    
    52   25   26 2    
    53   25   27 1    
    54   27   28 1    
    55   27   29 1    
    56   27  150 1    
    57   28  151 1    
    58   28  152 1    
    59   28  153 1    
    60   29   30 am   BACKBONE|DICT|INTERRES
    61   29  154 1    
    62   30   31 2    
    63   30   32 1    
    64   32   33 1    
    65   32   34 1    
    66   32  155 1    
    67   33  156 1    
    68   33  157 1    
    69   33  158 1    
    70   34   35 am   BACKBONE|DICT|INTERRES
    71   34  159 1    
    72   35   36 2    
    73   35   37 1    
    74   37   38 1    
    75   37   39 1    
    76   37  160 1    
    77   38  161 1    
    78   38  162 1    
    79   38  163 1    
    80   39   40 am   BACKBONE|DICT|INTERRES
    81   39  164 1    
    82   40   41 2    
    83   40   42 1    
    84   42   43 1    
    85   42   44 1    
    86   42  165 1    
    87   43  166 1    
    88   43  167 1    
    89   43  168 1    
    90   44   45 am   BACKBONE|DICT|INTERRES
    91   44  169 1    
    92   45   46 2    
    93   45   47 1    
    94   47   48 1    
    95   47   49 1    
    96   47  170 1    
    97   48  171 1    
    98   48  172 1    
    99   48  173 1    
   100   49   50 am   BACKBONE|DICT|INTERRES
   101   49  174 1    
   102   50   51 2    
   103   50   52 1    
   104   52   53 1    
   105   52   54 1    
   106   52  175 1    
   107   53  176 1    
   108   53  177 1    
   109   53  178 1    
   110   54   55 am   BACKBONE|DICT|INTERRES
   111   54  179 1    
   112   55   56 2    
   113   55   57 1    
   114   57   58 1    
   115   57   59 1    
   116   57  180 1    
   117   58  181 1    
   118   58  182 1    
   119   58  183 1    
   120   59   60 am   BACKBONE|DICT|INTERRES
   121   59  184 1    
   122   60   61 2    
   123   60   62 1    
   124   62   63 1    
   125   62   64 1    
   126   62  185 1    
   127   63  186 1    
   128   63  187 1    
   129   63  188 1    
   130   64   65 am   BACKBONE|DICT|INTERRES
   131   64  189 1    
   132   65   66 2    
   133   67   68 2    
   134   67   69 am   BACKBONE|DICT|INTERRES
   135   69   70 1    
   136   69  190 1    
   137   70   71 1    
   138   70   72 1    
   139   70  191 1    
   140   71  192 1    
   141   71  193 1    
   142   71  194 1    
   143   72   73 2    
   144   72   74 am   BACKBONE|DICT|INTERRES
   145   74   75 1    
   146   74  195 1    
   147   75   76 1    
   148   75   77 1    
   149   75  196 1    
   150   76  197 1    
   151   76  198 1    
   152   76  199 1    
   153   77   78 2    
   154   77   79 am   BACKBONE|DICT|INTERRES
   155   79   80 1    
   156   79  200 1    
   157   80   81 1    
   158   80   82 1    
   159   80  201 1    
   160   81  202 1    
   161   81  203 1    
   162   81  204 1    
   163   82   83 2    
   164   82   84 am   BACKBONE|DICT|INTERRES
   165   84   85 1    
   166   84  205 1    
   167   85   86 1    
   168   85   87 1    
   169   85  206 1    
   170   86  207 1    
   171   86  208 1    
   172   86  209 1    
   173   87   88 2    
   174   87   89 am   BACKBONE|DICT|INTERRES
   175   89   90 1    
   176   89  210 1    
   177   90   91 1    
   178   90   92 1    
   179   90  211 1    
   180   91  212 1    
   181   91  213 1    
   182   91  214 1    
   183   92   93 2    
   184   92   94 am   BACKBONE|DICT|INTERRES
   185   94   95 1    
   186   94  215 1    
   187   95   96 1    
   188   95   97 1    
   189   95  216 1    
   190   96  217 1    
   191   96  218 1    
   192   96  219 1    
   193   97   98 2    
   194   97   99 am   BACKBONE|DICT|INTERRES
   195   99  100 1    
   196   99  220 1    
   197  100  101 1    
   198  100  102 1    
   199  100  221 1    
   200  101  222 1    
   201  101  223 1    
   202  101  224 1    
   203  102  103 2    
   204  102  104 am   BACKBONE|DICT|INTERRES
   205  104  105 1    
   206  104  225 1    
   207  105  106 1    
   208  105  107 1    
   209  105  226 1    
   210  106  227 1    
   211  106  228 1    
   212  106  229 1    
   213  107  108 2    
   214  107  109 am   BACKBONE|DICT|INTERRES
   215  109  110 1    
   216  109  230 1    
   217  110  111 1    
   218  110  112 1    
   219  110  231 1    
   220  111  232 1    
   221  111  233 1    
   222  111  234 1    
   223  112  113 2    
   224  112  114 am   BACKBONE|DICT|INTERRES
   225  114  115 1    
   226  114  235 1    
   227  115  116 1    
   228  115  117 1    
   229  115  236 1    
   230  116  237 1    
   231  116  238 1    
   232  116  239 1    
   233  117  118 2    
   234  117  119 am   BACKBONE|DICT|INTERRES
   235  119  120 1    
   236  119  240 1    
   237  120  121 1    
   238  120  124 1    
   239  120  241 1    
   240  121  122 am   BACKBONE|DICT|INTERRES
   241  121  123 2    
   242  122  242 1    
   243  122  243 1    
   244  124  125 1    
   245  124  244 1    
   246  124  245 1    
   247  125  126 1    
   248  126  246 1    
   249  126  247 1    
@<TRIPOS>SUBSTRUCTURE
     1 UNK         1 GROUP             0       ****    0 ROOT    
