@<TRIPOS>MOLECULE
3R540
247   249    1
SMALL
USER_CHARGES


@<TRIPOS>ATOM
      1 CA          1.9710  -13.9490  -45.0411 C.3       0 UNK        -0.1800 
      2 C           1.2923  -14.2353  -46.3733 C.2       0 UNK         0.5000 
      3 O           0.3547  -15.0282  -46.4250 O.2       0 UNK        -0.5000 
      4 N           1.7825  -13.6276  -47.4621 N.am      1 UNK        -0.5000 
      5 CA          1.3081  -13.7635  -48.8502 C.3       1 UNK         0.1400 
      6 C6         -0.1916  -13.4004  -49.0277 C.3       23 UNK        -0.0398 
      7 S7         -0.5495  -12.7140  -50.6814 S.3       23 UNK        -0.2404 
      8 C8         -2.0729  -13.5986  -51.1493 C.3       23 UNK        -0.0205 
      9 C9         -1.8695  -15.1036  -51.2285 C.ar      23 UNK        -0.0193 
     10 C10        -0.9745  -15.6446  -52.1527 C.ar      23 UNK        -0.1150 
     11 C11        -0.7659  -17.0240  -52.2195 C.ar      23 UNK        -0.0193 
     12 C12        -1.4680  -17.8661  -51.3514 C.ar      23 UNK        -0.1150 
     13 C13        -2.3570  -17.3361  -50.4087 C.ar      23 UNK        -0.0193 
     14 C14        -2.5630  -15.9544  -50.3654 C.ar      23 UNK        -0.1150 
     15 C15        -3.0868  -18.2509  -49.4328 C.3       23 UNK        -0.0205 
     16 S16        -2.7936  -17.7725  -47.6968 S.3       23 UNK        -0.2404 
     17 C17        -3.4632  -19.2184  -46.8083 C.3       23 UNK        -0.0398 
     18 CA         -2.3469  -20.2423  -46.5075 C.3       11 UNK         0.1400 
     19 N          -1.3437  -19.7393  -45.5697 N.am      11 UNK        -0.5000 
     20 C          -0.1196  -20.2680  -45.4475 C.2       10 UNK         0.5000 
     21 O           0.2662  -21.2519  -46.0786 O.2       10 UNK        -0.5000 
     22 CA          0.8155  -19.6060  -44.4258 C.3       10 UNK         0.1400 
     23 CB          1.2422  -18.2072  -44.9057 C.3       10 UNK        -0.1800 
     24 N           0.2100  -19.5117  -43.0994 N.am      10 UNK        -0.5000 
     25 C          -0.2200  -20.5498  -42.3676 C.2       9 UNK         0.5000 
     26 O          -0.1595  -21.7242  -42.7316 O.2       9 UNK        -0.5000 
     27 CA         -0.8641  -20.2116  -41.0131 C.3       9 UNK         0.1400 
     28 CB          0.2090  -19.9359  -39.9480 C.3       9 UNK        -0.1800 
     29 N          -1.7680  -19.0664  -41.1097 N.am      9 UNK        -0.5000 
     30 C          -2.9375  -19.0785  -41.7656 C.2       8 UNK         0.5000 
     31 O          -3.3986  -20.0679  -42.3317 O.2       8 UNK        -0.5000 
     32 CA         -3.6929  -17.7405  -41.8446 C.3       8 UNK         0.1400 
     33 CB         -4.4486  -17.4599  -40.5369 C.3       8 UNK        -0.1800 
     34 N          -2.8012  -16.6207  -42.1438 N.am      8 UNK        -0.5000 
     35 C          -2.1031  -16.4964  -43.2813 C.2       7 UNK         0.5000 
     36 O          -2.1708  -17.2929  -44.2173 O.2       7 UNK        -0.5000 
     37 CA         -1.1268  -15.3109  -43.3580 C.3       7 UNK         0.1400 
     38 CB         -1.8353  -14.0558  -43.8884 C.3       7 UNK        -0.1800 
     39 N          -0.4705  -15.0071  -42.0821 N.am      7 UNK        -0.5000 
     40 C           0.3683  -15.8422  -41.4564 C.2       6 UNK         0.5000 
     41 O           0.6262  -16.9805  -41.8545 O.2       6 UNK        -0.5000 
     42 CA          1.0092  -15.3461  -40.1577 C.3       6 UNK         0.1400 
     43 CB          0.1681  -15.7583  -38.9385 C.3       6 UNK        -0.1800 
     44 N           2.3342  -15.9455  -40.0695 N.am      6 UNK        -0.5000 
     45 C           3.4171  -15.3725  -39.5362 C.2       5 UNK         0.5000 
     46 O           3.3964  -14.2908  -38.9469 O.2       5 UNK        -0.5000 
     47 CA          4.7567  -16.1234  -39.6909 C.3       5 UNK         0.1400 
     48 CB          5.0745  -16.9134  -38.4117 C.3       5 UNK        -0.1800 
     49 N           4.8251  -17.0364  -40.8393 N.am      5 UNK        -0.5000 
     50 C           4.7493  -16.6717  -42.1266 C.2       4 UNK         0.5000 
     51 O           4.5576  -15.5101  -42.4988 O.2       4 UNK        -0.5000 
     52 CA          4.9213  -17.7882  -43.1728 C.3       4 UNK         0.1400 
     53 CB          4.0230  -19.0087  -42.8873 C.3       4 UNK        -0.1800 
     54 N           4.6571  -17.2154  -44.4922 N.am      4 UNK        -0.5000 
     55 C           5.1225  -17.6731  -45.6596 C.2       3 UNK         0.5000 
     56 O           5.6730  -18.7669  -45.7965 O.2       3 UNK        -0.5000 
     57 CA          4.9890  -16.7067  -46.8542 C.3       3 UNK         0.1400 
     58 CB          6.1711  -16.8144  -47.8403 C.3       3 UNK        -0.1800 
     59 N           3.7026  -16.8092  -47.5498 N.am      3 UNK        -0.5000 
     60 C           3.2313  -17.8068  -48.3161 C.2       2 UNK         0.5000 
     61 O           3.8270  -18.8649  -48.5154 O.2       2 UNK        -0.5000 
     62 CA          1.8619  -17.5747  -49.0004 C.3       2 UNK         0.1400 
     63 CB          0.8146  -18.5954  -48.5257 C.3       2 UNK        -0.1800 
     64 N           1.3421  -16.2221  -48.7792 N.am      2 UNK        -0.5000 
     65 C           1.6930  -15.1290  -49.4688 C.2       1 UNK         0.5000 
     66 O           2.3769  -15.1628  -50.4922 O.2       1 UNK        -0.5000 
     67 C          -2.9117  -21.6106  -46.0842 C.2       11 UNK         0.5000 
     68 O          -3.2568  -22.3940  -46.9671 O.2       11 UNK        -0.5000 
     69 N          -2.9519  -21.9153  -44.7776 N.am      12 UNK        -0.5000 
     70 CA         -3.2900  -23.2496  -44.2746 C.3       12 UNK         0.1400 
     71 CB         -3.5014  -23.2170  -42.7540 C.3       12 UNK        -0.1800 
     72 C          -2.2295  -24.2971  -44.6580 C.2       12 UNK         0.5000 
     73 O          -2.5888  -25.3659  -45.1523 O.2       12 UNK        -0.5000 
     74 N          -0.9460  -23.9562  -44.4699 N.am      13 UNK        -0.5000 
     75 CA          0.1993  -24.7911  -44.8404 C.3       13 UNK         0.1400 
     76 CB          1.4882  -24.1737  -44.2767 C.3       13 UNK        -0.1800 
     77 C           0.3167  -25.0081  -46.3608 C.2       13 UNK         0.5000 
     78 O           0.6239  -26.1187  -46.7952 O.2       13 UNK        -0.5000 
     79 N           0.0401  -23.9543  -47.1402 N.am      14 UNK        -0.5000 
     80 CA          0.0298  -23.9777  -48.6039 C.3       14 UNK         0.1400 
     81 CB          0.1762  -22.5375  -49.1230 C.3       14 UNK        -0.1800 
     82 C          -1.2276  -24.6328  -49.2112 C.2       14 UNK         0.5000 
     83 O          -1.2627  -24.8190  -50.4274 O.2       14 UNK        -0.5000 
     84 N          -2.2494  -24.9184  -48.3878 N.am      15 UNK        -0.5000 
     85 CA         -3.5814  -25.4150  -48.7625 C.3       15 UNK         0.1400 
     86 CB         -3.4971  -26.8643  -49.2836 C.3       15 UNK        -0.1800 
     87 C          -4.2988  -24.4609  -49.7425 C.2       15 UNK         0.5000 
     88 O          -4.8316  -24.8912  -50.7676 O.2       15 UNK        -0.5000 
     89 N          -4.2215  -23.1575  -49.4345 N.am      16 UNK        -0.5000 
     90 CA         -4.6715  -22.0113  -50.2321 C.3       16 UNK         0.1400 
     91 CB         -6.2092  -21.9448  -50.2590 C.3       16 UNK        -0.1800 
     92 C          -4.0440  -21.9722  -51.6430 C.2       16 UNK         0.5000 
     93 O          -4.6933  -21.5371  -52.5979 O.2       16 UNK        -0.5000 
     94 N          -2.8110  -22.4927  -51.7513 N.am      17 UNK        -0.5000 
     95 CA         -2.0256  -22.7210  -52.9704 C.3       17 UNK         0.1400 
     96 CB         -1.6513  -21.3769  -53.6243 C.3       17 UNK        -0.1800 
     97 C          -2.6882  -23.6946  -53.9718 C.2       17 UNK         0.5000 
     98 O          -2.2862  -23.7293  -55.1354 O.2       17 UNK        -0.5000 
     99 N          -3.7148  -24.4351  -53.5184 N.am      18 UNK        -0.5000 
    100 CA        -4.6525  -25.2467  -54.3035 C.3       18 UNK         0.1400 
    101 CB        -3.9382  -26.4689  -54.9159 C.3       18 UNK        -0.1800 
    102 C         -5.4453  -24.4285  -55.3519 C.2       18 UNK         0.5000 
    103 O         -5.9584  -25.0040  -56.3131 O.2       18 UNK        -0.5000 
    104 N         -5.5229  -23.1045  -55.1557 N.am      19 UNK        -0.5000 
    105 CA        -6.0588  -22.1359  -56.1136 C.3       19 UNK         0.1400 
    106 CB        -4.8807  -21.3115  -56.6632 C.3       19 UNK        -0.1800 
    107 C         -7.1178  -21.2085  -55.4915 C.2       19 UNK         0.5000 
    108 O         -7.6710  -20.3771  -56.2117 O.2       19 UNK        -0.5000 
    109 N         -7.3700  -21.3523  -54.1802 N.am      20 UNK        -0.5000 
    110 CA        -8.1534  -20.4476  -53.3298 C.3       20 UNK         0.1400 
    111 CB        -9.6323  -20.3839  -53.7690 C.3       20 UNK        -0.1800 
    112 C         -7.4743  -19.0645  -53.2183 C.2       20 UNK         0.5000 
    113 O         -8.1249  -18.0365  -53.4144 O.2       20 UNK        -0.5000 
    114 N         -6.1672  -19.1022  -52.9126 N.am      21 UNK        -0.5000 
    115 CA        -5.1773  -18.0197  -52.8951 C.3       21 UNK         0.1400 
    116 CB        -5.6548  -16.7832  -52.1074 C.3       21 UNK        -0.1800 
    117 C         -4.6941  -17.6506  -54.3095 C.2       21 UNK         0.5000 
    118 O         -5.4304  -17.7974  -55.2872 O.2       21 UNK        -0.5000 
    119 N         -3.4384  -17.1997  -54.3928 N.am      22 UNK        -0.5000 
    120 CA        -2.7652  -16.8373  -55.6486 C.3       22 UNK         0.1400 
    121 C         -3.3293  -15.5334  -56.2782 C.2       22 UNK         0.5000 
    122 N         -3.3893  -15.4516  -57.6006 N.am      22 UNK        -0.7600 
    123 O         -3.6692  -14.5787  -55.5826 O.2       22 UNK        -0.5000 
    124 C124       -1.2279  -16.7341  -55.4774 C.3       23 UNK        -0.0398 
    125 S125       -0.4958  -18.2312  -54.7272 S.3       23 UNK        -0.2404 
    126 C126        0.2560  -17.5912  -53.1954 C.3       23 UNK        -0.0205 
    127 H127        2.9078  -13.4071  -45.1715 H         1 UNK         0.0600 
    128 H128        2.1886  -14.8821  -44.5208 H         1 UNK         0.0600 
    129 H129        1.3166  -13.3521  -44.4067 H         1 UNK         0.0600 
    130 H130        2.5643  -12.9964  -47.3495 H         1 UNK         0.3000 
    131 H131        1.8888  -13.0149  -49.3921 H         1 UNK         0.0600 
    132 H132       -0.4731  -12.6302  -48.3087 H         1 UNK         0.0800 
    133 H133       -0.8339  -14.2535  -48.8052 H         1 UNK         0.0800 
    134 H134       -2.4086  -13.2361  -52.1219 H         1 UNK         0.0800 
    135 H135       -2.8619  -13.3477  -50.4387 H         1 UNK         0.0800 
    136 H136       -0.4211  -14.9820  -52.8031 H         1 UNK         0.1150 
    137 H137       -1.2982  -18.9323  -51.3917 H         1 UNK         0.1150 
    138 H138       -3.2506  -15.5418  -49.6406 H         1 UNK         0.1150 
    139 H139       -4.1569  -18.2241  -49.6418 H         1 UNK         0.0800 
    140 H140       -2.7602  -19.2817  -49.5731 H         1 UNK         0.0800 
    141 H141       -4.2596  -19.6623  -47.4086 H         1 UNK         0.0800 
    142 H142       -3.9292  -18.8773  -45.8823 H         1 UNK         0.0800 
    143 H143       -1.8306  -20.4235  -47.4522 H         1 UNK         0.0600 
    144 H144       -1.5930  -18.9109  -45.0333 H         1 UNK         0.3000 
    145 H145        1.7063  -20.2293  -44.3338 H         1 UNK         0.0600 
    146 H146        1.7756  -17.6486  -44.1402 H         1 UNK         0.0600 
    147 H147        1.9112  -18.2898  -45.7597 H         1 UNK         0.0600 
    148 H148        0.3903  -17.5989  -45.2096 H         1 UNK         0.0600 
    149 H149        0.1566  -18.5803  -42.6952 H         1 UNK         0.3000 
    150 H150       -1.4458  -21.0785  -40.6927 H         1 UNK         0.0600 
    151 H151        0.8722  -20.7944  -39.8346 H         1 UNK         0.0600 
    152 H152       -0.2420  -19.7435  -38.9744 H         1 UNK         0.0600 
    153 H153        0.8291  -19.0772  -40.2055 H         1 UNK         0.0600 
    154 H154       -1.4389  -18.1947  -40.7238 H         1 UNK         0.3000 
    155 H155       -4.4230  -17.8166  -42.6533 H         1 UNK         0.0600 
    156 H156       -3.7679  -17.3410  -39.6929 H         1 UNK         0.0600 
    157 H157       -5.1292  -18.2779  -40.2973 H         1 UNK         0.0600 
    158 H158       -5.0479  -16.5526  -40.6153 H         1 UNK         0.0600 
    159 H159       -2.6824  -15.9219  -41.4257 H         1 UNK         0.3000 
    160 H160       -0.3449  -15.5910  -44.0622 H         1 UNK         0.0600 
    161 H161       -2.6251  -13.7218  -43.2146 H         1 UNK         0.0600 
    162 H162       -2.2905  -14.2512  -44.8606 H         1 UNK         0.0600 
    163 H163       -1.1351  -13.2316  -44.0218 H         1 UNK         0.0600 
    164 H164       -0.6455  -14.0935  -41.6890 H         1 UNK         0.3000 
    165 H165        1.0922  -14.2580  -40.2006 H         1 UNK         0.0600 
    166 H166        0.6217  -15.4068  -38.0117 H         1 UNK         0.0600 
    167 H167       -0.8347  -15.3329  -38.9913 H         1 UNK         0.0600 
    168 H168        0.0644  -16.8419  -38.8686 H         1 UNK         0.0600 
    169 H169        2.4344  -16.8102  -40.5848 H         1 UNK         0.3000 
    170 H170        5.5336  -15.3680  -39.8254 H         1 UNK         0.0600 
    171 H171        5.0643  -16.2623  -37.5364 H         1 UNK         0.0600 
    172 H172        4.3463  -17.7069  -38.2385 H         1 UNK         0.0600 
    173 H173        6.0637  -17.3688  -38.4632 H         1 UNK         0.0600 
    174 H174        4.9792  -18.0099  -40.6207 H         1 UNK         0.3000 
    175 H175        5.9662  -18.1038  -43.1426 H         1 UNK         0.0600 
    176 H176        3.0107  -18.7159  -42.6119 H         1 UNK         0.0600 
    177 H177        3.9657  -19.6767  -43.7462 H         1 UNK         0.0600 
    178 H178        4.4193  -19.5951  -42.0582 H         1 UNK         0.0600 
    179 H179        4.2663  -16.2827  -44.4390 H         1 UNK         0.3000 
    180 H180        5.0221  -15.6944  -46.4475 H         1 UNK         0.0600 
    181 H181        6.2364  -17.8002  -48.3012 H         1 UNK         0.0600 
    182 H182        7.1177  -16.6341  -47.3296 H         1 UNK         0.0600 
    183 H183        6.0867  -16.0769  -48.6384 H         1 UNK         0.0600 
    184 H184        3.1050  -16.0017  -47.4635 H         1 UNK         0.3000 
    185 H185        2.0167  -17.7294  -50.0703 H         1 UNK         0.0600 
    186 H186        1.2354  -19.5960  -48.4214 H         1 UNK         0.0600 
    187 H187        0.3829  -18.3126  -47.5682 H         1 UNK         0.0600 
    188 H188       -0.0061  -18.6709  -49.2337 H         1 UNK         0.0600 
    189 H189        0.7885  -16.0781  -47.9376 H         1 UNK         0.3000 
    190 H190       -2.6886  -21.2196  -44.0902 H         1 UNK         0.3000 
    191 H191       -4.2335  -23.5530  -44.7335 H         1 UNK         0.0600 
    192 H192       -2.6197  -22.8491  -42.2293 H         1 UNK         0.0600 
    193 H193       -3.7213  -24.2132  -42.3681 H         1 UNK         0.0600 
    194 H194       -4.3425  -22.5768  -42.4888 H         1 UNK         0.0600 
    195 H195       -0.7306  -23.0656  -44.0294 H         1 UNK         0.3000 
    196 H196        0.0617  -25.7700  -44.3764 H         1 UNK         0.0600 
    197 H197        2.3569  -24.7841  -44.5266 H         1 UNK         0.0600 
    198 H198        1.4453  -24.0976  -43.1901 H         1 UNK         0.0600 
    199 H199        1.6632  -23.1731  -44.6736 H         1 UNK         0.0600 
    200 H200       -0.1218  -23.0532  -46.6982 H         1 UNK         0.3000 
    201 H201        0.8929  -24.5511  -48.9481 H         1 UNK         0.0600 
    202 H202        1.0806  -22.0698  -48.7336 H         1 UNK         0.0600 
    203 H203       -0.6725  -21.9182  -48.8342 H         1 UNK         0.0600 
    204 H204        0.2443  -22.5139  -50.2114 H         1 UNK         0.0600 
    205 H205       -2.1315  -24.7030  -47.4064 H         1 UNK         0.3000 
    206 H206       -4.1763  -25.4232  -47.8480 H         1 UNK         0.0600 
    207 H207       -4.4926  -27.2748  -49.4561 H         1 UNK         0.0600 
    208 H208       -2.9990  -27.5125  -48.5626 H         1 UNK         0.0600 
    209 H209       -2.9506  -26.9273  -50.2251 H         1 UNK         0.0600 
    210 H210       -3.7815  -22.9185  -48.5448 H         1 UNK         0.3000 
    211 H211       -4.3130  -21.1234  -49.7118 H         1 UNK         0.0600 
    212 H212       -6.5448  -20.9848  -50.6492 H         1 UNK         0.0600 
    213 H213       -6.6257  -22.0444  -49.2566 H         1 UNK         0.0600 
    214 H214       -6.6393  -22.7310  -50.8805 H         1 UNK         0.0600 
    215 H215       -2.4088  -22.9030  -50.9194 H         1 UNK         0.3000 
    216 H216       -1.0999  -23.2025  -52.6532 H         1 UNK         0.0600 
    217 H217       -0.9718  -21.5218  -54.4648 H         1 UNK         0.0600 
    218 H218       -1.1435  -20.7258  -52.9142 H         1 UNK         0.0600 
    219 H219       -2.5255  -20.8459  -54.0019 H         1 UNK         0.0600 
    220 H220       -3.9481  -24.3673  -52.5326 H         1 UNK         0.3000 
    221 H221       -5.3916  -25.6193  -53.5930 H         1 UNK         0.0600 
    222 H222       -3.2338  -26.1789  -55.6958 H         1 UNK         0.0600 
    223 H223       -3.3885  -27.0247  -54.1562 H         1 UNK         0.0600 
    224 H224       -4.6551  -27.1578  -55.3640 H         1 UNK         0.0600 
    225 H225       -5.0669  -22.7136  -54.3390 H         1 UNK         0.3000 
    226 H226       -6.5429  -22.6467  -56.9481 H         1 UNK         0.0600 
    227 H227       -4.1361  -21.9532  -57.1347 H         1 UNK         0.0600 
    228 H228       -5.2154  -20.5950  -57.4144 H         1 UNK         0.0600 
    229 H229       -4.3835  -20.7483  -55.8719 H         1 UNK         0.0600 
    230 H230       -6.8606  -22.0737  -53.6905 H         1 UNK         0.3000 
    231 H231       -8.1417  -20.8804  -52.3298 H         1 UNK         0.0600 
    232 H232      -10.0631  -21.3818  -53.8491 H         1 UNK         0.0600 
    233 H233       -9.7564  -19.8861  -54.7308 H         1 UNK         0.0600 
    234 H234      -10.2270  -19.8309  -53.0412 H         1 UNK         0.0600 
    235 H235       -5.7498  -20.0261  -52.8302 H         1 UNK         0.3000 
    236 H236       -4.3202  -18.4366  -52.3646 H         1 UNK         0.0600 
    237 H237       -4.8459  -16.0620  -51.9940 H         1 UNK         0.0600 
    238 H238       -6.4673  -16.2620  -52.6130 H         1 UNK         0.0600 
    239 H239       -5.9940  -17.0546  -51.1079 H         1 UNK         0.0600 
    240 H240       -2.8884  -17.0862  -53.5533 H         1 UNK         0.3000 
    241 H241       -2.9571  -17.6509  -56.3516 H         1 UNK         0.0600 
    242 H242       -3.7385  -14.6049  -58.0225 H         1 UNK         0.3800 
    243 H243       -3.1102  -16.2184  -58.1934 H         1 UNK         0.3800 
    244 H244       -0.7553  -16.5946  -56.4511 H         1 UNK         0.0800 
    245 H245       -0.9616  -15.8529  -54.8951 H         1 UNK         0.0800 
    246 H246        0.8038  -18.4010  -52.7113 H         1 UNK         0.0800 
    247 H247        1.0014  -16.8354  -53.4484 H         1 UNK         0.0800 
@<TRIPOS>BOND
     1    1    2 1    
     2    1  127 1    
     3    1  128 1    
     4    1  129 1    
     5    2    3 2    
     6    2    4 am   BACKBONE|DICT|INTERRES
     7    4    5 1    
     8    4  130 1    
     9    5    6 1    
    10    5   65 1    
    11    5  131 1    
    12    6    7 1    
    13    6  132 1    
    14    6  133 1    
    15    7    8 1    
    16    8    9 1    
    17    8  134 1    
    18    8  135 1    
    19    9   10 ar   
    20    9   14 ar   
    21   10   11 ar   
    22   10  136 1    
    23   11   12 ar   
    24   11  126 1    
    25   12   13 ar   
    26   12  137 1    
    27   13   14 ar   
    28   13   15 1    
    29   14  138 1    
    30   15   16 1    
    31   15  139 1    
    32   15  140 1    
    33   16   17 1    
    34   17   18 1    
    35   17  141 1    
    36   17  142 1    
    37   18   19 1    
    38   18   67 1    
    39   18  143 1    
    40   19   20 am   BACKBONE|DICT|INTERRES
    41   19  144 1    
    42   20   21 2    
    43   20   22 1    
    44   22   23 1    
    45   22   24 1    
    46   22  145 1    
    47   23  146 1    
    48   23  147 1    
    49   23  148 1    
    50   24   25 am   BACKBONE|DICT|INTERRES
    51   24  149 1    
    52   25   26 2    
    53   25   27 1    
    54   27   28 1    
    55   27   29 1    
    56   27  150 1    
    57   28  151 1    
    58   28  152 1    
    59   28  153 1    
    60   29   30 am   BACKBONE|DICT|INTERRES
    61   29  154 1    
    62   30   31 2    
    63   30   32 1    
    64   32   33 1    
    65   32   34 1    
    66   32  155 1    
    67   33  156 1    
    68   33  157 1    
    69   33  158 1    
    70   34   35 am   BACKBONE|DICT|INTERRES
    71   34  159 1    
    72   35   36 2    
    73   35   37 1    
    74   37   38 1    
    75   37   39 1    
    76   37  160 1    
    77   38  161 1    
    78   38  162 1    
    79   38  163 1    
    80   39   40 am   BACKBONE|DICT|INTERRES
    81   39  164 1    
    82   40   41 2    
    83   40   42 1    
    84   42   43 1    
    85   42   44 1    
    86   42  165 1    
    87   43  166 1    
    88   43  167 1    
    89   43  168 1    
    90   44   45 am   BACKBONE|DICT|INTERRES
    91   44  169 1    
    92   45   46 2    
    93   45   47 1    
    94   47   48 1    
    95   47   49 1    
    96   47  170 1    
    97   48  171 1    
    98   48  172 1    
    99   48  173 1    
   100   49   50 am   BACKBONE|DICT|INTERRES
   101   49  174 1    
   102   50   51 2    
   103   50   52 1    
   104   52   53 1    
   105   52   54 1    
   106   52  175 1    
   107   53  176 1    
   108   53  177 1    
   109   53  178 1    
   110   54   55 am   BACKBONE|DICT|INTERRES
   111   54  179 1    
   112   55   56 2    
   113   55   57 1    
   114   57   58 1    
   115   57   59 1    
   116   57  180 1    
   117   58  181 1    
   118   58  182 1    
   119   58  183 1    
   120   59   60 am   BACKBONE|DICT|INTERRES
   121   59  184 1    
   122   60   61 2    
   123   60   62 1    
   124   62   63 1    
   125   62   64 1    
   126   62  185 1    
   127   63  186 1    
   128   63  187 1    
   129   63  188 1    
   130   64   65 am   BACKBONE|DICT|INTERRES
   131   64  189 1    
   132   65   66 2    
   133   67   68 2    
   134   67   69 am   BACKBONE|DICT|INTERRES
   135   69   70 1    
   136   69  190 1    
   137   70   71 1    
   138   70   72 1    
   139   70  191 1    
   140   71  192 1    
   141   71  193 1    
   142   71  194 1    
   143   72   73 2    
   144   72   74 am   BACKBONE|DICT|INTERRES
   145   74   75 1    
   146   74  195 1    
   147   75   76 1    
   148   75   77 1    
   149   75  196 1    
   150   76  197 1    
   151   76  198 1    
   152   76  199 1    
   153   77   78 2    
   154   77   79 am   BACKBONE|DICT|INTERRES
   155   79   80 1    
   156   79  200 1    
   157   80   81 1    
   158   80   82 1    
   159   80  201 1    
   160   81  202 1    
   161   81  203 1    
   162   81  204 1    
   163   82   83 2    
   164   82   84 am   BACKBONE|DICT|INTERRES
   165   84   85 1    
   166   84  205 1    
   167   85   86 1    
   168   85   87 1    
   169   85  206 1    
   170   86  207 1    
   171   86  208 1    
   172   86  209 1    
   173   87   88 2    
   174   87   89 am   BACKBONE|DICT|INTERRES
   175   89   90 1    
   176   89  210 1    
   177   90   91 1    
   178   90   92 1    
   179   90  211 1    
   180   91  212 1    
   181   91  213 1    
   182   91  214 1    
   183   92   93 2    
   184   92   94 am   BACKBONE|DICT|INTERRES
   185   94   95 1    
   186   94  215 1    
   187   95   96 1    
   188   95   97 1    
   189   95  216 1    
   190   96  217 1    
   191   96  218 1    
   192   96  219 1    
   193   97   98 2    
   194   97   99 am   BACKBONE|DICT|INTERRES
   195   99  100 1    
   196   99  220 1    
   197  100  101 1    
   198  100  102 1    
   199  100  221 1    
   200  101  222 1    
   201  101  223 1    
   202  101  224 1    
   203  102  103 2    
   204  102  104 am   BACKBONE|DICT|INTERRES
   205  104  105 1    
   206  104  225 1    
   207  105  106 1    
   208  105  107 1    
   209  105  226 1    
   210  106  227 1    
   211  106  228 1    
   212  106  229 1    
   213  107  108 2    
   214  107  109 am   BACKBONE|DICT|INTERRES
   215  109  110 1    
   216  109  230 1    
   217  110  111 1    
   218  110  112 1    
   219  110  231 1    
   220  111  232 1    
   221  111  233 1    
   222  111  234 1    
   223  112  113 2    
   224  112  114 am   BACKBONE|DICT|INTERRES
   225  114  115 1    
   226  114  235 1    
   227  115  116 1    
   228  115  117 1    
   229  115  236 1    
   230  116  237 1    
   231  116  238 1    
   232  116  239 1    
   233  117  118 2    
   234  117  119 am   BACKBONE|DICT|INTERRES
   235  119  120 1    
   236  119  240 1    
   237  120  121 1    
   238  120  124 1    
   239  120  241 1    
   240  121  122 am   BACKBONE|DICT|INTERRES
   241  121  123 2    
   242  122  242 1    
   243  122  243 1    
   244  124  125 1    
   245  124  244 1    
   246  124  245 1    
   247  125  126 1    
   248  126  246 1    
   249  126  247 1    
@<TRIPOS>SUBSTRUCTURE
     1 UNK         1 GROUP             0       ****    0 ROOT    
