@<TRIPOS>MOLECULE
3R540
247   249    1
SMALL
USER_CHARGES


@<TRIPOS>ATOM
      1 CA          2.3214  -16.0928  -51.0635 C.3       0 UNK        -0.1800 
      2 C           1.7451  -15.2955  -49.9021 C.2       0 UNK         0.5000 
      3 O           2.5011  -14.7463  -49.1006 O.2       0 UNK        -0.5000 
      4 N           0.4121  -15.2365  -49.8069 N.am      1 UNK        -0.5000 
      5 CA         -0.3317  -14.4623  -48.8116 C.3       1 UNK         0.1400 
      6 C6         -1.8223  -14.8903  -48.6978 C.3       23 UNK        -0.0398 
      7 S7         -2.6814  -15.1889  -50.2885 S.3       23 UNK        -0.2404 
      8 C8         -3.0010  -16.9837  -50.2199 C.3       23 UNK        -0.0205 
      9 C9         -1.7330  -17.7965  -50.4398 C.ar      23 UNK        -0.0193 
     10 C10        -1.3397  -18.1530  -51.7326 C.ar      23 UNK        -0.1150 
     11 C11        -0.1565  -18.8687  -51.9449 C.ar      23 UNK        -0.0193 
     12 C12         0.6507  -19.1996  -50.8528 C.ar      23 UNK        -0.1150 
     13 C13         0.2758  -18.8336  -49.5578 C.ar      23 UNK        -0.0193 
     14 C14        -0.9354  -18.1688  -49.3543 C.ar      23 UNK        -0.1150 
     15 C15         1.2117  -19.0828  -48.3851 C.3       23 UNK        -0.0205 
     16 S16         1.4059  -20.8440  -47.9953 S.3       23 UNK        -0.2404 
     17 C17        -0.2841  -21.2474  -47.4610 C.3       23 UNK        -0.0398 
     18 CA         -0.3621  -22.6837  -46.9076 C.3       11 UNK         0.1400 
     19 N           0.3760  -22.8409  -45.6539 N.am      11 UNK        -0.5000 
     20 C           0.8066  -24.0131  -45.1729 C.2       10 UNK         0.5000 
     21 O           0.6216  -25.0922  -45.7350 O.2       10 UNK        -0.5000 
     22 CA          1.5185  -23.9707  -43.8089 C.3       10 UNK         0.1400 
     23 CB          2.9797  -23.5264  -43.9731 C.3       10 UNK        -0.1800 
     24 N           0.8450  -23.0890  -42.8524 N.am      10 UNK        -0.5000 
     25 C          -0.3910  -23.2990  -42.3801 C.2       9 UNK         0.5000 
     26 O          -1.0824  -24.2698  -42.6869 O.2       9 UNK        -0.5000 
     27 CA         -0.9723  -22.2285  -41.4395 C.3       9 UNK         0.1400 
     28 CB         -0.5470  -22.5027  -39.9894 C.3       9 UNK        -0.1800 
     29 N          -0.6387  -20.8422  -41.7863 N.am      9 UNK        -0.5000 
     30 C          -0.8773  -20.2413  -42.9614 C.2       8 UNK         0.5000 
     31 O          -1.2439  -20.8340  -43.9764 O.2       8 UNK        -0.5000 
     32 CA         -0.6678  -18.7216  -43.0108 C.3       8 UNK         0.1400 
     33 CB         -1.0577  -18.0116  -41.6959 C.3       8 UNK        -0.1800 
     34 N           0.7187  -18.4299  -43.3624 N.am      8 UNK        -0.5000 
     35 C           1.1346  -17.2817  -43.9075 C.2       7 UNK         0.5000 
     36 O           0.3871  -16.3413  -44.1878 O.2       7 UNK        -0.5000 
     37 CA          2.6341  -17.1720  -44.2146 C.3       7 UNK         0.1400 
     38 CB          2.9436  -17.7459  -45.6103 C.3       7 UNK        -0.1800 
     39 N           3.0238  -15.7679  -44.1333 N.am      7 UNK        -0.5000 
     40 C           4.2759  -15.2960  -44.1399 C.2       6 UNK         0.5000 
     41 O           5.2800  -16.0014  -44.2458 O.2       6 UNK        -0.5000 
     42 CA          4.4318  -13.7781  -43.9536 C.3       6 UNK         0.1400 
     43 CB          4.0038  -13.0121  -45.2173 C.3       6 UNK        -0.1800 
     44 N           3.6621  -13.3167  -42.7979 N.am      6 UNK        -0.5000 
     45 C           4.0688  -13.4575  -41.5259 C.2       5 UNK         0.5000 
     46 O           5.1643  -13.9244  -41.2110 O.2       5 UNK        -0.5000 
     47 CA          3.1081  -13.0006  -40.4091 C.3       5 UNK         0.1400 
     48 CB          3.4785  -11.5889  -39.9286 C.3       5 UNK        -0.1800 
     49 N           1.7037  -13.0061  -40.8127 N.am      5 UNK        -0.5000 
     50 C           0.9698  -14.1037  -41.0422 C.2       4 UNK         0.5000 
     51 O           1.3753  -15.2503  -40.8523 O.2       4 UNK        -0.5000 
     52 CA         -0.4481  -13.8767  -41.6066 C.3       4 UNK         0.1400 
     53 CB         -1.4956  -13.9650  -40.4867 C.3       4 UNK        -0.1800 
     54 N          -0.6106  -12.6040  -42.3222 N.am      4 UNK        -0.5000 
     55 C           0.0545  -12.2753  -43.4366 C.2       3 UNK         0.5000 
     56 O           0.9150  -12.9933  -43.9552 O.2       3 UNK        -0.5000 
     57 CA         -0.2519  -10.9054  -44.0539 C.3       3 UNK         0.1400 
     58 CB          0.5760   -9.7987  -43.3787 C.3       3 UNK        -0.1800 
     59 N           0.0912  -10.9907  -45.4659 N.am      3 UNK        -0.5000 
     60 C          -0.4537  -10.2880  -46.4648 C.2       2 UNK         0.5000 
     61 O          -1.2636   -9.3744  -46.3066 O.2       2 UNK        -0.5000 
     62 CA         -0.0672  -10.7381  -47.8802 C.3       2 UNK         0.1400 
     63 CB          1.3394  -10.2374  -48.2592 C.3       2 UNK        -0.1800 
     64 N          -0.1413  -12.1971  -47.9415 N.am      2 UNK        -0.5000 
     65 C          -0.1879  -12.9437  -49.0481 C.2       1 UNK         0.5000 
     66 O          -0.1464  -12.4872  -50.1935 O.2       1 UNK        -0.5000 
     67 C          -1.8242  -23.1379  -46.7710 C.2       11 UNK         0.5000 
     68 O          -2.3972  -23.5919  -47.7603 O.2       11 UNK        -0.5000 
     69 N          -2.4040  -23.0315  -45.5685 N.am      12 UNK        -0.5000 
     70 CA         -3.7202  -23.5821  -45.2476 C.3       12 UNK         0.1400 
     71 CB         -4.2034  -23.0314  -43.8982 C.3       12 UNK        -0.1800 
     72 C          -3.7058  -25.1215  -45.2563 C.2       12 UNK         0.5000 
     73 O          -4.5944  -25.7303  -45.8516 O.2       12 UNK        -0.5000 
     74 N          -2.6705  -25.7184  -44.6470 N.am      13 UNK        -0.5000 
     75 CA         -2.4338  -27.1635  -44.6195 C.3       13 UNK         0.1400 
     76 CB         -1.2927  -27.4766  -43.6399 C.3       13 UNK        -0.1800 
     77 C          -2.1348  -27.7509  -46.0119 C.2       13 UNK         0.5000 
     78 O          -2.6448  -28.8222  -46.3412 O.2       13 UNK        -0.5000 
     79 N          -1.3408  -27.0277  -46.8142 N.am      14 UNK        -0.5000 
     80 CA         -1.0115  -27.3795  -48.1991 C.3       14 UNK         0.1400 
     81 CB          0.2355  -26.5895  -48.6269 C.3       14 UNK        -0.1800 
     82 C          -2.1629  -27.1288  -49.1957 C.2       14 UNK         0.5000 
     83 O          -2.0773  -27.5876  -50.3348 O.2       14 UNK        -0.5000 
     84 N          -3.1903  -26.3814  -48.7648 N.am      15 UNK        -0.5000 
     85 CA         -4.3522  -25.9057  -49.5255 C.3       15 UNK         0.1400 
     86 CB         -5.1783  -27.0756  -50.0971 C.3       15 UNK        -0.1800 
     87 C          -4.0120  -24.8432  -50.5931 C.2       15 UNK         0.5000 
     88 O          -4.8694  -24.5031  -51.4081 O.2       15 UNK        -0.5000 
     89 N          -2.7982  -24.2804  -50.5362 N.am      16 UNK        -0.5000 
     90 CA         -2.3469  -23.1585  -51.3583 C.3       16 UNK         0.1400 
     91 CB         -0.8375  -22.9539  -51.1582 C.3       16 UNK        -0.1800 
     92 C          -3.1209  -21.8689  -51.0387 C.2       16 UNK         0.5000 
     93 O          -3.5008  -21.1457  -51.9576 O.2       16 UNK        -0.5000 
     94 N          -3.4029  -21.6404  -49.7473 N.am      17 UNK        -0.5000 
     95 CA         -4.2046  -20.5070  -49.2814 C.3       17 UNK         0.1400 
     96 CB         -4.0047  -20.3079  -47.7718 C.3       17 UNK        -0.1800 
     97 C          -5.6991  -20.6511  -49.6196 C.2       17 UNK         0.5000 
     98 O          -6.3777  -19.6394  -49.7950 O.2       17 UNK        -0.5000 
     99 N          -6.1791  -21.8991  -49.7164 N.am      18 UNK        -0.5000 
    100 CA        -7.5370  -22.2264  -50.1484 C.3       18 UNK         0.1400 
    101 CB        -7.8865  -23.6594  -49.7168 C.3       18 UNK        -0.1800 
    102 C         -7.7049  -22.0454  -51.6676 C.2       18 UNK         0.5000 
    103 O         -8.7303  -21.5221  -52.1049 O.2       18 UNK        -0.5000 
    104 N         -6.6902  -22.4636  -52.4386 N.am      19 UNK        -0.5000 
    105 CA        -6.6179  -22.2874  -53.8877 C.3       19 UNK         0.1400 
    106 CB        -5.4655  -23.1331  -54.4526 C.3       19 UNK        -0.1800 
    107 C         -6.4578  -20.8110  -54.2894 C.2       19 UNK         0.5000 
    108 O         -7.1795  -20.3433  -55.1700 O.2       19 UNK        -0.5000 
    109 N         -5.5060  -20.1158  -53.6481 N.am      20 UNK        -0.5000 
    110 CA        -5.1393  -18.6959  -53.7638 C.3       20 UNK         0.1400 
    111 CB        -6.3056  -17.7937  -53.3227 C.3       20 UNK        -0.1800 
    112 C         -4.5778  -18.2486  -55.1318 C.2       20 UNK         0.5000 
    113 O         -3.8140  -17.2830  -55.1792 O.2       20 UNK        -0.5000 
    114 N         -4.9277  -18.9595  -56.2118 N.am      21 UNK        -0.5000 
    115 CA        -4.5414  -18.7148  -57.6056 C.3       21 UNK         0.1400 
    116 CB        -5.2582  -19.7411  -58.4967 C.3       21 UNK        -0.1800 
    117 C         -3.0227  -18.7359  -57.8746 C.2       21 UNK         0.5000 
    118 O         -2.5824  -18.1984  -58.8918 O.2       21 UNK        -0.5000 
    119 N         -2.2519  -19.3305  -56.9566 N.am      22 UNK        -0.5000 
    120 CA        -0.7871  -19.2407  -56.8912 C.3       22 UNK         0.1400 
    121 C         -0.2320  -17.8122  -56.6025 C.2       22 UNK         0.5000 
    122 N         -1.0231  -16.8755  -56.0895 N.am      22 UNK        -0.7600 
    123 O          0.9410  -17.5505  -56.8541 O.2       22 UNK        -0.5000 
    124 C124       -0.1970  -20.2917  -55.9126 C.3       23 UNK        -0.0398 
    125 S125       -0.9284  -20.2479  -54.2356 S.3       23 UNK        -0.2404 
    126 C126        0.2885  -19.2163  -53.3571 C.3       23 UNK        -0.0205 
    127 H127        3.0410  -15.4881  -51.6151 H         1 UNK         0.0600 
    128 H128        1.5444  -16.4109  -51.7589 H         1 UNK         0.0600 
    129 H129        2.8325  -16.9809  -50.6922 H         1 UNK         0.0600 
    130 H130       -0.1612  -15.7013  -50.4972 H         1 UNK         0.3000 
    131 H131        0.1315  -14.6783  -47.8456 H         1 UNK         0.0600 
    132 H132       -2.3976  -14.1477  -48.1417 H         1 UNK         0.0800 
    133 H133       -1.8879  -15.7873  -48.0849 H         1 UNK         0.0800 
    134 H134       -3.7366  -17.2372  -50.9846 H         1 UNK         0.0800 
    135 H135       -3.4605  -17.2389  -49.2638 H         1 UNK         0.0800 
    136 H136       -1.9476  -17.8652  -52.5791 H         1 UNK         0.1150 
    137 H137        1.5879  -19.7151  -51.0088 H         1 UNK         0.1150 
    138 H138       -1.2294  -17.8971  -48.3514 H         1 UNK         0.1150 
    139 H139        0.8564  -18.5601  -47.4965 H         1 UNK         0.0800 
    140 H140        2.1912  -18.6625  -48.6171 H         1 UNK         0.0800 
    141 H141       -0.9352  -21.1269  -48.3279 H         1 UNK         0.0800 
    142 H142       -0.6148  -20.5228  -46.7147 H         1 UNK         0.0800 
    143 H143        0.0931  -23.3444  -47.6481 H         1 UNK         0.0600 
    144 H144        0.5066  -22.0061  -45.1011 H         1 UNK         0.3000 
    145 H145        1.5122  -24.9830  -43.3991 H         1 UNK         0.0600 
    146 H146        3.5086  -24.1776  -44.6704 H         1 UNK         0.0600 
    147 H147        3.5134  -23.5677  -43.0234 H         1 UNK         0.0600 
    148 H148        3.0529  -22.5076  -44.3561 H         1 UNK         0.0600 
    149 H149        1.3462  -22.2682  -42.5476 H         1 UNK         0.3000 
    150 H150       -2.0592  -22.3145  -41.4901 H         1 UNK         0.0600 
    151 H151        0.5284  -22.3799  -39.8551 H         1 UNK         0.0600 
    152 H152       -0.8010  -23.5214  -39.6928 H         1 UNK         0.0600 
    153 H153       -1.0515  -21.8299  -39.2957 H         1 UNK         0.0600 
    154 H154       -0.3203  -20.2650  -41.0216 H         1 UNK         0.3000 
    155 H155       -1.3203  -18.3488  -43.8036 H         1 UNK         0.0600 
    156 H156       -0.3453  -18.2097  -40.8945 H         1 UNK         0.0600 
    157 H157       -2.0448  -18.3258  -41.3540 H         1 UNK         0.0600 
    158 H158       -1.0993  -16.9324  -41.8337 H         1 UNK         0.0600 
    159 H159        1.3843  -19.1701  -43.1904 H         1 UNK         0.3000 
    160 H160        3.1871  -17.7306  -43.4569 H         1 UNK         0.0600 
    161 H161        4.0151  -17.7749  -45.8061 H         1 UNK         0.0600 
    162 H162        2.4790  -17.1488  -46.3957 H         1 UNK         0.0600 
    163 H163        2.5773  -18.7688  -45.7039 H         1 UNK         0.0600 
    164 H164        2.2444  -15.1259  -44.0344 H         1 UNK         0.3000 
    165 H165        5.4886  -13.5629  -43.7806 H         1 UNK         0.0600 
    166 H166        4.6449  -13.2724  -46.0602 H         1 UNK         0.0600 
    167 H167        2.9797  -13.2408  -45.5115 H         1 UNK         0.0600 
    168 H168        4.0789  -11.9344  -45.0718 H         1 UNK         0.0600 
    169 H169        2.7246  -12.9818  -42.9860 H         1 UNK         0.3000 
    170 H170        3.2253  -13.6903  -39.5705 H         1 UNK         0.0600 
    171 H171        2.8539  -11.2806  -39.0899 H         1 UNK         0.0600 
    172 H172        3.3643  -10.8504  -40.7232 H         1 UNK         0.0600 
    173 H173        4.5151  -11.5503  -39.5911 H         1 UNK         0.0600 
    174 H174        1.2791  -12.1071  -40.9846 H         1 UNK         0.3000 
    175 H175       -0.6435  -14.6778  -42.3208 H         1 UNK         0.0600 
    176 H176       -1.4193  -14.9144  -39.9546 H         1 UNK         0.0600 
    177 H177       -1.3698  -13.1667  -39.7543 H         1 UNK         0.0600 
    178 H178       -2.5077  -13.9000  -40.8866 H         1 UNK         0.0600 
    179 H179       -1.2912  -11.9596  -41.9456 H         1 UNK         0.3000 
    180 H180       -1.3183  -10.6975  -43.9440 H         1 UNK         0.0600 
    181 H181        1.6467   -9.9898  -43.4629 H         1 UNK         0.0600 
    182 H182        0.3367   -9.7208  -42.3175 H         1 UNK         0.0600 
    183 H183        0.3745   -8.8261  -43.8279 H         1 UNK         0.0600 
    184 H184        0.7599  -11.7238  -45.6662 H         1 UNK         0.3000 
    185 H185       -0.7956  -10.3187  -48.5776 H         1 UNK         0.0600 
    186 H186        1.4070   -9.1534  -48.1600 H         1 UNK         0.0600 
    187 H187        2.1088  -10.6756  -47.6223 H         1 UNK         0.0600 
    188 H188        1.5838  -10.4823  -49.2928 H         1 UNK         0.0600 
    189 H189       -0.2415  -12.6546  -47.0462 H         1 UNK         0.3000 
    190 H190       -1.8986  -22.5657  -44.8227 H         1 UNK         0.3000 
    191 H191       -4.4239  -23.2534  -46.0147 H         1 UNK         0.0600 
    192 H192       -4.2062  -21.9412  -43.8954 H         1 UNK         0.0600 
    193 H193       -5.2212  -23.3615  -43.6876 H         1 UNK         0.0600 
    194 H194       -3.5756  -23.3673  -43.0740 H         1 UNK         0.0600 
    195 H195       -2.0066  -25.1433  -44.1355 H         1 UNK         0.3000 
    196 H196       -3.3414  -27.6426  -44.2464 H         1 UNK         0.0600 
    197 H197       -1.1044  -28.5496  -43.5878 H         1 UNK         0.0600 
    198 H198       -1.5360  -27.1394  -42.6322 H         1 UNK         0.0600 
    199 H199       -0.3618  -26.9926  -43.9372 H         1 UNK         0.0600 
    200 H200       -0.8899  -26.1997  -46.4371 H         1 UNK         0.3000 
    201 H201       -0.7706  -28.4438  -48.2381 H         1 UNK         0.0600 
    202 H202        0.5479  -26.8634  -49.6354 H         1 UNK         0.0600 
    203 H203        1.0767  -26.7887  -47.9627 H         1 UNK         0.0600 
    204 H204        0.0506  -25.5154  -48.6219 H         1 UNK         0.0600 
    205 H205       -3.1436  -26.0438  -47.8125 H         1 UNK         0.3000 
    206 H206       -4.9817  -25.3936  -48.7964 H         1 UNK         0.0600 
    207 H207       -5.4105  -27.8084  -49.3243 H         1 UNK         0.0600 
    208 H208       -6.1269  -26.7224  -50.5029 H         1 UNK         0.0600 
    209 H209       -4.6544  -27.5894  -50.9031 H         1 UNK         0.0600 
    210 H210       -2.1995  -24.5519  -49.7688 H         1 UNK         0.3000 
    211 H211       -2.5255  -23.4065  -52.4066 H         1 UNK         0.0600 
    212 H212       -0.2764  -23.8337  -51.4732 H         1 UNK         0.0600 
    213 H213       -0.5893  -22.7551  -50.1160 H         1 UNK         0.0600 
    214 H214       -0.4763  -22.1095  -51.7467 H         1 UNK         0.0600 
    215 H215       -3.0904  -22.3127  -49.0539 H         1 UNK         0.3000 
    216 H216       -3.8474  -19.6126  -49.7911 H         1 UNK         0.0600 
    217 H217       -2.9666  -20.0813  -47.5348 H         1 UNK         0.0600 
    218 H218       -4.2985  -21.1916  -47.2065 H         1 UNK         0.0600 
    219 H219       -4.6037  -19.4727  -47.4065 H         1 UNK         0.0600 
    220 H220       -5.5442  -22.6696  -49.5789 H         1 UNK         0.3000 
    221 H221       -8.2323  -21.5473  -49.6500 H         1 UNK         0.0600 
    222 H222       -7.2472  -24.3987  -50.1985 H         1 UNK         0.0600 
    223 H223       -7.7884  -23.7824  -48.6381 H         1 UNK         0.0600 
    224 H224       -8.9171  -23.9015  -49.9789 H         1 UNK         0.0600 
    225 H225       -5.9167  -22.9581  -52.0054 H         1 UNK         0.3000 
    226 H226       -7.5510  -22.6539  -54.3207 H         1 UNK         0.0600 
    227 H227       -5.6126  -24.1915  -54.2366 H         1 UNK         0.0600 
    228 H228       -5.3973  -23.0279  -55.5361 H         1 UNK         0.0600 
    229 H229       -4.5031  -22.8392  -54.0322 H         1 UNK         0.0600 
    230 H230       -4.9184  -20.6277  -52.9916 H         1 UNK         0.3000 
    231 H231       -4.3285  -18.5547  -53.0480 H         1 UNK         0.0600 
    232 H232       -7.1585  -17.8734  -53.9973 H         1 UNK         0.0600 
    233 H233       -6.0018  -16.7464  -53.3017 H         1 UNK         0.0600 
    234 H234       -6.6447  -18.0538  -52.3197 H         1 UNK         0.0600 
    235 H235       -5.6228  -19.6834  -56.0620 H         1 UNK         0.3000 
    236 H236       -4.8995  -17.7185  -57.8715 H         1 UNK         0.0600 
    237 H237       -4.9600  -20.7613  -58.2517 H         1 UNK         0.0600 
    238 H238       -6.3406  -19.6722  -58.3861 H         1 UNK         0.0600 
    239 H239       -5.0293  -19.5750  -59.5502 H         1 UNK         0.0600 
    240 H240       -2.6998  -19.7354  -56.1477 H         1 UNK         0.3000 
    241 H241       -0.4175  -19.4956  -57.8862 H         1 UNK         0.0600 
    242 H242       -1.9891  -17.0771  -55.8485 H         1 UNK         0.3800 
    243 H243       -0.6509  -15.9560  -55.9162 H         1 UNK         0.3800 
    244 H244       -0.3783  -21.2890  -56.3151 H         1 UNK         0.0800 
    245 H245        0.8889  -20.2023  -55.8476 H         1 UNK         0.0800 
    246 H246        1.2467  -19.7378  -53.3437 H         1 UNK         0.0800 
    247 H247        0.4503  -18.2852  -53.8990 H         1 UNK         0.0800 
@<TRIPOS>BOND
     1    1    2 1    
     2    1  127 1    
     3    1  128 1    
     4    1  129 1    
     5    2    3 2    
     6    2    4 am   BACKBONE|DICT|INTERRES
     7    4    5 1    
     8    4  130 1    
     9    5    6 1    
    10    5   65 1    
    11    5  131 1    
    12    6    7 1    
    13    6  132 1    
    14    6  133 1    
    15    7    8 1    
    16    8    9 1    
    17    8  134 1    
    18    8  135 1    
    19    9   10 ar   
    20    9   14 ar   
    21   10   11 ar   
    22   10  136 1    
    23   11   12 ar   
    24   11  126 1    
    25   12   13 ar   
    26   12  137 1    
    27   13   14 ar   
    28   13   15 1    
    29   14  138 1    
    30   15   16 1    
    31   15  139 1    
    32   15  140 1    
    33   16   17 1    
    34   17   18 1    
    35   17  141 1    
    36   17  142 1    
    37   18   19 1    
    38   18   67 1    
    39   18  143 1    
    40   19   20 am   BACKBONE|DICT|INTERRES
    41   19  144 1    
    42   20   21 2    
    43   20   22 1    
    44   22   23 1    
    45   22   24 1    
    46   22  145 1    
    47   23  146 1    
    48   23  147 1    
    49   23  148 1    
    50   24   25 am   BACKBONE|DICT|INTERRES
    51   24  149 1    
    52   25   26 2    
    53   25   27 1    
    54   27   28 1    
    55   27   29 1    
    56   27  150 1    
    57   28  151 1    
    58   28  152 1    
    59   28  153 1    
    60   29   30 am   BACKBONE|DICT|INTERRES
    61   29  154 1    
    62   30   31 2    
    63   30   32 1    
    64   32   33 1    
    65   32   34 1    
    66   32  155 1    
    67   33  156 1    
    68   33  157 1    
    69   33  158 1    
    70   34   35 am   BACKBONE|DICT|INTERRES
    71   34  159 1    
    72   35   36 2    
    73   35   37 1    
    74   37   38 1    
    75   37   39 1    
    76   37  160 1    
    77   38  161 1    
    78   38  162 1    
    79   38  163 1    
    80   39   40 am   BACKBONE|DICT|INTERRES
    81   39  164 1    
    82   40   41 2    
    83   40   42 1    
    84   42   43 1    
    85   42   44 1    
    86   42  165 1    
    87   43  166 1    
    88   43  167 1    
    89   43  168 1    
    90   44   45 am   BACKBONE|DICT|INTERRES
    91   44  169 1    
    92   45   46 2    
    93   45   47 1    
    94   47   48 1    
    95   47   49 1    
    96   47  170 1    
    97   48  171 1    
    98   48  172 1    
    99   48  173 1    
   100   49   50 am   BACKBONE|DICT|INTERRES
   101   49  174 1    
   102   50   51 2    
   103   50   52 1    
   104   52   53 1    
   105   52   54 1    
   106   52  175 1    
   107   53  176 1    
   108   53  177 1    
   109   53  178 1    
   110   54   55 am   BACKBONE|DICT|INTERRES
   111   54  179 1    
   112   55   56 2    
   113   55   57 1    
   114   57   58 1    
   115   57   59 1    
   116   57  180 1    
   117   58  181 1    
   118   58  182 1    
   119   58  183 1    
   120   59   60 am   BACKBONE|DICT|INTERRES
   121   59  184 1    
   122   60   61 2    
   123   60   62 1    
   124   62   63 1    
   125   62   64 1    
   126   62  185 1    
   127   63  186 1    
   128   63  187 1    
   129   63  188 1    
   130   64   65 am   BACKBONE|DICT|INTERRES
   131   64  189 1    
   132   65   66 2    
   133   67   68 2    
   134   67   69 am   BACKBONE|DICT|INTERRES
   135   69   70 1    
   136   69  190 1    
   137   70   71 1    
   138   70   72 1    
   139   70  191 1    
   140   71  192 1    
   141   71  193 1    
   142   71  194 1    
   143   72   73 2    
   144   72   74 am   BACKBONE|DICT|INTERRES
   145   74   75 1    
   146   74  195 1    
   147   75   76 1    
   148   75   77 1    
   149   75  196 1    
   150   76  197 1    
   151   76  198 1    
   152   76  199 1    
   153   77   78 2    
   154   77   79 am   BACKBONE|DICT|INTERRES
   155   79   80 1    
   156   79  200 1    
   157   80   81 1    
   158   80   82 1    
   159   80  201 1    
   160   81  202 1    
   161   81  203 1    
   162   81  204 1    
   163   82   83 2    
   164   82   84 am   BACKBONE|DICT|INTERRES
   165   84   85 1    
   166   84  205 1    
   167   85   86 1    
   168   85   87 1    
   169   85  206 1    
   170   86  207 1    
   171   86  208 1    
   172   86  209 1    
   173   87   88 2    
   174   87   89 am   BACKBONE|DICT|INTERRES
   175   89   90 1    
   176   89  210 1    
   177   90   91 1    
   178   90   92 1    
   179   90  211 1    
   180   91  212 1    
   181   91  213 1    
   182   91  214 1    
   183   92   93 2    
   184   92   94 am   BACKBONE|DICT|INTERRES
   185   94   95 1    
   186   94  215 1    
   187   95   96 1    
   188   95   97 1    
   189   95  216 1    
   190   96  217 1    
   191   96  218 1    
   192   96  219 1    
   193   97   98 2    
   194   97   99 am   BACKBONE|DICT|INTERRES
   195   99  100 1    
   196   99  220 1    
   197  100  101 1    
   198  100  102 1    
   199  100  221 1    
   200  101  222 1    
   201  101  223 1    
   202  101  224 1    
   203  102  103 2    
   204  102  104 am   BACKBONE|DICT|INTERRES
   205  104  105 1    
   206  104  225 1    
   207  105  106 1    
   208  105  107 1    
   209  105  226 1    
   210  106  227 1    
   211  106  228 1    
   212  106  229 1    
   213  107  108 2    
   214  107  109 am   BACKBONE|DICT|INTERRES
   215  109  110 1    
   216  109  230 1    
   217  110  111 1    
   218  110  112 1    
   219  110  231 1    
   220  111  232 1    
   221  111  233 1    
   222  111  234 1    
   223  112  113 2    
   224  112  114 am   BACKBONE|DICT|INTERRES
   225  114  115 1    
   226  114  235 1    
   227  115  116 1    
   228  115  117 1    
   229  115  236 1    
   230  116  237 1    
   231  116  238 1    
   232  116  239 1    
   233  117  118 2    
   234  117  119 am   BACKBONE|DICT|INTERRES
   235  119  120 1    
   236  119  240 1    
   237  120  121 1    
   238  120  124 1    
   239  120  241 1    
   240  121  122 am   BACKBONE|DICT|INTERRES
   241  121  123 2    
   242  122  242 1    
   243  122  243 1    
   244  124  125 1    
   245  124  244 1    
   246  124  245 1    
   247  125  126 1    
   248  126  246 1    
   249  126  247 1    
@<TRIPOS>SUBSTRUCTURE
     1 UNK         1 GROUP             0       ****    0 ROOT    
