@<TRIPOS>MOLECULE
3R540
247   249    1
SMALL
USER_CHARGES


@<TRIPOS>ATOM
      1 CA          2.3331  -13.4239  -52.6074 C.3       0 UNK        -0.1800 
      2 C           0.9734  -12.7264  -52.5668 C.2       0 UNK         0.5000 
      3 O           0.5608  -12.1550  -53.5738 O.2       0 UNK        -0.5000 
      4 N           0.2375  -12.7477  -51.4462 N.am      1 UNK        -0.5000 
      5 CA          0.6461  -13.2398  -50.1266 C.3       1 UNK         0.1400 
      6 C6         -0.5787  -13.3785  -49.1906 C.3       23 UNK        -0.0398 
      7 S7         -0.2453  -14.4005  -47.7145 S.3       23 UNK        -0.2404 
      8 C8         -1.0525  -15.9712  -48.1599 C.3       23 UNK        -0.0205 
      9 C9         -0.2274  -16.7660  -49.1584 C.ar      23 UNK        -0.0193 
     10 C10        -0.5996  -16.8316  -50.5048 C.ar      23 UNK        -0.1150 
     11 C11         0.1573  -17.5790  -51.4140 C.ar      23 UNK        -0.0193 
     12 C12         1.2829  -18.2743  -50.9617 C.ar      23 UNK        -0.1150 
     13 C13         1.6556  -18.2261  -49.6158 C.ar      23 UNK        -0.0193 
     14 C14         0.9052  -17.4578  -48.7231 C.ar      23 UNK        -0.1150 
     15 C15         2.8642  -19.0105  -49.1291 C.3       23 UNK        -0.0205 
     16 S16         2.4353  -20.7405  -48.7527 S.3       23 UNK        -0.2404 
     17 C17         1.6245  -20.5616  -47.1288 C.3       23 UNK        -0.0398 
     18 CA          0.8672  -21.8342  -46.6811 C.3       11 UNK         0.1400 
     19 N           0.6807  -21.8636  -45.2288 N.am      11 UNK        -0.5000 
     20 C           0.2202  -22.9095  -44.5296 C.2       10 UNK         0.5000 
     21 O          -0.0647  -23.9964  -45.0321 O.2       10 UNK        -0.5000 
     22 CA         -0.0032  -22.6882  -43.0218 C.3       10 UNK         0.1400 
     23 CB          1.3194  -22.7910  -42.2481 C.3       10 UNK        -0.1800 
     24 N          -0.6501  -21.4070  -42.7300 N.am      10 UNK        -0.5000 
     25 C          -1.8901  -21.0837  -43.1256 C.2       9 UNK         0.5000 
     26 O          -2.6302  -21.8487  -43.7424 O.2       9 UNK        -0.5000 
     27 CA         -2.3734  -19.6546  -42.8240 C.3       9 UNK         0.1400 
     28 CB         -2.8448  -19.5334  -41.3675 C.3       9 UNK        -0.1800 
     29 N          -1.3552  -18.6424  -43.1034 N.am      9 UNK        -0.5000 
     30 C          -0.8392  -18.3985  -44.3174 C.2       8 UNK         0.5000 
     31 O          -1.1924  -18.9755  -45.3449 O.2       8 UNK        -0.5000 
     32 CA          0.3082  -17.3793  -44.3871 C.3       8 UNK         0.1400 
     33 CB         -0.2275  -15.9437  -44.2751 C.3       8 UNK        -0.1800 
     34 N           1.3101  -17.6076  -43.3498 N.am      8 UNK        -0.5000 
     35 C           2.0347  -18.7218  -43.1901 C.2       7 UNK         0.5000 
     36 O           1.9874  -19.6845  -43.9531 O.2       7 UNK        -0.5000 
     37 CA          2.9184  -18.7931  -41.9340 C.3       7 UNK         0.1400 
     38 CB          4.2551  -18.0676  -42.1480 C.3       7 UNK        -0.1800 
     39 N           2.2441  -18.2392  -40.7608 N.am      7 UNK        -0.5000 
     40 C           1.2139  -18.8205  -40.1329 C.2       6 UNK         0.5000 
     41 O           0.7352  -19.9056  -40.4648 O.2       6 UNK        -0.5000 
     42 CA          0.6019  -18.0415  -38.9535 C.3       6 UNK         0.1400 
     43 CB          1.4309  -18.2501  -37.6773 C.3       6 UNK        -0.1800 
     44 N           0.4768  -16.6066  -39.2229 N.am      6 UNK        -0.5000 
     45 C          -0.3827  -16.0858  -40.1089 C.2       5 UNK         0.5000 
     46 O          -1.1540  -16.7632  -40.7885 O.2       5 UNK        -0.5000 
     47 CA         -0.3536  -14.5550  -40.2989 C.3       5 UNK         0.1400 
     48 CB         -1.1339  -13.8599  -39.1727 C.3       5 UNK        -0.1800 
     49 N           0.9794  -13.9450  -40.4134 N.am      5 UNK        -0.5000 
     50 C           1.9648  -14.3639  -41.2185 C.2       4 UNK         0.5000 
     51 O           1.9441  -15.4356  -41.8212 O.2       4 UNK        -0.5000 
     52 CA          3.1949  -13.4510  -41.3718 C.3       4 UNK         0.1400 
     53 CB          4.1890  -13.7002  -40.2274 C.3       4 UNK        -0.1800 
     54 N           3.8711  -13.7033  -42.6485 N.am      4 UNK        -0.5000 
     55 C           3.3559  -13.4194  -43.8523 C.2       3 UNK         0.5000 
     56 O           2.3281  -12.7574  -44.0246 O.2       3 UNK        -0.5000 
     57 CA          4.1036  -13.9962  -45.0633 C.3       3 UNK         0.1400 
     58 CB          3.7484  -15.4781  -45.2851 C.3       3 UNK        -0.1800 
     59 N           3.7444  -13.2368  -46.2553 N.am      3 UNK        -0.5000 
     60 C           4.5486  -13.0073  -47.2967 C.2       2 UNK         0.5000 
     61 O           5.6946  -13.4515  -47.3882 O.2       2 UNK        -0.5000 
     62 CA          3.9409  -12.1774  -48.4363 C.3       2 UNK         0.1400 
     63 CB          4.9390  -11.8680  -49.5700 C.3       2 UNK        -0.1800 
     64 N           2.7855  -12.8898  -48.9753 N.am      2 UNK        -0.5000 
     65 C           1.7199  -12.3042  -49.5294 C.2       1 UNK         0.5000 
     66 O           1.5690  -11.0818  -49.5989 O.2       1 UNK        -0.5000 
     67 C          -0.4713  -22.0080  -47.4303 C.2       11 UNK         0.5000 
     68 O          -0.5455  -22.8121  -48.3591 O.2       11 UNK        -0.5000 
     69 N          -1.5192  -21.3022  -46.9786 N.am      12 UNK        -0.5000 
     70 CA         -2.8820  -21.4273  -47.4936 C.3       12 UNK         0.1400 
     71 CB         -3.7825  -20.3499  -46.8734 C.3       12 UNK        -0.1800 
     72 C          -3.4711  -22.8304  -47.2709 C.2       12 UNK         0.5000 
     73 O          -4.0593  -23.3845  -48.1982 O.2       12 UNK        -0.5000 
     74 N          -3.2751  -23.3995  -46.0732 N.am      13 UNK        -0.5000 
     75 CA         -3.6880  -24.7601  -45.7221 C.3       13 UNK         0.1400 
     76 CB         -3.4509  -25.0110  -44.2258 C.3       13 UNK        -0.1800 
     77 C          -2.9911  -25.8330  -46.5783 C.2       13 UNK         0.5000 
     78 O          -3.6618  -26.7415  -47.0700 O.2       13 UNK        -0.5000 
     79 N          -1.6766  -25.6768  -46.7950 N.am      14 UNK        -0.5000 
     80 CA         -0.8714  -26.5153  -47.6891 C.3       14 UNK         0.1400 
     81 CB          0.6121  -26.1469  -47.5388 C.3       14 UNK        -0.1800 
     82 C          -1.3123  -26.4212  -49.1641 C.2       14 UNK         0.5000 
     83 O          -1.2388  -27.4150  -49.8868 O.2       14 UNK        -0.5000 
     84 N          -1.8152  -25.2468  -49.5641 N.am      15 UNK        -0.5000 
     85 CA         -2.4282  -24.9663  -50.8624 C.3       15 UNK         0.1400 
     86 CB         -2.1933  -23.4847  -51.2075 C.3       15 UNK        -0.1800 
     87 C          -3.9277  -25.3402  -50.9229 C.2       15 UNK         0.5000 
     88 O          -4.6333  -24.8355  -51.7957 O.2       15 UNK        -0.5000 
     89 N          -4.3982  -26.2027  -50.0079 N.am      16 UNK        -0.5000 
     90 CA         -5.7569  -26.7499  -49.9146 C.3       16 UNK         0.1400 
     91 CB         -6.0640  -27.6552  -51.1264 C.3       16 UNK        -0.1800 
     92 C          -6.8253  -25.6623  -49.6825 C.2       16 UNK         0.5000 
     93 O          -7.8382  -25.6241  -50.3828 O.2       16 UNK        -0.5000 
     94 N          -6.5542  -24.7915  -48.7004 N.am      17 UNK        -0.5000 
     95 CA         -7.3172  -23.5925  -48.3348 C.3       17 UNK         0.1400 
     96 CB         -8.7487  -23.9424  -47.8758 C.3       17 UNK        -0.1800 
     97 C          -7.2628  -22.5251  -49.4467 C.2       17 UNK         0.5000 
     98 O          -8.2818  -21.9188  -49.7818 O.2       17 UNK        -0.5000 
     99 N          -6.0506  -22.3296  -49.9866 N.am      18 UNK        -0.5000 
    100 CA        -5.6821  -21.4145  -51.0688 C.3       18 UNK         0.1400 
    101 CB        -5.7483  -19.9517  -50.5847 C.3       18 UNK        -0.1800 
    102 C         -6.4791  -21.6682  -52.3651 C.2       18 UNK         0.5000 
    103 O         -7.0522  -20.7398  -52.9388 O.2       18 UNK        -0.5000 
    104 N         -6.5012  -22.9320  -52.8074 N.am      19 UNK        -0.5000 
    105 CA        -7.0690  -23.3459  -54.0875 C.3       19 UNK         0.1400 
    106 CB        -7.1999  -24.8769  -54.1166 C.3       19 UNK        -0.1800 
    107 C         -6.1768  -22.8361  -55.2329 C.2       19 UNK         0.5000 
    108 O         -4.9867  -23.1583  -55.2566 O.2       19 UNK        -0.5000 
    109 N         -6.7608  -22.0265  -56.1291 N.am      20 UNK        -0.5000 
    110 CA        -6.0890  -21.2769  -57.1992 C.3       20 UNK         0.1400 
    111 CB        -5.5381  -22.2293  -58.2820 C.3       20 UNK        -0.1800 
    112 C         -5.0250  -20.3120  -56.6304 C.2       20 UNK         0.5000 
    113 O         -3.8443  -20.4109  -56.9716 O.2       20 UNK        -0.5000 
    114 N         -5.4770  -19.4298  -55.7260 N.am      21 UNK        -0.5000 
    115 CA        -4.6734  -18.4539  -54.9855 C.3       21 UNK         0.1400 
    116 CB        -5.6040  -17.6225  -54.0880 C.3       21 UNK        -0.1800 
    117 C         -3.8376  -17.5181  -55.8811 C.2       21 UNK         0.5000 
    118 O         -4.2623  -17.1668  -56.9848 O.2       21 UNK        -0.5000 
    119 N         -2.6731  -17.1164  -55.3622 N.am      22 UNK        -0.5000 
    120 CA        -1.6877  -16.2615  -56.0413 C.3       22 UNK         0.1400 
    121 C         -2.0564  -14.7498  -56.1340 C.2       22 UNK         0.5000 
    122 N         -3.1064  -14.2766  -55.4735 N.am      22 UNK        -0.7600 
    123 O         -1.3883  -13.9973  -56.8378 O.2       22 UNK        -0.5000 
    124 C124       -0.2629  -16.4939  -55.4724 C.3       23 UNK        -0.0398 
    125 S125       -0.0631  -16.0487  -53.7093 S.3       23 UNK        -0.2404 
    126 C126       -0.2500  -17.6572  -52.8783 C.3       23 UNK        -0.0205 
    127 H127        2.2893  -14.4170  -52.1611 H         1 UNK         0.0600 
    128 H128        2.6614  -13.5492  -53.6394 H         1 UNK         0.0600 
    129 H129        3.0871  -12.8335  -52.0875 H         1 UNK         0.0600 
    130 H130       -0.6485  -12.2643  -51.4604 H         1 UNK         0.3000 
    131 H131        1.0735  -14.2349  -50.2614 H         1 UNK         0.0600 
    132 H132       -0.9350  -12.3995  -48.8647 H         1 UNK         0.0800 
    133 H133       -1.4115  -13.8244  -49.7359 H         1 UNK         0.0800 
    134 H134       -1.1859  -16.5709  -47.2587 H         1 UNK         0.0800 
    135 H135       -2.0563  -15.7814  -48.5429 H         1 UNK         0.0800 
    136 H136       -1.4750  -16.2992  -50.8494 H         1 UNK         0.1150 
    137 H137        1.8653  -18.8662  -51.6539 H         1 UNK         0.1150 
    138 H138        1.1949  -17.4048  -47.6839 H         1 UNK         0.1150 
    139 H139        3.6384  -18.9996  -49.8977 H         1 UNK         0.0800 
    140 H140        3.3036  -18.5377  -48.2491 H         1 UNK         0.0800 
    141 H141        2.4201  -20.3341  -46.4191 H         1 UNK         0.0800 
    142 H142        0.9600  -19.6977  -47.1231 H         1 UNK         0.0800 
    143 H143        1.4887  -22.6987  -46.9246 H         1 UNK         0.0600 
    144 H144        0.9399  -21.0188  -44.7247 H         1 UNK         0.3000 
    145 H145       -0.6635  -23.4816  -42.6659 H         1 UNK         0.0600 
    146 H146        1.1548  -22.7035  -41.1740 H         1 UNK         0.0600 
    147 H147        1.8015  -23.7529  -42.4266 H         1 UNK         0.0600 
    148 H148        2.0224  -22.0119  -42.5423 H         1 UNK         0.0600 
    149 H149       -0.1151  -20.7358  -42.1899 H         1 UNK         0.3000 
    150 H150       -3.2276  -19.4516  -43.4729 H         1 UNK         0.0600 
    151 H151       -3.6051  -20.2812  -41.1388 H         1 UNK         0.0600 
    152 H152       -3.2849  -18.5545  -41.1772 H         1 UNK         0.0600 
    153 H153       -2.0235  -19.6726  -40.6640 H         1 UNK         0.0600 
    154 H154       -1.0351  -18.0919  -42.3130 H         1 UNK         0.3000 
    155 H155        0.7987  -17.4911  -45.3551 H         1 UNK         0.0600 
    156 H156       -0.6644  -15.7528  -43.2956 H         1 UNK         0.0600 
    157 H157       -1.0022  -15.7514  -45.0170 H         1 UNK         0.0600 
    158 H158        0.5636  -15.2108  -44.4324 H         1 UNK         0.0600 
    159 H159        1.4570  -16.8436  -42.6899 H         1 UNK         0.3000 
    160 H160        3.1339  -19.8463  -41.7419 H         1 UNK         0.0600 
    161 H161        4.9332  -18.2443  -41.3131 H         1 UNK         0.0600 
    162 H162        4.1206  -16.9904  -42.2424 H         1 UNK         0.0600 
    163 H163        4.7533  -18.4203  -43.0519 H         1 UNK         0.0600 
    164 H164        2.5132  -17.3059  -40.4841 H         1 UNK         0.3000 
    165 H165       -0.3982  -18.4432  -38.7764 H         1 UNK         0.0600 
    166 H166        0.9592  -17.7717  -36.8187 H         1 UNK         0.0600 
    167 H167        1.5275  -19.3114  -37.4443 H         1 UNK         0.0600 
    168 H168        2.4377  -17.8429  -37.7778 H         1 UNK         0.0600 
    169 H169        1.0891  -15.9843  -38.7163 H         1 UNK         0.3000 
    170 H170       -0.8708  -14.3455  -41.2371 H         1 UNK         0.0600 
    171 H171       -2.1357  -14.2802  -39.0727 H         1 UNK         0.0600 
    172 H172       -0.6340  -13.9695  -38.2096 H         1 UNK         0.0600 
    173 H173       -1.2501  -12.7944  -39.3716 H         1 UNK         0.0600 
    174 H174        1.1003  -13.0668  -39.9300 H         1 UNK         0.3000 
    175 H175        2.8691  -12.4092  -41.3462 H         1 UNK         0.0600 
    176 H176        4.5368  -14.7342  -40.2139 H         1 UNK         0.0600 
    177 H177        5.0622  -13.0536  -40.3159 H         1 UNK         0.0600 
    178 H178        3.7320  -13.4952  -39.2586 H         1 UNK         0.0600 
    179 H179        4.7039  -14.2711  -42.6007 H         1 UNK         0.3000 
    180 H180        5.1748  -13.9024  -44.8721 H         1 UNK         0.0600 
    181 H181        2.6917  -15.6064  -45.5203 H         1 UNK         0.0600 
    182 H182        3.9615  -16.0737  -44.3985 H         1 UNK         0.0600 
    183 H183        4.3251  -15.9034  -46.1065 H         1 UNK         0.0600 
    184 H184        2.8256  -12.8126  -46.2205 H         1 UNK         0.3000 
    185 H185        3.6191  -11.2314  -47.9952 H         1 UNK         0.0600 
    186 H186        5.8201  -11.3526  -49.1861 H         1 UNK         0.0600 
    187 H187        5.2776  -12.7781  -50.0665 H         1 UNK         0.0600 
    188 H188        4.4912  -11.2224  -50.3256 H         1 UNK         0.0600 
    189 H189        2.8251  -13.8980  -48.9077 H         1 UNK         0.3000 
    190 H190       -1.3769  -20.6227  -46.2351 H         1 UNK         0.3000 
    191 H191       -2.8452  -21.2522  -48.5706 H         1 UNK         0.0600 
    192 H192       -3.8236  -20.4343  -45.7875 H         1 UNK         0.0600 
    193 H193       -4.8037  -20.4297  -47.2483 H         1 UNK         0.0600 
    194 H194       -3.4229  -19.3500  -47.1170 H         1 UNK         0.0600 
    195 H195       -2.8283  -22.8572  -45.3380 H         1 UNK         0.3000 
    196 H196       -4.7613  -24.8361  -45.9083 H         1 UNK         0.0600 
    197 H197       -3.7680  -26.0154  -43.9427 H         1 UNK         0.0600 
    198 H198       -4.0164  -24.3074  -43.6148 H         1 UNK         0.0600 
    199 H199       -2.3983  -24.9118  -43.9611 H         1 UNK         0.0600 
    200 H200       -1.1881  -24.9249  -46.3157 H         1 UNK         0.3000 
    201 H201       -0.9977  -27.5529  -47.3735 H         1 UNK         0.0600 
    202 H202        0.9491  -26.2807  -46.5107 H         1 UNK         0.0600 
    203 H203        0.8004  -25.1105  -47.8193 H         1 UNK         0.0600 
    204 H204        1.2378  -26.7776  -48.1715 H         1 UNK         0.0600 
    205 H205       -1.7914  -24.4718  -48.9110 H         1 UNK         0.3000 
    206 H206       -1.9270  -25.5656  -51.6247 H         1 UNK         0.0600 
    207 H207       -2.5780  -23.2397  -52.1983 H         1 UNK         0.0600 
    208 H208       -1.1296  -23.2460  -51.2073 H         1 UNK         0.0600 
    209 H209       -2.6798  -22.8248  -50.4903 H         1 UNK         0.0600 
    210 H210       -3.7624  -26.5127  -49.2839 H         1 UNK         0.3000 
    211 H211       -5.7695  -27.3815  -49.0252 H         1 UNK         0.0600 
    212 H212       -6.1086  -27.0889  -52.0570 H         1 UNK         0.0600 
    213 H213       -7.0243  -28.1574  -51.0045 H         1 UNK         0.0600 
    214 H214       -5.3058  -28.4297  -51.2415 H         1 UNK         0.0600 
    215 H215       -5.6447  -24.8627  -48.2609 H         1 UNK         0.3000 
    216 H216       -6.8025  -23.1585  -47.4763 H         1 UNK         0.0600 
    217 H217       -9.2481  -23.0648  -47.4641 H         1 UNK         0.0600 
    218 H218       -8.7377  -24.7045  -47.0967 H         1 UNK         0.0600 
    219 H219       -9.3648  -24.3092  -48.6968 H         1 UNK         0.0600 
    220 H220       -5.2893  -22.8804  -49.6004 H         1 UNK         0.3000 
    221 H221       -4.6409  -21.6294  -51.3102 H         1 UNK         0.0600 
    222 H222       -6.7696  -19.6467  -50.3547 H         1 UNK         0.0600 
    223 H223       -5.1442  -19.8052  -49.6897 H         1 UNK         0.0600 
    224 H224       -5.3652  -19.2716  -51.3456 H         1 UNK         0.0600 
    225 H225       -5.9451  -23.6327  -52.3211 H         1 UNK         0.3000 
    226 H226       -8.0684  -22.9157  -54.1803 H         1 UNK         0.0600 
    227 H227       -7.8261  -25.2343  -53.2987 H         1 UNK         0.0600 
    228 H228       -7.6553  -25.2114  -55.0492 H         1 UNK         0.0600 
    229 H229       -6.2288  -25.3662  -54.0303 H         1 UNK         0.0600 
    230 H230       -7.7418  -21.8164  -56.0072 H         1 UNK         0.3000 
    231 H231       -6.8507  -20.6542  -57.6710 H         1 UNK         0.0600 
    232 H232       -6.3246  -22.8716  -58.6780 H         1 UNK         0.0600 
    233 H233       -4.7434  -22.8703  -57.8998 H         1 UNK         0.0600 
    234 H234       -5.1262  -21.6659  -59.1201 H         1 UNK         0.0600 
    235 H235       -6.4591  -19.4520  -55.4933 H         1 UNK         0.3000 
    236 H236       -3.9932  -19.0227  -54.3482 H         1 UNK         0.0600 
    237 H237       -5.0358  -16.9285  -53.4674 H         1 UNK         0.0600 
    238 H238       -6.3086  -17.0346  -54.6779 H         1 UNK         0.0600 
    239 H239       -6.1815  -18.2552  -53.4154 H         1 UNK         0.0600 
    240 H240       -2.4214  -17.4101  -54.4314 H         1 UNK         0.3000 
    241 H241       -1.6551  -16.5972  -57.0798 H         1 UNK         0.0600 
    242 H242       -3.3387  -13.2987  -55.5474 H         1 UNK         0.3800 
    243 H243       -3.6673  -14.8843  -54.8997 H         1 UNK         0.3800 
    244 H244        0.0219  -17.5371  -55.6141 H         1 UNK         0.0800 
    245 H245        0.4667  -15.9201  -56.0462 H         1 UNK         0.0800 
    246 H246        0.3506  -18.4048  -53.3988 H         1 UNK         0.0800 
    247 H247       -1.2858  -17.9902  -52.9427 H         1 UNK         0.0800 
@<TRIPOS>BOND
     1    1    2 1    
     2    1  127 1    
     3    1  128 1    
     4    1  129 1    
     5    2    3 2    
     6    2    4 am   BACKBONE|DICT|INTERRES
     7    4    5 1    
     8    4  130 1    
     9    5    6 1    
    10    5   65 1    
    11    5  131 1    
    12    6    7 1    
    13    6  132 1    
    14    6  133 1    
    15    7    8 1    
    16    8    9 1    
    17    8  134 1    
    18    8  135 1    
    19    9   10 ar   
    20    9   14 ar   
    21   10   11 ar   
    22   10  136 1    
    23   11   12 ar   
    24   11  126 1    
    25   12   13 ar   
    26   12  137 1    
    27   13   14 ar   
    28   13   15 1    
    29   14  138 1    
    30   15   16 1    
    31   15  139 1    
    32   15  140 1    
    33   16   17 1    
    34   17   18 1    
    35   17  141 1    
    36   17  142 1    
    37   18   19 1    
    38   18   67 1    
    39   18  143 1    
    40   19   20 am   BACKBONE|DICT|INTERRES
    41   19  144 1    
    42   20   21 2    
    43   20   22 1    
    44   22   23 1    
    45   22   24 1    
    46   22  145 1    
    47   23  146 1    
    48   23  147 1    
    49   23  148 1    
    50   24   25 am   BACKBONE|DICT|INTERRES
    51   24  149 1    
    52   25   26 2    
    53   25   27 1    
    54   27   28 1    
    55   27   29 1    
    56   27  150 1    
    57   28  151 1    
    58   28  152 1    
    59   28  153 1    
    60   29   30 am   BACKBONE|DICT|INTERRES
    61   29  154 1    
    62   30   31 2    
    63   30   32 1    
    64   32   33 1    
    65   32   34 1    
    66   32  155 1    
    67   33  156 1    
    68   33  157 1    
    69   33  158 1    
    70   34   35 am   BACKBONE|DICT|INTERRES
    71   34  159 1    
    72   35   36 2    
    73   35   37 1    
    74   37   38 1    
    75   37   39 1    
    76   37  160 1    
    77   38  161 1    
    78   38  162 1    
    79   38  163 1    
    80   39   40 am   BACKBONE|DICT|INTERRES
    81   39  164 1    
    82   40   41 2    
    83   40   42 1    
    84   42   43 1    
    85   42   44 1    
    86   42  165 1    
    87   43  166 1    
    88   43  167 1    
    89   43  168 1    
    90   44   45 am   BACKBONE|DICT|INTERRES
    91   44  169 1    
    92   45   46 2    
    93   45   47 1    
    94   47   48 1    
    95   47   49 1    
    96   47  170 1    
    97   48  171 1    
    98   48  172 1    
    99   48  173 1    
   100   49   50 am   BACKBONE|DICT|INTERRES
   101   49  174 1    
   102   50   51 2    
   103   50   52 1    
   104   52   53 1    
   105   52   54 1    
   106   52  175 1    
   107   53  176 1    
   108   53  177 1    
   109   53  178 1    
   110   54   55 am   BACKBONE|DICT|INTERRES
   111   54  179 1    
   112   55   56 2    
   113   55   57 1    
   114   57   58 1    
   115   57   59 1    
   116   57  180 1    
   117   58  181 1    
   118   58  182 1    
   119   58  183 1    
   120   59   60 am   BACKBONE|DICT|INTERRES
   121   59  184 1    
   122   60   61 2    
   123   60   62 1    
   124   62   63 1    
   125   62   64 1    
   126   62  185 1    
   127   63  186 1    
   128   63  187 1    
   129   63  188 1    
   130   64   65 am   BACKBONE|DICT|INTERRES
   131   64  189 1    
   132   65   66 2    
   133   67   68 2    
   134   67   69 am   BACKBONE|DICT|INTERRES
   135   69   70 1    
   136   69  190 1    
   137   70   71 1    
   138   70   72 1    
   139   70  191 1    
   140   71  192 1    
   141   71  193 1    
   142   71  194 1    
   143   72   73 2    
   144   72   74 am   BACKBONE|DICT|INTERRES
   145   74   75 1    
   146   74  195 1    
   147   75   76 1    
   148   75   77 1    
   149   75  196 1    
   150   76  197 1    
   151   76  198 1    
   152   76  199 1    
   153   77   78 2    
   154   77   79 am   BACKBONE|DICT|INTERRES
   155   79   80 1    
   156   79  200 1    
   157   80   81 1    
   158   80   82 1    
   159   80  201 1    
   160   81  202 1    
   161   81  203 1    
   162   81  204 1    
   163   82   83 2    
   164   82   84 am   BACKBONE|DICT|INTERRES
   165   84   85 1    
   166   84  205 1    
   167   85   86 1    
   168   85   87 1    
   169   85  206 1    
   170   86  207 1    
   171   86  208 1    
   172   86  209 1    
   173   87   88 2    
   174   87   89 am   BACKBONE|DICT|INTERRES
   175   89   90 1    
   176   89  210 1    
   177   90   91 1    
   178   90   92 1    
   179   90  211 1    
   180   91  212 1    
   181   91  213 1    
   182   91  214 1    
   183   92   93 2    
   184   92   94 am   BACKBONE|DICT|INTERRES
   185   94   95 1    
   186   94  215 1    
   187   95   96 1    
   188   95   97 1    
   189   95  216 1    
   190   96  217 1    
   191   96  218 1    
   192   96  219 1    
   193   97   98 2    
   194   97   99 am   BACKBONE|DICT|INTERRES
   195   99  100 1    
   196   99  220 1    
   197  100  101 1    
   198  100  102 1    
   199  100  221 1    
   200  101  222 1    
   201  101  223 1    
   202  101  224 1    
   203  102  103 2    
   204  102  104 am   BACKBONE|DICT|INTERRES
   205  104  105 1    
   206  104  225 1    
   207  105  106 1    
   208  105  107 1    
   209  105  226 1    
   210  106  227 1    
   211  106  228 1    
   212  106  229 1    
   213  107  108 2    
   214  107  109 am   BACKBONE|DICT|INTERRES
   215  109  110 1    
   216  109  230 1    
   217  110  111 1    
   218  110  112 1    
   219  110  231 1    
   220  111  232 1    
   221  111  233 1    
   222  111  234 1    
   223  112  113 2    
   224  112  114 am   BACKBONE|DICT|INTERRES
   225  114  115 1    
   226  114  235 1    
   227  115  116 1    
   228  115  117 1    
   229  115  236 1    
   230  116  237 1    
   231  116  238 1    
   232  116  239 1    
   233  117  118 2    
   234  117  119 am   BACKBONE|DICT|INTERRES
   235  119  120 1    
   236  119  240 1    
   237  120  121 1    
   238  120  124 1    
   239  120  241 1    
   240  121  122 am   BACKBONE|DICT|INTERRES
   241  121  123 2    
   242  122  242 1    
   243  122  243 1    
   244  124  125 1    
   245  124  244 1    
   246  124  245 1    
   247  125  126 1    
   248  126  246 1    
   249  126  247 1    
@<TRIPOS>SUBSTRUCTURE
     1 UNK         1 GROUP             0       ****    0 ROOT    
