@<TRIPOS>MOLECULE
3R540
247   249    1
SMALL
USER_CHARGES


@<TRIPOS>ATOM
      1 CA         -0.4292  -11.6241  -47.2957 C.3       0 UNK        -0.1800 
      2 C           0.8384  -12.4606  -47.3814 C.2       0 UNK         0.5000 
      3 O           0.9937  -13.4082  -46.6117 O.2       0 UNK        -0.5000 
      4 N           1.7412  -12.1163  -48.3098 N.am      1 UNK        -0.5000 
      5 CA          3.0623  -12.7160  -48.5476 C.3       1 UNK         0.1400 
      6 C6          3.0162  -14.2402  -48.8573 C.3       23 UNK        -0.0398 
      7 S7          4.6444  -14.9962  -49.2014 S.3       23 UNK        -0.2404 
      8 C8          4.4967  -15.4542  -50.9560 C.3       23 UNK        -0.0205 
      9 C9          3.5435  -16.6210  -51.1751 C.ar      23 UNK        -0.0193 
     10 C10         2.4106  -16.4636  -51.9774 C.ar      23 UNK        -0.1150 
     11 C11         1.5492  -17.5394  -52.2123 C.ar      23 UNK        -0.0193 
     12 C12         1.8267  -18.7816  -51.6339 C.ar      23 UNK        -0.1150 
     13 C13         2.9583  -18.9534  -50.8297 C.ar      23 UNK        -0.0193 
     14 C14         3.8121  -17.8696  -50.6064 C.ar      23 UNK        -0.1150 
     15 C15         3.2837  -20.3131  -50.2269 C.3       23 UNK        -0.0205 
     16 S16         2.5190  -20.5379  -48.5900 S.3       23 UNK        -0.2404 
     17 C17         0.7831  -20.8306  -49.0579 C.3       23 UNK        -0.0398 
     18 CA          0.0111  -21.6594  -48.0051 C.3       11 UNK         0.1400 
     19 N          -0.2453  -20.9133  -46.7682 N.am      11 UNK        -0.5000 
     20 C          -0.7989  -21.4292  -45.6604 C.2       10 UNK         0.5000 
     21 O          -1.0926  -22.6176  -45.5330 O.2       10 UNK        -0.5000 
     22 CA         -1.1451  -20.4452  -44.5262 C.3       10 UNK         0.1400 
     23 CB          0.0957  -20.0931  -43.6920 C.3       10 UNK        -0.1800 
     24 N          -1.7798  -19.2247  -45.0266 N.am      10 UNK        -0.5000 
     25 C          -2.9665  -19.1954  -45.6506 C.2       9 UNK         0.5000 
     26 O          -3.6813  -20.1843  -45.8036 O.2       9 UNK        -0.5000 
     27 CA         -3.4130  -17.8509  -46.2472 C.3       9 UNK         0.1400 
     28 CB         -4.1672  -17.0083  -45.2080 C.3       9 UNK        -0.1800 
     29 N          -2.2866  -17.0909  -46.7857 N.am      9 UNK        -0.5000 
     30 C          -1.6158  -17.4267  -47.8969 C.2       8 UNK         0.5000 
     31 O          -1.8950  -18.4027  -48.5932 O.2       8 UNK        -0.5000 
     32 CA         -0.4082  -16.5410  -48.2596 C.3       8 UNK         0.1400 
     33 CB         -0.8936  -15.2279  -48.8918 C.3       8 UNK        -0.1800 
     34 N           0.4369  -16.2313  -47.1032 N.am      8 UNK        -0.5000 
     35 C           1.0562  -17.1430  -46.3396 C.2       7 UNK         0.5000 
     36 O           1.0390  -18.3488  -46.5732 O.2       7 UNK        -0.5000 
     37 CA          1.7431  -16.6377  -45.0541 C.3       7 UNK         0.1400 
     38 CB          3.2140  -16.2923  -45.3189 C.3       7 UNK        -0.1800 
     39 N           1.0687  -15.4929  -44.4341 N.am      7 UNK        -0.5000 
     40 C          -0.2123  -15.4849  -44.0444 C.2       6 UNK         0.5000 
     41 O          -0.9497  -16.4696  -44.1194 O.2       6 UNK        -0.5000 
     42 CA         -0.7455  -14.1472  -43.4982 C.3       6 UNK         0.1400 
     43 CB         -2.2862  -14.1008  -43.4433 C.3       6 UNK        -0.1800 
     44 N          -0.1759  -13.7941  -42.1940 N.am      6 UNK        -0.5000 
     45 C          -0.2138  -14.5141  -41.0628 C.2       5 UNK         0.5000 
     46 O          -0.7268  -15.6289  -40.9531 O.2       5 UNK        -0.5000 
     47 CA          0.3928  -13.8384  -39.8218 C.3       5 UNK         0.1400 
     48 CB         -0.7206  -13.1569  -39.0110 C.3       5 UNK        -0.1800 
     49 N           1.0925  -14.7766  -38.9388 N.am      5 UNK        -0.5000 
     50 C           2.1665  -15.5665  -39.1309 C.2       4 UNK         0.5000 
     51 O           2.4861  -16.3703  -38.2562 O.2       4 UNK        -0.5000 
     52 CA          3.0682  -15.5086  -40.3928 C.3       4 UNK         0.1400 
     53 CB          2.6940  -16.6027  -41.4046 C.3       4 UNK        -0.1800 
     54 N           3.1712  -14.2126  -41.0622 N.am      4 UNK        -0.5000 
     55 C           3.7664  -13.1315  -40.5439 C.2       3 UNK         0.5000 
     56 O           4.3762  -13.1385  -39.4733 O.2       3 UNK        -0.5000 
     57 CA          3.6352  -11.8278  -41.3603 C.3       3 UNK         0.1400 
     58 CB          4.2146  -10.6068  -40.6234 C.3       3 UNK        -0.1800 
     59 N           4.2665  -11.9222  -42.6754 N.am      3 UNK        -0.5000 
     60 C           3.7668  -12.5447  -43.7485 C.2       2 UNK         0.5000 
     61 O           2.7044  -13.1770  -43.7498 O.2       2 UNK        -0.5000 
     62 CA          4.6172  -12.4528  -45.0210 C.3       2 UNK         0.1400 
     63 CB          5.7920  -13.4479  -44.9770 C.3       2 UNK        -0.1800 
     64 N           3.7828  -12.7054  -46.1897 N.am      2 UNK        -0.5000 
     65 C           4.0708  -12.3320  -47.4405 C.2       1 UNK         0.5000 
     66 O           5.0775  -11.6876  -47.7410 O.2       1 UNK        -0.5000 
     67 C          -1.2899  -22.2159  -48.6159 C.2       11 UNK         0.5000 
     68 O          -1.3331  -23.3977  -48.9590 O.2       11 UNK        -0.5000 
     69 N          -2.3308  -21.3747  -48.7069 N.am      12 UNK        -0.5000 
     70 CA         -3.6568  -21.7557  -49.1958 C.3       12 UNK         0.1400 
     71 CB         -4.5616  -20.5168  -49.2603 C.3       12 UNK        -0.1800 
     72 C          -4.3078  -22.8579  -48.3410 C.2       12 UNK         0.5000 
     73 O          -4.8407  -23.8169  -48.8972 O.2       12 UNK        -0.5000 
     74 N          -4.2214  -22.7217  -47.0100 N.am      13 UNK        -0.5000 
     75 CA         -4.7118  -23.6955  -46.0353 C.3       13 UNK         0.1400 
     76 CB         -4.6355  -23.1000  -44.6216 C.3       13 UNK        -0.1800 
     77 C          -3.9640  -25.0380  -46.1042 C.2       13 UNK         0.5000 
     78 O          -4.6098  -26.0860  -46.0899 O.2       13 UNK        -0.5000 
     79 N          -2.6289  -24.9908  -46.2234 N.am      14 UNK        -0.5000 
     80 CA         -1.7655  -26.1651  -46.3865 C.3       14 UNK         0.1400 
     81 CB         -0.2929  -25.7346  -46.3112 C.3       14 UNK        -0.1800 
     82 C          -2.0407  -26.9372  -47.6914 C.2       14 UNK         0.5000 
     83 O          -1.9918  -28.1674  -47.6963 O.2       14 UNK        -0.5000 
     84 N          -2.3681  -26.1998  -48.7591 N.am      15 UNK        -0.5000 
     85 CA         -2.7905  -26.7248  -50.0572 C.3       15 UNK         0.1400 
     86 CB         -2.4374  -25.6838  -51.1282 C.3       15 UNK        -0.1800 
     87 C          -4.2905  -27.0909  -50.1169 C.2       15 UNK         0.5000 
     88 O          -4.7636  -27.4953  -51.1800 O.2       15 UNK        -0.5000 
     89 N          -5.0231  -26.9219  -49.0038 N.am      16 UNK        -0.5000 
     90 CA         -6.4568  -27.1879  -48.8228 C.3       16 UNK         0.1400 
     91 CB         -6.7239  -28.7067  -48.8543 C.3       16 UNK        -0.1800 
     92 C          -7.3629  -26.4035  -49.7985 C.2       16 UNK         0.5000 
     93 O          -8.4292  -26.8906  -50.1774 O.2       16 UNK        -0.5000 
     94 N          -6.8994  -25.2139  -50.2090 N.am      17 UNK        -0.5000 
     95 CA         -7.4756  -24.3020  -51.2023 C.3       17 UNK         0.1400 
     96 CB         -8.8238  -23.7387  -50.7098 C.3       17 UNK        -0.1800 
     97 C          -7.5662  -24.8752  -52.6358 C.2       17 UNK         0.5000 
     98 O          -8.1864  -24.2458  -53.4943 O.2       17 UNK        -0.5000 
     99 N          -6.9334  -26.0297  -52.8959 N.am      18 UNK        -0.5000 
    100 CA        -6.8535  -26.6520  -54.2213 C.3       18 UNK         0.1400 
    101 CB        -6.5697  -28.1525  -54.0544 C.3       18 UNK        -0.1800 
    102 C         -5.7812  -25.9923  -55.1103 C.2       18 UNK         0.5000 
    103 O         -5.8287  -26.1282  -56.3334 O.2       18 UNK        -0.5000 
    104 N         -4.8454  -25.2828  -54.4754 N.am      19 UNK        -0.5000 
    105 CA        -3.7863  -24.4807  -55.0657 C.3       19 UNK         0.1400 
    106 CB        -2.5908  -25.3826  -55.4253 C.3       19 UNK        -0.1800 
    107 C         -3.4011  -23.4030  -54.0399 C.2       19 UNK         0.5000 
    108 O         -3.9145  -23.4169  -52.9174 O.2       19 UNK        -0.5000 
    109 N         -2.5077  -22.4886  -54.4427 N.am      20 UNK        -0.5000 
    110 CA        -1.8742  -21.4502  -53.6147 C.3       20 UNK         0.1400 
    111 CB        -0.9596  -22.0998  -52.5557 C.3       20 UNK        -0.1800 
    112 C         -2.8456  -20.4278  -52.9829 C.2       20 UNK         0.5000 
    113 O         -2.4616  -19.7182  -52.0536 O.2       20 UNK        -0.5000 
    114 N         -4.0761  -20.3424  -53.5048 N.am      21 UNK        -0.5000 
    115 CA        -5.1659  -19.4987  -53.0126 C.3       21 UNK         0.1400 
    116 CB        -6.5033  -20.1290  -53.4420 C.3       21 UNK        -0.1800 
    117 C         -5.0199  -18.0264  -53.4531 C.2       21 UNK         0.5000 
    118 O         -5.9439  -17.4573  -54.0371 O.2       21 UNK        -0.5000 
    119 N         -3.8498  -17.4407  -53.1789 N.am      22 UNK        -0.5000 
    120 CA        -3.5029  -16.0455  -53.4875 C.3       22 UNK         0.1400 
    121 C         -4.0492  -14.9948  -52.4748 C.2       22 UNK         0.5000 
    122 N         -4.6236  -15.3917  -51.3454 N.am      22 UNK        -0.7600 
    123 O         -3.9678  -13.7961  -52.7292 O.2       22 UNK        -0.5000 
    124 C124       -1.9831  -15.8817  -53.7441 C.3       23 UNK        -0.0398 
    125 S125       -0.9316  -16.3358  -52.3200 S.3       23 UNK        -0.2404 
    126 C126        0.3416  -17.3561  -53.1185 C.3       23 UNK        -0.0205 
    127 H127       -0.4955  -11.1493  -46.3169 H         1 UNK         0.0600 
    128 H128       -1.3074  -12.2551  -47.4278 H         1 UNK         0.0600 
    129 H129       -0.4529  -10.8437  -48.0564 H         1 UNK         0.0600 
    130 H130        1.5412  -11.3138  -48.8906 H         1 UNK         0.3000 
    131 H131        3.4236  -12.2331  -49.4572 H         1 UNK         0.0600 
    132 H132        2.5817  -14.7931  -48.0291 H         1 UNK         0.0800 
    133 H133        2.3515  -14.4163  -49.7031 H         1 UNK         0.0800 
    134 H134        4.1900  -14.5793  -51.5315 H         1 UNK         0.0800 
    135 H135        5.4829  -15.7347  -51.3283 H         1 UNK         0.0800 
    136 H136        2.1984  -15.5049  -52.4296 H         1 UNK         0.1150 
    137 H137        1.1677  -19.6165  -51.8189 H         1 UNK         0.1150 
    138 H138        4.6916  -17.9971  -49.9908 H         1 UNK         0.1150 
    139 H139        2.9732  -21.1131  -50.9005 H         1 UNK         0.0800 
    140 H140        4.3646  -20.4169  -50.1203 H         1 UNK         0.0800 
    141 H141        0.7881  -21.3564  -50.0132 H         1 UNK         0.0800 
    142 H142        0.2965  -19.8701  -49.2356 H         1 UNK         0.0800 
    143 H143        0.6250  -22.5222  -47.7377 H         1 UNK         0.0600 
    144 H144        0.0335  -19.9347  -46.7672 H         1 UNK         0.3000 
    145 H145       -1.8620  -20.9375  -43.8659 H         1 UNK         0.0600 
    146 H146       -0.1396  -19.3625  -42.9174 H         1 UNK         0.0600 
    147 H147        0.4900  -20.9805  -43.1958 H         1 UNK         0.0600 
    148 H148        0.8966  -19.6856  -44.3070 H         1 UNK         0.0600 
    149 H149       -1.2784  -18.3519  -44.9011 H         1 UNK         0.3000 
    150 H150       -4.1005  -18.0619  -47.0689 H         1 UNK         0.0600 
    151 H151       -4.4909  -16.0564  -45.6289 H         1 UNK         0.0600 
    152 H152       -3.5543  -16.7987  -44.3316 H         1 UNK         0.0600 
    153 H153       -5.0595  -17.5312  -44.8617 H         1 UNK         0.0600 
    154 H154       -1.9384  -16.3337  -46.2151 H         1 UNK         0.3000 
    155 H155        0.1963  -17.0801  -48.9927 H         1 UNK         0.0600 
    156 H156       -1.6272  -15.4142  -49.6762 H         1 UNK         0.0600 
    157 H157       -0.0689  -14.6773  -49.3426 H         1 UNK         0.0600 
    158 H158       -1.3727  -14.5823  -48.1560 H         1 UNK         0.0600 
    159 H159        0.5202  -15.2530  -46.8403 H         1 UNK         0.3000 
    160 H160        1.7176  -17.4541  -44.3308 H         1 UNK         0.0600 
    161 H161        3.7381  -17.1321  -45.7771 H         1 UNK         0.0600 
    162 H162        3.7339  -16.0496  -44.3937 H         1 UNK         0.0600 
    163 H163        3.3137  -15.4399  -45.9872 H         1 UNK         0.0600 
    164 H164        1.6071  -14.6355  -44.3461 H         1 UNK         0.3000 
    165 H165       -0.4226  -13.3739  -44.1972 H         1 UNK         0.0600 
    166 H166       -2.6390  -13.1233  -43.1150 H         1 UNK         0.0600 
    167 H167       -2.7159  -14.2864  -44.4283 H         1 UNK         0.0600 
    168 H168       -2.6926  -14.8491  -42.7620 H         1 UNK         0.0600 
    169 H169        0.2781  -12.8923  -42.1715 H         1 UNK         0.3000 
    170 H170        1.0714  -13.0472  -40.1280 H         1 UNK         0.0600 
    171 H171       -0.3140  -12.6204  -38.1533 H         1 UNK         0.0600 
    172 H172       -1.2605  -12.4298  -39.6195 H         1 UNK         0.0600 
    173 H173       -1.4501  -13.8787  -38.6407 H         1 UNK         0.0600 
    174 H174        0.6100  -14.9213  -38.0653 H         1 UNK         0.3000 
    175 H175        4.0746  -15.7514  -40.0442 H         1 UNK         0.0600 
    176 H176        1.7416  -16.4070  -41.8914 H         1 UNK         0.0600 
    177 H177        3.4555  -16.6964  -42.1773 H         1 UNK         0.0600 
    178 H178        2.6134  -17.5753  -40.9175 H         1 UNK         0.0600 
    179 H179        2.7554  -14.1281  -41.9830 H         1 UNK         0.3000 
    180 H180        2.5689  -11.6435  -41.5044 H         1 UNK         0.0600 
    181 H181        4.0467   -9.6895  -41.1880 H         1 UNK         0.0600 
    182 H182        5.2881  -10.7068  -40.4577 H         1 UNK         0.0600 
    183 H183        3.7416  -10.4761  -39.6491 H         1 UNK         0.0600 
    184 H184        5.1646  -11.4679  -42.7597 H         1 UNK         0.3000 
    185 H185        5.0097  -11.4356  -45.0852 H         1 UNK         0.0600 
    186 H186        5.4468  -14.4801  -44.9370 H         1 UNK         0.0600 
    187 H187        6.4310  -13.3467  -45.8543 H         1 UNK         0.0600 
    188 H188        6.4203  -13.2788  -44.1019 H         1 UNK         0.0600 
    189 H189        2.8852  -13.1432  -46.0001 H         1 UNK         0.3000 
    190 H190       -2.2024  -20.3999  -48.4531 H         1 UNK         0.3000 
    191 H191       -3.5349  -22.1424  -50.2100 H         1 UNK         0.0600 
    192 H192       -4.7899  -20.1288  -48.2680 H         1 UNK         0.0600 
    193 H193       -5.5090  -20.7544  -49.7453 H         1 UNK         0.0600 
    194 H194       -4.0909  -19.7142  -49.8273 H         1 UNK         0.0600 
    195 H195       -3.8112  -21.8714  -46.6314 H         1 UNK         0.3000 
    196 H196       -5.7618  -23.8905  -46.2631 H         1 UNK         0.0600 
    197 H197       -5.0068  -23.8066  -43.8784 H         1 UNK         0.0600 
    198 H198       -5.2406  -22.1967  -44.5424 H         1 UNK         0.0600 
    199 H199       -3.6123  -22.8410  -44.3479 H         1 UNK         0.0600 
    200 H200       -2.1633  -24.0876  -46.1849 H         1 UNK         0.3000 
    201 H201       -1.9649  -26.8426  -45.5538 H         1 UNK         0.0600 
    202 H202       -0.0687  -25.2647  -45.3534 H         1 UNK         0.0600 
    203 H203       -0.0409  -25.0239  -47.0989 H         1 UNK         0.0600 
    204 H204        0.3720  -26.5927  -46.4163 H         1 UNK         0.0600 
    205 H205       -2.3266  -25.1885  -48.6787 H         1 UNK         0.3000 
    206 H206       -2.2300  -27.6362  -50.2739 H         1 UNK         0.0600 
    207 H207       -1.3648  -25.4920  -51.1561 H         1 UNK         0.0600 
    208 H208       -2.7350  -26.0158  -52.1230 H         1 UNK         0.0600 
    209 H209       -2.9376  -24.7360  -50.9290 H         1 UNK         0.0600 
    210 H210       -4.5551  -26.5524  -48.1853 H         1 UNK         0.3000 
    211 H211       -6.7087  -26.8279  -47.8245 H         1 UNK         0.0600 
    212 H212       -6.5480  -29.1272  -49.8450 H         1 UNK         0.0600 
    213 H213       -7.7559  -28.9302  -48.5818 H         1 UNK         0.0600 
    214 H214       -6.0826  -29.2334  -48.1475 H         1 UNK         0.0600 
    215 H215       -6.0274  -24.8864  -49.7946 H         1 UNK         0.3000 
    216 H216       -6.7769  -23.4663  -51.2665 H         1 UNK         0.0600 
    217 H217       -9.1802  -22.9439  -51.3659 H         1 UNK         0.0600 
    218 H218       -8.7310  -23.3138  -49.7104 H         1 UNK         0.0600 
    219 H219       -9.5969  -24.5068  -50.6787 H         1 UNK         0.0600 
    220 H220       -6.4229  -26.4898  -52.1504 H         1 UNK         0.3000 
    221 H221       -7.8171  -26.5424  -54.7232 H         1 UNK         0.0600 
    222 H222       -5.5939  -28.3303  -53.6014 H         1 UNK         0.0600 
    223 H223       -7.3229  -28.6300  -53.4275 H         1 UNK         0.0600 
    224 H224       -6.5791  -28.6602  -55.0197 H         1 UNK         0.0600 
    225 H225       -4.9182  -25.1716  -53.4712 H         1 UNK         0.3000 
    226 H226       -4.1630  -23.9840  -55.9620 H         1 UNK         0.0600 
    227 H227       -2.8821  -26.1633  -56.1283 H         1 UNK         0.0600 
    228 H228       -1.7896  -24.8114  -55.8949 H         1 UNK         0.0600 
    229 H229       -2.1745  -25.8685  -54.5423 H         1 UNK         0.0600 
    230 H230       -2.1701  -22.5414  -55.3940 H         1 UNK         0.3000 
    231 H231       -1.2376  -20.8738  -54.2873 H         1 UNK         0.0600 
    232 H232       -1.5318  -22.6496  -51.8079 H         1 UNK         0.0600 
    233 H233       -0.2524  -22.7919  -53.0125 H         1 UNK         0.0600 
    234 H234       -0.3784  -21.3450  -52.0291 H         1 UNK         0.0600 
    235 H235       -4.2948  -20.9409  -54.2867 H         1 UNK         0.3000 
    236 H236       -5.1426  -19.5013  -51.9229 H         1 UNK         0.0600 
    237 H237       -6.6050  -20.1578  -54.5274 H         1 UNK         0.0600 
    238 H238       -6.5948  -21.1500  -53.0697 H         1 UNK         0.0600 
    239 H239       -7.3485  -19.5648  -53.0459 H         1 UNK         0.0600 
    240 H240       -3.1465  -17.9827  -52.6846 H         1 UNK         0.3000 
    241 H241       -3.9932  -15.7971  -54.4307 H         1 UNK         0.0600 
    242 H242       -4.9830  -14.7035  -50.7034 H         1 UNK         0.3800 
    243 H243       -4.6903  -16.3712  -51.1239 H         1 UNK         0.3800 
    244 H244       -1.7041  -16.4920  -54.6038 H         1 UNK         0.0800 
    245 H245       -1.7504  -14.8544  -54.0294 H         1 UNK         0.0800 
    246 H246        0.6655  -16.8810  -54.0456 H         1 UNK         0.0800 
    247 H247       -0.0916  -18.3191  -53.3931 H         1 UNK         0.0800 
@<TRIPOS>BOND
     1    1    2 1    
     2    1  127 1    
     3    1  128 1    
     4    1  129 1    
     5    2    3 2    
     6    2    4 am   BACKBONE|DICT|INTERRES
     7    4    5 1    
     8    4  130 1    
     9    5    6 1    
    10    5   65 1    
    11    5  131 1    
    12    6    7 1    
    13    6  132 1    
    14    6  133 1    
    15    7    8 1    
    16    8    9 1    
    17    8  134 1    
    18    8  135 1    
    19    9   10 ar   
    20    9   14 ar   
    21   10   11 ar   
    22   10  136 1    
    23   11   12 ar   
    24   11  126 1    
    25   12   13 ar   
    26   12  137 1    
    27   13   14 ar   
    28   13   15 1    
    29   14  138 1    
    30   15   16 1    
    31   15  139 1    
    32   15  140 1    
    33   16   17 1    
    34   17   18 1    
    35   17  141 1    
    36   17  142 1    
    37   18   19 1    
    38   18   67 1    
    39   18  143 1    
    40   19   20 am   BACKBONE|DICT|INTERRES
    41   19  144 1    
    42   20   21 2    
    43   20   22 1    
    44   22   23 1    
    45   22   24 1    
    46   22  145 1    
    47   23  146 1    
    48   23  147 1    
    49   23  148 1    
    50   24   25 am   BACKBONE|DICT|INTERRES
    51   24  149 1    
    52   25   26 2    
    53   25   27 1    
    54   27   28 1    
    55   27   29 1    
    56   27  150 1    
    57   28  151 1    
    58   28  152 1    
    59   28  153 1    
    60   29   30 am   BACKBONE|DICT|INTERRES
    61   29  154 1    
    62   30   31 2    
    63   30   32 1    
    64   32   33 1    
    65   32   34 1    
    66   32  155 1    
    67   33  156 1    
    68   33  157 1    
    69   33  158 1    
    70   34   35 am   BACKBONE|DICT|INTERRES
    71   34  159 1    
    72   35   36 2    
    73   35   37 1    
    74   37   38 1    
    75   37   39 1    
    76   37  160 1    
    77   38  161 1    
    78   38  162 1    
    79   38  163 1    
    80   39   40 am   BACKBONE|DICT|INTERRES
    81   39  164 1    
    82   40   41 2    
    83   40   42 1    
    84   42   43 1    
    85   42   44 1    
    86   42  165 1    
    87   43  166 1    
    88   43  167 1    
    89   43  168 1    
    90   44   45 am   BACKBONE|DICT|INTERRES
    91   44  169 1    
    92   45   46 2    
    93   45   47 1    
    94   47   48 1    
    95   47   49 1    
    96   47  170 1    
    97   48  171 1    
    98   48  172 1    
    99   48  173 1    
   100   49   50 am   BACKBONE|DICT|INTERRES
   101   49  174 1    
   102   50   51 2    
   103   50   52 1    
   104   52   53 1    
   105   52   54 1    
   106   52  175 1    
   107   53  176 1    
   108   53  177 1    
   109   53  178 1    
   110   54   55 am   BACKBONE|DICT|INTERRES
   111   54  179 1    
   112   55   56 2    
   113   55   57 1    
   114   57   58 1    
   115   57   59 1    
   116   57  180 1    
   117   58  181 1    
   118   58  182 1    
   119   58  183 1    
   120   59   60 am   BACKBONE|DICT|INTERRES
   121   59  184 1    
   122   60   61 2    
   123   60   62 1    
   124   62   63 1    
   125   62   64 1    
   126   62  185 1    
   127   63  186 1    
   128   63  187 1    
   129   63  188 1    
   130   64   65 am   BACKBONE|DICT|INTERRES
   131   64  189 1    
   132   65   66 2    
   133   67   68 2    
   134   67   69 am   BACKBONE|DICT|INTERRES
   135   69   70 1    
   136   69  190 1    
   137   70   71 1    
   138   70   72 1    
   139   70  191 1    
   140   71  192 1    
   141   71  193 1    
   142   71  194 1    
   143   72   73 2    
   144   72   74 am   BACKBONE|DICT|INTERRES
   145   74   75 1    
   146   74  195 1    
   147   75   76 1    
   148   75   77 1    
   149   75  196 1    
   150   76  197 1    
   151   76  198 1    
   152   76  199 1    
   153   77   78 2    
   154   77   79 am   BACKBONE|DICT|INTERRES
   155   79   80 1    
   156   79  200 1    
   157   80   81 1    
   158   80   82 1    
   159   80  201 1    
   160   81  202 1    
   161   81  203 1    
   162   81  204 1    
   163   82   83 2    
   164   82   84 am   BACKBONE|DICT|INTERRES
   165   84   85 1    
   166   84  205 1    
   167   85   86 1    
   168   85   87 1    
   169   85  206 1    
   170   86  207 1    
   171   86  208 1    
   172   86  209 1    
   173   87   88 2    
   174   87   89 am   BACKBONE|DICT|INTERRES
   175   89   90 1    
   176   89  210 1    
   177   90   91 1    
   178   90   92 1    
   179   90  211 1    
   180   91  212 1    
   181   91  213 1    
   182   91  214 1    
   183   92   93 2    
   184   92   94 am   BACKBONE|DICT|INTERRES
   185   94   95 1    
   186   94  215 1    
   187   95   96 1    
   188   95   97 1    
   189   95  216 1    
   190   96  217 1    
   191   96  218 1    
   192   96  219 1    
   193   97   98 2    
   194   97   99 am   BACKBONE|DICT|INTERRES
   195   99  100 1    
   196   99  220 1    
   197  100  101 1    
   198  100  102 1    
   199  100  221 1    
   200  101  222 1    
   201  101  223 1    
   202  101  224 1    
   203  102  103 2    
   204  102  104 am   BACKBONE|DICT|INTERRES
   205  104  105 1    
   206  104  225 1    
   207  105  106 1    
   208  105  107 1    
   209  105  226 1    
   210  106  227 1    
   211  106  228 1    
   212  106  229 1    
   213  107  108 2    
   214  107  109 am   BACKBONE|DICT|INTERRES
   215  109  110 1    
   216  109  230 1    
   217  110  111 1    
   218  110  112 1    
   219  110  231 1    
   220  111  232 1    
   221  111  233 1    
   222  111  234 1    
   223  112  113 2    
   224  112  114 am   BACKBONE|DICT|INTERRES
   225  114  115 1    
   226  114  235 1    
   227  115  116 1    
   228  115  117 1    
   229  115  236 1    
   230  116  237 1    
   231  116  238 1    
   232  116  239 1    
   233  117  118 2    
   234  117  119 am   BACKBONE|DICT|INTERRES
   235  119  120 1    
   236  119  240 1    
   237  120  121 1    
   238  120  124 1    
   239  120  241 1    
   240  121  122 am   BACKBONE|DICT|INTERRES
   241  121  123 2    
   242  122  242 1    
   243  122  243 1    
   244  124  125 1    
   245  124  244 1    
   246  124  245 1    
   247  125  126 1    
   248  126  246 1    
   249  126  247 1    
@<TRIPOS>SUBSTRUCTURE
     1 UNK         1 GROUP             0       ****    0 ROOT    
