@<TRIPOS>MOLECULE
3R540
247   249    1
SMALL
USER_CHARGES


@<TRIPOS>ATOM
      1 CA          2.3369   -9.8322  -45.6318 C.3       0 UNK        -0.1800 
      2 C           2.1584  -10.4641  -47.0047 C.2       0 UNK         0.5000 
      3 O           2.8195  -10.0569  -47.9611 O.2       0 UNK        -0.5000 
      4 N           1.2721  -11.4610  -47.1062 N.am      1 UNK        -0.5000 
      5 CA          0.9738  -12.2493  -48.3069 C.3       1 UNK         0.1400 
      6 C6         -0.4464  -12.8744  -48.2417 C.3       23 UNK        -0.0398 
      7 S7         -0.8207  -13.7863  -46.6986 S.3       23 UNK        -0.2404 
      8 C8         -1.1385  -15.4596  -47.3354 C.3       23 UNK        -0.0205 
      9 C9         -2.4870  -15.5718  -48.0327 C.ar      23 UNK        -0.0193 
     10 C10        -2.5607  -15.6351  -49.4284 C.ar      23 UNK        -0.1150 
     11 C11        -3.7903  -15.8171  -50.0681 C.ar      23 UNK        -0.0193 
     12 C12        -4.9531  -15.9192  -49.3008 C.ar      23 UNK        -0.1150 
     13 C13        -4.8940  -15.8598  -47.9064 C.ar      23 UNK        -0.0193 
     14 C14        -3.6597  -15.6687  -47.2776 C.ar      23 UNK        -0.1150 
     15 C15        -6.1667  -16.0328  -47.0920 C.3       23 UNK        -0.0205 
     16 S16        -6.6506  -17.7882  -46.9806 S.3       23 UNK        -0.2404 
     17 C17        -5.6561  -18.3763  -45.5711 C.3       23 UNK        -0.0398 
     18 CA         -4.2373  -18.8589  -45.9620 C.3       11 UNK         0.1400 
     19 N          -3.3047  -18.6859  -44.8461 N.am      11 UNK        -0.5000 
     20 C          -1.9726  -18.7221  -44.9628 C.2       10 UNK         0.5000 
     21 O          -1.3857  -18.9145  -46.0249 O.2       10 UNK        -0.5000 
     22 CA         -1.1613  -18.5431  -43.6692 C.3       10 UNK         0.1400 
     23 CB         -0.9691  -17.0502  -43.3663 C.3       10 UNK        -0.1800 
     24 N          -1.7251  -19.2066  -42.4898 N.am      10 UNK        -0.5000 
     25 C          -2.0422  -20.5052  -42.3967 C.2       9 UNK         0.5000 
     26 O          -1.9747  -21.2953  -43.3390 O.2       9 UNK        -0.5000 
     27 CA         -2.4546  -20.9942  -40.9995 C.3       9 UNK         0.1400 
     28 CB         -2.8697  -22.4765  -40.9820 C.3       9 UNK        -0.1800 
     29 N          -1.3178  -20.8073  -40.1032 N.am      9 UNK        -0.5000 
     30 C          -1.2657  -19.9592  -39.0692 C.2       8 UNK         0.5000 
     31 O          -2.2169  -19.2739  -38.6927 O.2       8 UNK        -0.5000 
     32 CA          0.0932  -19.8384  -38.3512 C.3       8 UNK         0.1400 
     33 CB          0.1677  -20.8196  -37.1713 C.3       8 UNK        -0.1800 
     34 N           1.2359  -20.0689  -39.2422 N.am      8 UNK        -0.5000 
     35 C           1.6056  -19.2383  -40.2263 C.2       7 UNK         0.5000 
     36 O           1.0278  -18.1789  -40.4782 O.2       7 UNK        -0.5000 
     37 CA          2.7918  -19.6973  -41.0927 C.3       7 UNK         0.1400 
     38 CB          2.3050  -20.5985  -42.2385 C.3       7 UNK        -0.1800 
     39 N           3.5144  -18.5549  -41.6515 N.am      7 UNK        -0.5000 
     40 C           4.4080  -17.8260  -40.9661 C.2       6 UNK         0.5000 
     41 O           4.7462  -18.0847  -39.8097 O.2       6 UNK        -0.5000 
     42 CA          5.0543  -16.6183  -41.6762 C.3       6 UNK         0.1400 
     43 CB          6.4727  -16.9716  -42.1495 C.3       6 UNK        -0.1800 
     44 N           4.2806  -16.1353  -42.8188 N.am      6 UNK        -0.5000 
     45 C           3.1525  -15.4164  -42.7229 C.2       5 UNK         0.5000 
     46 O           2.6954  -15.0120  -41.6535 O.2       5 UNK        -0.5000 
     47 CA          2.4016  -15.0901  -44.0314 C.3       5 UNK         0.1400 
     48 CB          2.6003  -13.6164  -44.4114 C.3       5 UNK        -0.1800 
     49 N           2.7777  -15.9298  -45.1725 N.am      5 UNK        -0.5000 
     50 C           2.6055  -17.2585  -45.2442 C.2       4 UNK         0.5000 
     51 O           2.1118  -17.9277  -44.3390 O.2       4 UNK        -0.5000 
     52 CA          3.1288  -17.9747  -46.5031 C.3       4 UNK         0.1400 
     53 CB          1.9955  -18.1816  -47.5153 C.3       4 UNK        -0.1800 
     54 N           4.2381  -17.2763  -47.1549 N.am      4 UNK        -0.5000 
     55 C           5.4399  -17.0595  -46.6008 C.2       3 UNK         0.5000 
     56 O           5.7515  -17.4530  -45.4766 O.2       3 UNK        -0.5000 
     57 CA          6.4527  -16.2386  -47.4228 C.3       3 UNK         0.1400 
     58 CB          7.4287  -17.1709  -48.1561 C.3       3 UNK        -0.1800 
     59 N           5.8347  -15.3326  -48.3966 N.am      3 UNK        -0.5000 
     60 C           5.0548  -14.2871  -48.0884 C.2       2 UNK         0.5000 
     61 O           4.7642  -13.9831  -46.9296 O.2       2 UNK        -0.5000 
     62 CA          4.5345  -13.4304  -49.2641 C.3       2 UNK         0.1400 
     63 CB          4.3849  -14.2174  -50.5861 C.3       2 UNK        -0.1800 
     64 N           3.2903  -12.7268  -48.9397 N.am      2 UNK        -0.5000 
     65 C           2.1011  -13.2620  -48.6302 C.2       1 UNK         0.5000 
     66 O           1.8889  -14.4750  -48.5952 O.2       1 UNK        -0.5000 
     67 C          -4.2145  -20.2978  -46.5191 C.2       11 UNK         0.5000 
     68 O          -4.2056  -20.4831  -47.7366 O.2       11 UNK        -0.5000 
     69 N          -4.1326  -21.2903  -45.6207 N.am      12 UNK        -0.5000 
     70 CA         -3.9837  -22.7019  -45.9742 C.3       12 UNK         0.1400 
     71 CB         -4.2612  -23.5790  -44.7443 C.3       12 UNK        -0.1800 
     72 C          -2.5936  -23.0013  -46.5603 C.2       12 UNK         0.5000 
     73 O          -2.4990  -23.7384  -47.5417 O.2       12 UNK        -0.5000 
     74 N          -1.5509  -22.3953  -45.9738 N.am      13 UNK        -0.5000 
     75 CA         -0.1638  -22.4815  -46.4326 C.3       13 UNK         0.1400 
     76 CB          0.7601  -21.8024  -45.4091 C.3       13 UNK        -0.1800 
     77 C           0.0405  -21.8803  -47.8354 C.2       13 UNK         0.5000 
     78 O           0.7775  -22.4550  -48.6366 O.2       13 UNK        -0.5000 
     79 N          -0.6286  -20.7524  -48.1110 N.am      14 UNK        -0.5000 
     80 CA         -0.6391  -20.0935  -49.4147 C.3       14 UNK         0.1400 
     81 CB         -1.2496  -18.6940  -49.2808 C.3       14 UNK        -0.1800 
     82 C          -1.3947  -20.9053  -50.4778 C.2       14 UNK         0.5000 
     83 O          -0.9032  -21.0270  -51.5998 O.2       14 UNK        -0.5000 
     84 N          -2.5644  -21.4471  -50.1060 N.am      15 UNK        -0.5000 
     85 CA         -3.3955  -22.2772  -50.9748 C.3       15 UNK         0.1400 
     86 CB         -4.7725  -22.4967  -50.3306 C.3       15 UNK        -0.1800 
     87 C          -2.7307  -23.6176  -51.3236 C.2       15 UNK         0.5000 
     88 O          -2.6942  -23.9884  -52.4971 O.2       15 UNK        -0.5000 
     89 N          -2.2384  -24.3336  -50.3011 N.am      16 UNK        -0.5000 
     90 CA         -1.5221  -25.6160  -50.3773 C.3       16 UNK         0.1400 
     91 CB         -0.1241  -25.3944  -50.9897 C.3       16 UNK        -0.1800 
     92 C          -2.2967  -26.7465  -51.0981 C.2       16 UNK         0.5000 
     93 O          -1.6819  -27.7063  -51.5654 O.2       16 UNK        -0.5000 
     94 N          -3.6271  -26.5940  -51.1982 N.am      17 UNK        -0.5000 
     95 CA         -4.5665  -27.3968  -51.9890 C.3       17 UNK         0.1400 
     96 CB         -4.6937  -28.8198  -51.4054 C.3       17 UNK        -0.1800 
     97 C          -4.2612  -27.3918  -53.5072 C.2       17 UNK         0.5000 
     98 O          -4.5810  -28.3656  -54.1922 O.2       17 UNK        -0.5000 
     99 N          -3.6528  -26.3068  -54.0101 N.am      18 UNK        -0.5000 
    100 CA        -3.2266  -26.1654  -55.4038 C.3       18 UNK         0.1400 
    101 CB        -1.7254  -26.4812  -55.5124 C.3       18 UNK        -0.1800 
    102 C         -3.5357  -24.7697  -55.9674 C.2       18 UNK         0.5000 
    103 O         -4.0621  -24.6683  -57.0767 O.2       18 UNK        -0.5000 
    104 N         -3.2159  -23.7158  -55.2066 N.am      19 UNK        -0.5000 
    105 CA        -3.4432  -22.3204  -55.5708 C.3       19 UNK         0.1400 
    106 CB        -2.3483  -21.4446  -54.9390 C.3       19 UNK        -0.1800 
    107 C         -4.8568  -21.9002  -55.1401 C.2       19 UNK         0.5000 
    108 O         -5.0343  -21.2873  -54.0850 O.2       19 UNK        -0.5000 
    109 N         -5.8442  -22.2556  -55.9730 N.am      20 UNK        -0.5000 
    110 CA        -7.2772  -22.0194  -55.7644 C.3       20 UNK         0.1400 
    111 CB        -8.0587  -22.6397  -56.9322 C.3       20 UNK        -0.1800 
    112 C         -7.6678  -20.5387  -55.5802 C.2       20 UNK         0.5000 
    113 O         -8.6877  -20.2594  -54.9491 O.2       20 UNK        -0.5000 
    114 N         -6.8316  -19.6176  -56.0810 N.am      21 UNK        -0.5000 
    115 CA        -6.9406  -18.1693  -55.8864 C.3       21 UNK         0.1400 
    116 CB        -5.8313  -17.4755  -56.6917 C.3       21 UNK        -0.1800 
    117 C         -6.8852  -17.7288  -54.4076 C.2       21 UNK         0.5000 
    118 O         -7.4626  -16.6945  -54.0699 O.2       21 UNK        -0.5000 
    119 N         -6.2226  -18.5243  -53.5575 N.am      22 UNK        -0.5000 
    120 CA        -6.1982  -18.3565  -52.0962 C.3       22 UNK         0.1400 
    121 C         -7.2901  -19.1949  -51.3652 C.2       22 UNK         0.5000 
    122 N         -8.1947  -19.8830  -52.0529 N.am      22 UNK        -0.7600 
    123 O         -7.3383  -19.2089  -50.1404 O.2       22 UNK        -0.5000 
    124 C124       -4.7869  -18.6154  -51.5047 C.3       23 UNK        -0.0398 
    125 S125       -3.4704  -17.5693  -52.2224 S.3       23 UNK        -0.2404 
    126 C126       -3.8667  -15.9054  -51.5858 C.3       23 UNK        -0.0205 
    127 H127        2.1164   -8.7657  -45.6772 H         1 UNK         0.0600 
    128 H128        3.3660   -9.9558  -45.2943 H         1 UNK         0.0600 
    129 H129        1.6795  -10.2849  -44.8889 H         1 UNK         0.0600 
    130 H130        0.7688  -11.7575  -46.2818 H         1 UNK         0.3000 
    131 H131        0.9561  -11.5576  -49.1521 H         1 UNK         0.0600 
    132 H132       -1.1859  -12.0769  -48.3224 H         1 UNK         0.0800 
    133 H133       -0.6201  -13.5096  -49.1108 H         1 UNK         0.0800 
    134 H134       -0.3319  -15.7532  -48.0070 H         1 UNK         0.0800 
    135 H135       -1.1064  -16.1656  -46.5064 H         1 UNK         0.0800 
    136 H136       -1.6575  -15.5725  -50.0188 H         1 UNK         0.1150 
    137 H137       -5.9068  -16.0714  -49.7859 H         1 UNK         0.1150 
    138 H138       -3.6041  -15.6328  -46.1986 H         1 UNK         0.1150 
    139 H139       -6.0560  -15.6021  -46.0959 H         1 UNK         0.0800 
    140 H140       -6.9751  -15.4788  -47.5713 H         1 UNK         0.0800 
    141 H141       -5.5931  -17.5554  -44.8555 H         1 UNK         0.0800 
    142 H142       -6.2099  -19.1633  -45.0562 H         1 UNK         0.0800 
    143 H143       -3.8694  -18.2300  -46.7716 H         1 UNK         0.0600 
    144 H144       -3.7030  -18.5353  -43.9311 H         1 UNK         0.3000 
    145 H145       -0.1826  -18.9855  -43.8473 H         1 UNK         0.0600 
    146 H146       -0.2638  -16.9023  -42.5483 H         1 UNK         0.0600 
    147 H147       -0.5680  -16.5272  -44.2341 H         1 UNK         0.0600 
    148 H148       -1.9083  -16.5665  -43.0963 H         1 UNK         0.0600 
    149 H149       -1.7774  -18.6455  -41.6515 H         1 UNK         0.3000 
    150 H150       -3.3112  -20.3968  -40.6811 H         1 UNK         0.0600 
    151 H151       -3.7359  -22.6457  -41.6222 H         1 UNK         0.0600 
    152 H152       -3.1439  -22.7947  -39.9762 H         1 UNK         0.0600 
    153 H153       -2.0671  -23.1276  -41.3310 H         1 UNK         0.0600 
    154 H154       -0.4728  -21.2997  -40.3537 H         1 UNK         0.3000 
    155 H155        0.1686  -18.8232  -37.9557 H         1 UNK         0.0600 
    156 H156        1.0936  -20.6924  -36.6100 H         1 UNK         0.0600 
    157 H157        0.1156  -21.8568  -37.5048 H         1 UNK         0.0600 
    158 H158       -0.6570  -20.6569  -36.4759 H         1 UNK         0.0600 
    159 H159        1.7602  -20.9189  -39.0911 H         1 UNK         0.3000 
    160 H160        3.4774  -20.2775  -40.4712 H         1 UNK         0.0600 
    161 H161        1.5754  -20.0908  -42.8674 H         1 UNK         0.0600 
    162 H162        1.8300  -21.5017  -41.8542 H         1 UNK         0.0600 
    163 H163        3.1324  -20.9123  -42.8750 H         1 UNK         0.0600 
    164 H164        3.2181  -18.2429  -42.5695 H         1 UNK         0.3000 
    165 H165        5.1337  -15.8106  -40.9455 H         1 UNK         0.0600 
    166 H166        6.4645  -17.7994  -42.8594 H         1 UNK         0.0600 
    167 H167        6.9533  -16.1202  -42.6318 H         1 UNK         0.0600 
    168 H168        7.1022  -17.2675  -41.3094 H         1 UNK         0.0600 
    169 H169        4.5928  -16.4329  -43.7345 H         1 UNK         0.3000 
    170 H170        1.3395  -15.2473  -43.8424 H         1 UNK         0.0600 
    171 H171        2.2147  -12.9548  -43.6349 H         1 UNK         0.0600 
    172 H172        3.6542  -13.3760  -44.5547 H         1 UNK         0.0600 
    173 H173        2.0740  -13.3798  -45.3343 H         1 UNK         0.0600 
    174 H174        3.2272  -15.4572  -45.9469 H         1 UNK         0.3000 
    175 H175        3.4891  -18.9571  -46.1906 H         1 UNK         0.0600 
    176 H176        1.1542  -18.6978  -47.0519 H         1 UNK         0.0600 
    177 H177        1.6266  -17.2322  -47.9042 H         1 UNK         0.0600 
    178 H178        2.3226  -18.7885  -48.3594 H         1 UNK         0.0600 
    179 H179        4.0580  -16.8958  -48.0724 H         1 UNK         0.3000 
    180 H180        7.0245  -15.6312  -46.7182 H         1 UNK         0.0600 
    181 H181        6.9170  -17.7884  -48.8954 H         1 UNK         0.0600 
    182 H182        7.9279  -17.8426  -47.4563 H         1 UNK         0.0600 
    183 H183        8.2058  -16.6045  -48.6699 H         1 UNK         0.0600 
    184 H184        6.0315  -15.5177  -49.3694 H         1 UNK         0.3000 
    185 H185        5.2830  -12.6534  -49.4240 H         1 UNK         0.0600 
    186 H186        3.9519  -13.5913  -51.3664 H         1 UNK         0.0600 
    187 H187        5.3504  -14.5606  -50.9586 H         1 UNK         0.0600 
    188 H188        3.7432  -15.0916  -50.4700 H         1 UNK         0.0600 
    189 H189        3.3678  -11.7181  -48.8472 H         1 UNK         0.3000 
    190 H190       -4.0537  -21.0592  -44.6412 H         1 UNK         0.3000 
    191 H191       -4.7283  -22.9430  -46.7360 H         1 UNK         0.0600 
    192 H192       -4.2201  -24.6369  -45.0063 H         1 UNK         0.0600 
    193 H193       -5.2521  -23.3840  -44.3340 H         1 UNK         0.0600 
    194 H194       -3.5300  -23.4114  -43.9536 H         1 UNK         0.0600 
    195 H195       -1.7201  -21.8469  -45.1345 H         1 UNK         0.3000 
    196 H196        0.1017  -23.5395  -46.4821 H         1 UNK         0.0600 
    197 H197        1.8068  -21.9128  -45.6944 H         1 UNK         0.0600 
    198 H198        0.6436  -22.2417  -44.4182 H         1 UNK         0.0600 
    199 H199        0.5565  -20.7350  -45.3275 H         1 UNK         0.0600 
    200 H200       -1.1452  -20.2925  -47.3668 H         1 UNK         0.3000 
    201 H201        0.3953  -19.9818  -49.7460 H         1 UNK         0.0600 
    202 H202       -0.6984  -18.0903  -48.5630 H         1 UNK         0.0600 
    203 H203       -2.2896  -18.7319  -48.9535 H         1 UNK         0.0600 
    204 H204       -1.2227  -18.1676  -50.2349 H         1 UNK         0.0600 
    205 H205       -2.9210  -21.2594  -49.1749 H         1 UNK         0.3000 
    206 H206       -3.5475  -21.7366  -51.9086 H         1 UNK         0.0600 
    207 H207       -5.2825  -21.5485  -50.1589 H         1 UNK         0.0600 
    208 H208       -5.4148  -23.0959  -50.9772 H         1 UNK         0.0600 
    209 H209       -4.6942  -23.0093  -49.3713 H         1 UNK         0.0600 
    210 H210       -2.3447  -23.9640  -49.3575 H         1 UNK         0.3000 
    211 H211       -1.3868  -25.9487  -49.3474 H         1 UNK         0.0600 
    212 H212       -0.1851  -25.1176  -52.0428 H         1 UNK         0.0600 
    213 H213        0.4849  -26.2964  -50.9218 H         1 UNK         0.0600 
    214 H214        0.4130  -24.6029  -50.4668 H         1 UNK         0.0600 
    215 H215       -4.0199  -25.7702  -50.7663 H         1 UNK         0.3000 
    216 H216       -5.5383  -26.9131  -51.8820 H         1 UNK         0.0600 
    217 H217       -4.9141  -28.7903  -50.3384 H         1 UNK         0.0600 
    218 H218       -5.5034  -29.3700  -51.8863 H         1 UNK         0.0600 
    219 H219       -3.7798  -29.3981  -51.5435 H         1 UNK         0.0600 
    220 H220       -3.4173  -25.5412  -53.3854 H         1 UNK         0.3000 
    221 H221       -3.7666  -26.8764  -56.0327 H         1 UNK         0.0600 
    222 H222       -1.3726  -26.3655  -56.5380 H         1 UNK         0.0600 
    223 H223       -1.1294  -25.8214  -54.8803 H         1 UNK         0.0600 
    224 H224       -1.5179  -27.5078  -55.2101 H         1 UNK         0.0600 
    225 H225       -2.8518  -23.8671  -54.2679 H         1 UNK         0.3000 
    226 H226       -3.3679  -22.2019  -56.6539 H         1 UNK         0.0600 
    227 H227       -2.3181  -21.5483  -53.8558 H         1 UNK         0.0600 
    228 H228       -1.3635  -21.7102  -55.3230 H         1 UNK         0.0600 
    229 H229       -2.5124  -20.3897  -55.1623 H         1 UNK         0.0600 
    230 H230       -5.5967  -22.7926  -56.7937 H         1 UNK         0.3000 
    231 H231       -7.5608  -22.5407  -54.8479 H         1 UNK         0.0600 
    232 H232       -9.1336  -22.5117  -56.7964 H         1 UNK         0.0600 
    233 H233       -7.8682  -23.7103  -57.0105 H         1 UNK         0.0600 
    234 H234       -7.7906  -22.1795  -57.8841 H         1 UNK         0.0600 
    235 H235       -6.0195  -19.9436  -56.5832 H         1 UNK         0.3000 
    236 H236       -7.9062  -17.8536  -56.2864 H         1 UNK         0.0600 
    237 H237       -5.9068  -17.7105  -57.7536 H         1 UNK         0.0600 
    238 H238       -5.8980  -16.3910  -56.5947 H         1 UNK         0.0600 
    239 H239       -4.8398  -17.7749  -56.3492 H         1 UNK         0.0600 
    240 H240       -5.7913  -19.3742  -53.9054 H         1 UNK         0.3000 
    241 H241       -6.4526  -17.3233  -51.8596 H         1 UNK         0.0600 
    242 H242       -8.2200  -19.8706  -53.0662 H         1 UNK         0.3800 
    243 H243       -8.8924  -20.4060  -51.5488 H         1 UNK         0.3800 
    244 H244       -4.5066  -19.6529  -51.6797 H         1 UNK         0.0800 
    245 H245       -4.7808  -18.4880  -50.4209 H         1 UNK         0.0800 
    246 H246       -3.1652  -15.1930  -52.0220 H         1 UNK         0.0800 
    247 H247       -4.8532  -15.6033  -51.9394 H         1 UNK         0.0800 
@<TRIPOS>BOND
     1    1    2 1    
     2    1  127 1    
     3    1  128 1    
     4    1  129 1    
     5    2    3 2    
     6    2    4 am   BACKBONE|DICT|INTERRES
     7    4    5 1    
     8    4  130 1    
     9    5    6 1    
    10    5   65 1    
    11    5  131 1    
    12    6    7 1    
    13    6  132 1    
    14    6  133 1    
    15    7    8 1    
    16    8    9 1    
    17    8  134 1    
    18    8  135 1    
    19    9   10 ar   
    20    9   14 ar   
    21   10   11 ar   
    22   10  136 1    
    23   11   12 ar   
    24   11  126 1    
    25   12   13 ar   
    26   12  137 1    
    27   13   14 ar   
    28   13   15 1    
    29   14  138 1    
    30   15   16 1    
    31   15  139 1    
    32   15  140 1    
    33   16   17 1    
    34   17   18 1    
    35   17  141 1    
    36   17  142 1    
    37   18   19 1    
    38   18   67 1    
    39   18  143 1    
    40   19   20 am   BACKBONE|DICT|INTERRES
    41   19  144 1    
    42   20   21 2    
    43   20   22 1    
    44   22   23 1    
    45   22   24 1    
    46   22  145 1    
    47   23  146 1    
    48   23  147 1    
    49   23  148 1    
    50   24   25 am   BACKBONE|DICT|INTERRES
    51   24  149 1    
    52   25   26 2    
    53   25   27 1    
    54   27   28 1    
    55   27   29 1    
    56   27  150 1    
    57   28  151 1    
    58   28  152 1    
    59   28  153 1    
    60   29   30 am   BACKBONE|DICT|INTERRES
    61   29  154 1    
    62   30   31 2    
    63   30   32 1    
    64   32   33 1    
    65   32   34 1    
    66   32  155 1    
    67   33  156 1    
    68   33  157 1    
    69   33  158 1    
    70   34   35 am   BACKBONE|DICT|INTERRES
    71   34  159 1    
    72   35   36 2    
    73   35   37 1    
    74   37   38 1    
    75   37   39 1    
    76   37  160 1    
    77   38  161 1    
    78   38  162 1    
    79   38  163 1    
    80   39   40 am   BACKBONE|DICT|INTERRES
    81   39  164 1    
    82   40   41 2    
    83   40   42 1    
    84   42   43 1    
    85   42   44 1    
    86   42  165 1    
    87   43  166 1    
    88   43  167 1    
    89   43  168 1    
    90   44   45 am   BACKBONE|DICT|INTERRES
    91   44  169 1    
    92   45   46 2    
    93   45   47 1    
    94   47   48 1    
    95   47   49 1    
    96   47  170 1    
    97   48  171 1    
    98   48  172 1    
    99   48  173 1    
   100   49   50 am   BACKBONE|DICT|INTERRES
   101   49  174 1    
   102   50   51 2    
   103   50   52 1    
   104   52   53 1    
   105   52   54 1    
   106   52  175 1    
   107   53  176 1    
   108   53  177 1    
   109   53  178 1    
   110   54   55 am   BACKBONE|DICT|INTERRES
   111   54  179 1    
   112   55   56 2    
   113   55   57 1    
   114   57   58 1    
   115   57   59 1    
   116   57  180 1    
   117   58  181 1    
   118   58  182 1    
   119   58  183 1    
   120   59   60 am   BACKBONE|DICT|INTERRES
   121   59  184 1    
   122   60   61 2    
   123   60   62 1    
   124   62   63 1    
   125   62   64 1    
   126   62  185 1    
   127   63  186 1    
   128   63  187 1    
   129   63  188 1    
   130   64   65 am   BACKBONE|DICT|INTERRES
   131   64  189 1    
   132   65   66 2    
   133   67   68 2    
   134   67   69 am   BACKBONE|DICT|INTERRES
   135   69   70 1    
   136   69  190 1    
   137   70   71 1    
   138   70   72 1    
   139   70  191 1    
   140   71  192 1    
   141   71  193 1    
   142   71  194 1    
   143   72   73 2    
   144   72   74 am   BACKBONE|DICT|INTERRES
   145   74   75 1    
   146   74  195 1    
   147   75   76 1    
   148   75   77 1    
   149   75  196 1    
   150   76  197 1    
   151   76  198 1    
   152   76  199 1    
   153   77   78 2    
   154   77   79 am   BACKBONE|DICT|INTERRES
   155   79   80 1    
   156   79  200 1    
   157   80   81 1    
   158   80   82 1    
   159   80  201 1    
   160   81  202 1    
   161   81  203 1    
   162   81  204 1    
   163   82   83 2    
   164   82   84 am   BACKBONE|DICT|INTERRES
   165   84   85 1    
   166   84  205 1    
   167   85   86 1    
   168   85   87 1    
   169   85  206 1    
   170   86  207 1    
   171   86  208 1    
   172   86  209 1    
   173   87   88 2    
   174   87   89 am   BACKBONE|DICT|INTERRES
   175   89   90 1    
   176   89  210 1    
   177   90   91 1    
   178   90   92 1    
   179   90  211 1    
   180   91  212 1    
   181   91  213 1    
   182   91  214 1    
   183   92   93 2    
   184   92   94 am   BACKBONE|DICT|INTERRES
   185   94   95 1    
   186   94  215 1    
   187   95   96 1    
   188   95   97 1    
   189   95  216 1    
   190   96  217 1    
   191   96  218 1    
   192   96  219 1    
   193   97   98 2    
   194   97   99 am   BACKBONE|DICT|INTERRES
   195   99  100 1    
   196   99  220 1    
   197  100  101 1    
   198  100  102 1    
   199  100  221 1    
   200  101  222 1    
   201  101  223 1    
   202  101  224 1    
   203  102  103 2    
   204  102  104 am   BACKBONE|DICT|INTERRES
   205  104  105 1    
   206  104  225 1    
   207  105  106 1    
   208  105  107 1    
   209  105  226 1    
   210  106  227 1    
   211  106  228 1    
   212  106  229 1    
   213  107  108 2    
   214  107  109 am   BACKBONE|DICT|INTERRES
   215  109  110 1    
   216  109  230 1    
   217  110  111 1    
   218  110  112 1    
   219  110  231 1    
   220  111  232 1    
   221  111  233 1    
   222  111  234 1    
   223  112  113 2    
   224  112  114 am   BACKBONE|DICT|INTERRES
   225  114  115 1    
   226  114  235 1    
   227  115  116 1    
   228  115  117 1    
   229  115  236 1    
   230  116  237 1    
   231  116  238 1    
   232  116  239 1    
   233  117  118 2    
   234  117  119 am   BACKBONE|DICT|INTERRES
   235  119  120 1    
   236  119  240 1    
   237  120  121 1    
   238  120  124 1    
   239  120  241 1    
   240  121  122 am   BACKBONE|DICT|INTERRES
   241  121  123 2    
   242  122  242 1    
   243  122  243 1    
   244  124  125 1    
   245  124  244 1    
   246  124  245 1    
   247  125  126 1    
   248  126  246 1    
   249  126  247 1    
@<TRIPOS>SUBSTRUCTURE
     1 UNK         1 GROUP             0       ****    0 ROOT    
