@<TRIPOS>MOLECULE
3R540
247   249    1
SMALL
USER_CHARGES


@<TRIPOS>ATOM
      1 CA         -0.7394  -11.3628  -46.2653 C.3       0 UNK        -0.1800 
      2 C           0.2083  -11.6992  -47.4081 C.2       0 UNK         0.5000 
      3 O           0.6076  -10.8076  -48.1584 O.2       0 UNK        -0.5000 
      4 N           0.5804  -12.9779  -47.5415 N.am      1 UNK        -0.5000 
      5 CA          1.4870  -13.5015  -48.5709 C.3       1 UNK         0.1400 
      6 C6          1.2396  -15.0036  -48.8550 C.3       23 UNK        -0.0398 
      7 S7         -0.4526  -15.3246  -49.4568 S.3       23 UNK        -0.2404 
      8 C8         -0.8335  -16.9116  -48.6529 C.3       23 UNK        -0.0205 
      9 C9         -0.0919  -18.0675  -49.3090 C.ar      23 UNK        -0.0193 
     10 C10        -0.6717  -18.7544  -50.3791 C.ar      23 UNK        -0.1150 
     11 C11         0.0142  -19.7944  -51.0141 C.ar      23 UNK        -0.0193 
     12 C12         1.2850  -20.1551  -50.5564 C.ar      23 UNK        -0.1150 
     13 C13         1.8670  -19.4915  -49.4731 C.ar      23 UNK        -0.0193 
     14 C14         1.1716  -18.4509  -48.8511 C.ar      23 UNK        -0.1150 
     15 C15         3.2598  -19.8796  -48.9973 C.3       23 UNK        -0.0205 
     16 S16         3.2905  -21.4938  -48.1539 S.3       23 UNK        -0.2404 
     17 C17         2.3444  -21.1382  -46.6347 C.3       23 UNK        -0.0398 
     18 CA          1.2749  -22.2079  -46.3116 C.3       11 UNK         0.1400 
     19 N           0.7671  -22.0594  -44.9459 N.am      11 UNK        -0.5000 
     20 C          -0.0338  -22.9354  -44.3229 C.2       10 UNK         0.5000 
     21 O          -0.3870  -24.0079  -44.8112 O.2       10 UNK        -0.5000 
     22 CA         -0.5750  -22.5195  -42.9434 C.3       10 UNK         0.1400 
     23 CB          0.4700  -22.7695  -41.8463 C.3       10 UNK        -0.1800 
     24 N          -0.9984  -21.1195  -42.9116 N.am      10 UNK        -0.5000 
     25 C          -1.9964  -20.6090  -43.6466 C.2       9 UNK         0.5000 
     26 O          -2.7143  -21.2840  -44.3834 O.2       9 UNK        -0.5000 
     27 CA         -2.1906  -19.0830  -43.5898 C.3       9 UNK         0.1400 
     28 CB         -3.0071  -18.6736  -42.3549 C.3       9 UNK        -0.1800 
     29 N          -0.9170  -18.3616  -43.6035 N.am      9 UNK        -0.5000 
     30 C          -0.0757  -18.3354  -44.6469 C.2       8 UNK         0.5000 
     31 O          -0.3033  -18.8863  -45.7227 O.2       8 UNK        -0.5000 
     32 CA          1.2691  -17.6210  -44.4329 C.3       8 UNK         0.1400 
     33 CB          1.1284  -16.1058  -44.6428 C.3       8 UNK        -0.1800 
     34 N           1.8223  -17.8946  -43.1054 N.am      8 UNK        -0.5000 
     35 C           2.3187  -19.0868  -42.7390 C.2       7 UNK         0.5000 
     36 O           2.3875  -20.0538  -43.4970 O.2       7 UNK        -0.5000 
     37 CA          2.7716  -19.2479  -41.2741 C.3       7 UNK         0.1400 
     38 CB          4.2323  -18.8030  -41.1112 C.3       7 UNK        -0.1800 
     39 N           1.9363  -18.5095  -40.3273 N.am      7 UNK        -0.5000 
     40 C           0.6217  -18.7005  -40.1490 C.2       6 UNK         0.5000 
     41 O          -0.0146  -19.5937  -40.7057 O.2       6 UNK        -0.5000 
     42 CA         -0.1215  -17.7006  -39.2404 C.3       6 UNK         0.1400 
     43 CB         -0.3619  -18.3155  -37.8538 C.3       6 UNK        -0.1800 
     44 N           0.5495  -16.4048  -39.0809 N.am      6 UNK        -0.5000 
     45 C           0.8543  -15.5565  -40.0727 C.2       5 UNK         0.5000 
     46 O           0.6497  -15.7961  -41.2655 O.2       5 UNK        -0.5000 
     47 CA          1.5803  -14.2657  -39.6512 C.3       5 UNK         0.1400 
     48 CB          3.0764  -14.5487  -39.4375 C.3       5 UNK        -0.1800 
     49 N           1.4531  -13.1923  -40.6348 N.am      5 UNK        -0.5000 
     50 C           0.3186  -12.5652  -40.9754 C.2       4 UNK         0.5000 
     51 O          -0.7735  -12.8044  -40.4577 O.2       4 UNK        -0.5000 
     52 CA          0.4231  -11.4610  -42.0494 C.3       4 UNK         0.1400 
     53 CB         -0.0043  -10.1000  -41.4752 C.3       4 UNK        -0.1800 
     54 N           1.7786  -11.3290  -42.5948 N.am      4 UNK        -0.5000 
     55 C           2.2285  -11.9795  -43.6725 C.2       3 UNK         0.5000 
     56 O           1.5421  -12.7424  -44.3558 O.2       3 UNK        -0.5000 
     57 CA          3.6997  -11.7561  -44.0399 C.3       3 UNK         0.1400 
     58 CB          4.5915  -12.8427  -43.4129 C.3       3 UNK        -0.1800 
     59 N           3.7976  -11.7941  -45.4908 N.am      3 UNK        -0.5000 
     60 C           4.7752  -11.2800  -46.2433 C.2       2 UNK         0.5000 
     61 O           5.7745  -10.7352  -45.7718 O.2       2 UNK        -0.5000 
     62 CA          4.5965  -11.3348  -47.7774 C.3       2 UNK         0.1400 
     63 CB          5.8090  -11.9796  -48.4800 C.3       2 UNK        -0.1800 
     64 N           3.3284  -11.9368  -48.2170 N.am      2 UNK        -0.5000 
     65 C           2.9480  -13.2213  -48.1627 C.2       1 UNK         0.5000 
     66 O           3.6634  -14.1359  -47.7525 O.2       1 UNK        -0.5000 
     67 C           0.1274  -22.2412  -47.3449 C.2       11 UNK         0.5000 
     68 O           0.1045  -23.1367  -48.1898 O.2       11 UNK        -0.5000 
     69 N          -0.8384  -21.3184  -47.2163 N.am      12 UNK        -0.5000 
     70 CA         -2.0458  -21.2643  -48.0422 C.3       12 UNK         0.1400 
     71 CB         -2.8732  -20.0224  -47.6817 C.3       12 UNK        -0.1800 
     72 C          -2.9087  -22.5307  -47.9210 C.2       12 UNK         0.5000 
     73 O          -3.3616  -23.0495  -48.9410 O.2       12 UNK        -0.5000 
     74 N          -3.0930  -23.0173  -46.6858 N.am      13 UNK        -0.5000 
     75 CA         -3.8157  -24.2489  -46.3730 C.3       13 UNK         0.1400 
     76 CB         -4.0105  -24.3648  -44.8539 C.3       13 UNK        -0.1800 
     77 C          -3.1236  -25.5015  -46.9378 C.2       13 UNK         0.5000 
     78 O          -3.7958  -26.3398  -47.5384 O.2       13 UNK        -0.5000 
     79 N          -1.7946  -25.5883  -46.7807 N.am      14 UNK        -0.5000 
     80 CA         -0.9579  -26.6648  -47.3196 C.3       14 UNK         0.1400 
     81 CB          0.4733  -26.5226  -46.7802 C.3       14 UNK        -0.1800 
     82 C          -0.9572  -26.7107  -48.8594 C.2       14 UNK         0.5000 
     83 O          -0.9833  -27.7973  -49.4380 O.2       14 UNK        -0.5000 
     84 N          -0.9698  -25.5302  -49.4906 N.am      15 UNK        -0.5000 
     85 CA         -1.0935  -25.3485  -50.9369 C.3       15 UNK         0.1400 
     86 CB         -0.5385  -23.9633  -51.2999 C.3       15 UNK        -0.1800 
     87 C          -2.5386  -25.4959  -51.4583 C.2       15 UNK         0.5000 
     88 O          -2.7408  -25.4235  -52.6711 O.2       15 UNK        -0.5000 
     89 N          -3.5181  -25.6487  -50.5528 N.am      16 UNK        -0.5000 
     90 CA         -4.9635  -25.7305  -50.7984 C.3       16 UNK         0.1400 
     91 CB         -5.3139  -27.0663  -51.4852 C.3       16 UNK        -0.1800 
     92 C          -5.5206  -24.5026  -51.5531 C.2       16 UNK         0.5000 
     93 O          -6.4179  -24.6431  -52.3854 O.2       16 UNK        -0.5000 
     94 N          -4.9407  -23.3249  -51.2702 N.am      17 UNK        -0.5000 
     95 CA         -5.1683  -22.0319  -51.9256 C.3       17 UNK         0.1400 
     96 CB         -6.5773  -21.4986  -51.5936 C.3       17 UNK        -0.1800 
     97 C          -4.8910  -22.0546  -53.4456 C.2       17 UNK         0.5000 
     98 O          -5.5104  -21.2892  -54.1877 O.2       17 UNK        -0.5000 
     99 N          -3.9962  -22.9514  -53.8938 N.am      18 UNK        -0.5000 
    100 CA        -3.6328  -23.2905  -55.2791 C.3       18 UNK         0.1400 
    101 CB        -3.0350  -22.0828  -56.0263 C.3       18 UNK        -0.1800 
    102 C         -4.7812  -23.9412  -56.0792 C.2       18 UNK         0.5000 
    103 O         -4.5850  -24.9905  -56.6932 O.2       18 UNK        -0.5000 
    104 N         -5.9598  -23.3205  -56.0245 N.am      19 UNK        -0.5000 
    105 CA        -7.2422  -23.8148  -56.5018 C.3       19 UNK         0.1400 
    106 CB        -7.3981  -23.5728  -58.0142 C.3       19 UNK        -0.1800 
    107 C         -8.3403  -23.1225  -55.6838 C.2       19 UNK         0.5000 
    108 O         -9.1258  -23.8001  -55.0210 O.2       19 UNK        -0.5000 
    109 N         -8.3346  -21.7826  -55.7115 N.am      20 UNK        -0.5000 
    110 CA        -9.2100  -20.8937  -54.9462 C.3       20 UNK         0.1400 
    111 CB       -10.6795  -21.0312  -55.4068 C.3       20 UNK        -0.1800 
    112 C         -8.6930  -19.4454  -55.0588 C.2       20 UNK         0.5000 
    113 O         -9.4804  -18.5262  -55.2931 O.2       20 UNK        -0.5000 
    114 N         -7.3723  -19.2623  -54.9390 N.am      21 UNK        -0.5000 
    115 CA        -6.6899  -17.9816  -55.1070 C.3       21 UNK         0.1400 
    116 CB        -6.4639  -17.7038  -56.6106 C.3       21 UNK        -0.1800 
    117 C         -5.4087  -17.9846  -54.2551 C.2       21 UNK         0.5000 
    118 O         -5.4985  -18.1895  -53.0430 O.2       21 UNK        -0.5000 
    119 N         -4.2492  -17.7763  -54.8936 N.am      22 UNK        -0.5000 
    120 CA        -2.9136  -17.7236  -54.2778 C.3       22 UNK         0.1400 
    121 C         -2.6754  -16.4599  -53.3935 C.2       22 UNK         0.5000 
    122 N         -1.5601  -16.3920  -52.6810 N.am      22 UNK        -0.7600 
    123 O         -3.4656  -15.5180  -53.3765 O.2       22 UNK        -0.5000 
    124 C124       -2.5564  -19.0621  -53.5699 C.3       23 UNK        -0.0398 
    125 S125       -0.7865  -19.4910  -53.6600 S.3       23 UNK        -0.2404 
    126 C126       -0.6114  -20.5407  -52.1839 C.3       23 UNK        -0.0205 
    127 H127       -1.6557  -10.9189  -46.6541 H         1 UNK         0.0600 
    128 H128       -0.2711  -10.6479  -45.5886 H         1 UNK         0.0600 
    129 H129       -1.0069  -12.2485  -45.6883 H         1 UNK         0.0600 
    130 H130        0.2490  -13.6539  -46.8688 H         1 UNK         0.3000 
    131 H131        1.3055  -12.9636  -49.5042 H         1 UNK         0.0600 
    132 H132        1.9363  -15.3726  -49.6098 H         1 UNK         0.0800 
    133 H133        1.4240  -15.5896  -47.9544 H         1 UNK         0.0800 
    134 H134       -0.6043  -16.8612  -47.5879 H         1 UNK         0.0800 
    135 H135       -1.9094  -17.0751  -48.7237 H         1 UNK         0.0800 
    136 H136       -1.6548  -18.4675  -50.7208 H         1 UNK         0.1150 
    137 H137        1.8244  -20.9588  -51.0376 H         1 UNK         0.1150 
    138 H138        1.6174  -17.9332  -48.0143 H         1 UNK         0.1150 
    139 H139        3.9289  -19.9219  -49.8579 H         1 UNK         0.0800 
    140 H140        3.6701  -19.1183  -48.3319 H         1 UNK         0.0800 
    141 H141        1.8936  -20.1473  -46.6848 H         1 UNK         0.0800 
    142 H142        3.0715  -21.0920  -45.8235 H         1 UNK         0.0800 
    143 H143        1.7656  -23.1829  -46.3505 H         1 UNK         0.0600 
    144 H144        1.0527  -21.2224  -44.4487 H         1 UNK         0.3000 
    145 H145       -1.4492  -23.1370  -42.7276 H         1 UNK         0.0600 
    146 H146        0.0733  -22.5243  -40.8609 H         1 UNK         0.0600 
    147 H147        0.7702  -23.8178  -41.8257 H         1 UNK         0.0600 
    148 H148        1.3690  -22.1734  -42.0022 H         1 UNK         0.0600 
    149 H149       -0.5019  -20.5057  -42.2706 H         1 UNK         0.3000 
    150 H150       -2.7520  -18.7874  -44.4788 H         1 UNK         0.0600 
    151 H151       -3.9825  -19.1616  -42.3565 H         1 UNK         0.0600 
    152 H152       -3.1822  -17.5978  -42.3364 H         1 UNK         0.0600 
    153 H153       -2.5072  -18.9483  -41.4262 H         1 UNK         0.0600 
    154 H154       -0.6377  -17.9054  -42.7473 H         1 UNK         0.3000 
    155 H155        1.9693  -17.9985  -45.1812 H         1 UNK         0.0600 
    156 H156        0.4440  -15.6557  -43.9232 H         1 UNK         0.0600 
    157 H157        2.0905  -15.6019  -44.5475 H         1 UNK         0.0600 
    158 H158        0.7436  -15.8835  -45.6379 H         1 UNK         0.0600 
    159 H159        1.7260  -17.1593  -42.4136 H         1 UNK         0.3000 
    160 H160        2.7054  -20.3077  -41.0208 H         1 UNK         0.0600 
    161 H161        4.3556  -17.7396  -41.3209 H         1 UNK         0.0600 
    162 H162        4.8852  -19.3502  -41.7927 H         1 UNK         0.0600 
    163 H163        4.5915  -18.9900  -40.0990 H         1 UNK         0.0600 
    164 H164        2.3782  -17.7545  -39.8253 H         1 UNK         0.3000 
    165 H165       -1.0923  -17.5104  -39.7025 H         1 UNK         0.0600 
    166 H166       -0.9747  -17.6623  -37.2324 H         1 UNK         0.0600 
    167 H167       -0.8860  -19.2690  -37.9342 H         1 UNK         0.0600 
    168 H168        0.5756  -18.4996  -37.3276 H         1 UNK         0.0600 
    169 H169        0.7754  -16.1400  -38.1326 H         1 UNK         0.3000 
    170 H170        1.1471  -13.9156  -38.7120 H         1 UNK         0.0600 
    171 H171        3.5548  -14.8978  -40.3539 H         1 UNK         0.0600 
    172 H172        3.6036  -13.6544  -39.1044 H         1 UNK         0.0600 
    173 H173        3.2300  -15.3136  -38.6753 H         1 UNK         0.0600 
    174 H174        2.2911  -12.9445  -41.1363 H         1 UNK         0.3000 
    175 H175       -0.2727  -11.7221  -42.8498 H         1 UNK         0.0600 
    176 H176        0.0298   -9.3226  -42.2387 H         1 UNK         0.0600 
    177 H177        0.6392   -9.7904  -40.6508 H         1 UNK         0.0600 
    178 H178       -1.0271  -10.1360  -41.0979 H         1 UNK         0.0600 
    179 H179        2.4038  -10.7157  -42.0907 H         1 UNK         0.3000 
    180 H180        4.0117  -10.7714  -43.6856 H         1 UNK         0.0600 
    181 H181        4.3074  -13.8393  -43.7539 H         1 UNK         0.0600 
    182 H182        4.5167  -12.8326  -42.3250 H         1 UNK         0.0600 
    183 H183        5.6408  -12.6902  -43.6658 H         1 UNK         0.0600 
    184 H184        3.0013  -12.2231  -45.9443 H         1 UNK         0.3000 
    185 H185        4.5503  -10.2951  -48.1044 H         1 UNK         0.0600 
    186 H186        6.7184  -11.4101  -48.2851 H         1 UNK         0.0600 
    187 H187        5.9879  -12.9980  -48.1350 H         1 UNK         0.0600 
    188 H188        5.6710  -12.0083  -49.5608 H         1 UNK         0.0600 
    189 H189        2.6125  -11.2705  -48.4902 H         1 UNK         0.3000 
    190 H190       -0.7276  -20.5813  -46.5256 H         1 UNK         0.3000 
    191 H191       -1.7254  -21.1756  -49.0814 H         1 UNK         0.0600 
    192 H192       -2.2612  -19.1242  -47.6921 H         1 UNK         0.0600 
    193 H193       -3.6855  -19.8765  -48.3945 H         1 UNK         0.0600 
    194 H194       -3.3172  -20.1018  -46.6897 H         1 UNK         0.0600 
    195 H195       -2.7285  -22.4904  -45.8967 H         1 UNK         0.3000 
    196 H196       -4.8026  -24.1792  -46.8353 H         1 UNK         0.0600 
    197 H197       -4.5696  -25.2660  -44.5993 H         1 UNK         0.0600 
    198 H198       -4.5686  -23.5138  -44.4630 H         1 UNK         0.0600 
    199 H199       -3.0577  -24.4088  -44.3263 H         1 UNK         0.0600 
    200 H200       -1.3171  -24.8735  -46.2369 H         1 UNK         0.3000 
    201 H201       -1.3640  -27.6126  -46.9606 H         1 UNK         0.0600 
    202 H202        0.4908  -26.5752  -45.6915 H         1 UNK         0.0600 
    203 H203        0.9221  -25.5737  -47.0759 H         1 UNK         0.0600 
    204 H204        1.1144  -27.3213  -47.1551 H         1 UNK         0.0600 
    205 H205       -0.8736  -24.6824  -48.9380 H         1 UNK         0.3000 
    206 H206       -0.4863  -26.1029  -51.4408 H         1 UNK         0.0600 
    207 H207        0.5014  -23.8596  -50.9895 H         1 UNK         0.0600 
    208 H208       -0.5748  -23.7933  -52.3766 H         1 UNK         0.0600 
    209 H209       -1.1100  -23.1695  -50.8176 H         1 UNK         0.0600 
    210 H210       -3.2517  -25.6691  -49.5764 H         1 UNK         0.3000 
    211 H211       -5.4407  -25.7255  -49.8176 H         1 UNK         0.0600 
    212 H212       -4.9111  -27.1182  -52.4973 H         1 UNK         0.0600 
    213 H213       -6.3940  -27.2000  -51.5550 H         1 UNK         0.0600 
    214 H214       -4.9192  -27.9126  -50.9229 H         1 UNK         0.0600 
    215 H215       -4.2486  -23.3155  -50.5218 H         1 UNK         0.3000 
    216 H216       -4.4422  -21.3401  -51.4963 H         1 UNK         0.0600 
    217 H217       -6.7035  -20.4751  -51.9485 H         1 UNK         0.0600 
    218 H218       -6.7517  -21.4900  -50.5178 H         1 UNK         0.0600 
    219 H219       -7.3580  -22.1029  -52.0567 H         1 UNK         0.0600 
    220 H220       -3.6038  -23.5893  -53.2100 H         1 UNK         0.3000 
    221 H221       -2.8464  -24.0426  -55.1979 H         1 UNK         0.0600 
    222 H222       -3.7530  -21.2710  -56.1441 H         1 UNK         0.0600 
    223 H223       -2.1643  -21.6900  -55.5019 H         1 UNK         0.0600 
    224 H224       -2.7068  -22.3708  -57.0256 H         1 UNK         0.0600 
    225 H225       -5.9988  -22.4932  -55.4326 H         1 UNK         0.3000 
    226 H226       -7.3041  -24.8875  -56.3061 H         1 UNK         0.0600 
    227 H227       -6.6582  -24.1385  -58.5805 H         1 UNK         0.0600 
    228 H228       -8.3828  -23.8901  -58.3593 H         1 UNK         0.0600 
    229 H229       -7.2801  -22.5202  -58.2729 H         1 UNK         0.0600 
    230 H230       -7.6585  -21.3118  -56.2972 H         1 UNK         0.3000 
    231 H231       -9.1462  -21.1721  -53.8926 H         1 UNK         0.0600 
    232 H232      -10.7886  -20.7940  -56.4656 H         1 UNK         0.0600 
    233 H233      -11.3312  -20.3580  -54.8486 H         1 UNK         0.0600 
    234 H234      -11.0635  -22.0383  -55.2491 H         1 UNK         0.0600 
    235 H235       -6.7712  -20.0366  -54.6590 H         1 UNK         0.3000 
    236 H236       -7.3165  -17.1845  -54.7015 H         1 UNK         0.0600 
    237 H237       -7.4120  -17.6571  -57.1465 H         1 UNK         0.0600 
    238 H238       -5.9677  -16.7454  -56.7681 H         1 UNK         0.0600 
    239 H239       -5.8605  -18.4816  -57.0805 H         1 UNK         0.0600 
    240 H240       -4.2788  -17.5925  -55.8857 H         1 UNK         0.3000 
    241 H241       -2.2415  -17.6007  -55.1277 H         1 UNK         0.0600 
    242 H242       -0.8871  -17.1438  -52.6993 H         1 UNK         0.3800 
    243 H243       -1.3897  -15.5840  -52.1028 H         1 UNK         0.3800 
    244 H244       -2.9085  -19.0608  -52.5378 H         1 UNK         0.0800 
    245 H245       -3.0812  -19.8837  -54.0547 H         1 UNK         0.0800 
    246 H246        0.0110  -21.3923  -52.4595 H         1 UNK         0.0800 
    247 H247       -1.5758  -20.9546  -51.8869 H         1 UNK         0.0800 
@<TRIPOS>BOND
     1    1    2 1    
     2    1  127 1    
     3    1  128 1    
     4    1  129 1    
     5    2    3 2    
     6    2    4 am   BACKBONE|DICT|INTERRES
     7    4    5 1    
     8    4  130 1    
     9    5    6 1    
    10    5   65 1    
    11    5  131 1    
    12    6    7 1    
    13    6  132 1    
    14    6  133 1    
    15    7    8 1    
    16    8    9 1    
    17    8  134 1    
    18    8  135 1    
    19    9   10 ar   
    20    9   14 ar   
    21   10   11 ar   
    22   10  136 1    
    23   11   12 ar   
    24   11  126 1    
    25   12   13 ar   
    26   12  137 1    
    27   13   14 ar   
    28   13   15 1    
    29   14  138 1    
    30   15   16 1    
    31   15  139 1    
    32   15  140 1    
    33   16   17 1    
    34   17   18 1    
    35   17  141 1    
    36   17  142 1    
    37   18   19 1    
    38   18   67 1    
    39   18  143 1    
    40   19   20 am   BACKBONE|DICT|INTERRES
    41   19  144 1    
    42   20   21 2    
    43   20   22 1    
    44   22   23 1    
    45   22   24 1    
    46   22  145 1    
    47   23  146 1    
    48   23  147 1    
    49   23  148 1    
    50   24   25 am   BACKBONE|DICT|INTERRES
    51   24  149 1    
    52   25   26 2    
    53   25   27 1    
    54   27   28 1    
    55   27   29 1    
    56   27  150 1    
    57   28  151 1    
    58   28  152 1    
    59   28  153 1    
    60   29   30 am   BACKBONE|DICT|INTERRES
    61   29  154 1    
    62   30   31 2    
    63   30   32 1    
    64   32   33 1    
    65   32   34 1    
    66   32  155 1    
    67   33  156 1    
    68   33  157 1    
    69   33  158 1    
    70   34   35 am   BACKBONE|DICT|INTERRES
    71   34  159 1    
    72   35   36 2    
    73   35   37 1    
    74   37   38 1    
    75   37   39 1    
    76   37  160 1    
    77   38  161 1    
    78   38  162 1    
    79   38  163 1    
    80   39   40 am   BACKBONE|DICT|INTERRES
    81   39  164 1    
    82   40   41 2    
    83   40   42 1    
    84   42   43 1    
    85   42   44 1    
    86   42  165 1    
    87   43  166 1    
    88   43  167 1    
    89   43  168 1    
    90   44   45 am   BACKBONE|DICT|INTERRES
    91   44  169 1    
    92   45   46 2    
    93   45   47 1    
    94   47   48 1    
    95   47   49 1    
    96   47  170 1    
    97   48  171 1    
    98   48  172 1    
    99   48  173 1    
   100   49   50 am   BACKBONE|DICT|INTERRES
   101   49  174 1    
   102   50   51 2    
   103   50   52 1    
   104   52   53 1    
   105   52   54 1    
   106   52  175 1    
   107   53  176 1    
   108   53  177 1    
   109   53  178 1    
   110   54   55 am   BACKBONE|DICT|INTERRES
   111   54  179 1    
   112   55   56 2    
   113   55   57 1    
   114   57   58 1    
   115   57   59 1    
   116   57  180 1    
   117   58  181 1    
   118   58  182 1    
   119   58  183 1    
   120   59   60 am   BACKBONE|DICT|INTERRES
   121   59  184 1    
   122   60   61 2    
   123   60   62 1    
   124   62   63 1    
   125   62   64 1    
   126   62  185 1    
   127   63  186 1    
   128   63  187 1    
   129   63  188 1    
   130   64   65 am   BACKBONE|DICT|INTERRES
   131   64  189 1    
   132   65   66 2    
   133   67   68 2    
   134   67   69 am   BACKBONE|DICT|INTERRES
   135   69   70 1    
   136   69  190 1    
   137   70   71 1    
   138   70   72 1    
   139   70  191 1    
   140   71  192 1    
   141   71  193 1    
   142   71  194 1    
   143   72   73 2    
   144   72   74 am   BACKBONE|DICT|INTERRES
   145   74   75 1    
   146   74  195 1    
   147   75   76 1    
   148   75   77 1    
   149   75  196 1    
   150   76  197 1    
   151   76  198 1    
   152   76  199 1    
   153   77   78 2    
   154   77   79 am   BACKBONE|DICT|INTERRES
   155   79   80 1    
   156   79  200 1    
   157   80   81 1    
   158   80   82 1    
   159   80  201 1    
   160   81  202 1    
   161   81  203 1    
   162   81  204 1    
   163   82   83 2    
   164   82   84 am   BACKBONE|DICT|INTERRES
   165   84   85 1    
   166   84  205 1    
   167   85   86 1    
   168   85   87 1    
   169   85  206 1    
   170   86  207 1    
   171   86  208 1    
   172   86  209 1    
   173   87   88 2    
   174   87   89 am   BACKBONE|DICT|INTERRES
   175   89   90 1    
   176   89  210 1    
   177   90   91 1    
   178   90   92 1    
   179   90  211 1    
   180   91  212 1    
   181   91  213 1    
   182   91  214 1    
   183   92   93 2    
   184   92   94 am   BACKBONE|DICT|INTERRES
   185   94   95 1    
   186   94  215 1    
   187   95   96 1    
   188   95   97 1    
   189   95  216 1    
   190   96  217 1    
   191   96  218 1    
   192   96  219 1    
   193   97   98 2    
   194   97   99 am   BACKBONE|DICT|INTERRES
   195   99  100 1    
   196   99  220 1    
   197  100  101 1    
   198  100  102 1    
   199  100  221 1    
   200  101  222 1    
   201  101  223 1    
   202  101  224 1    
   203  102  103 2    
   204  102  104 am   BACKBONE|DICT|INTERRES
   205  104  105 1    
   206  104  225 1    
   207  105  106 1    
   208  105  107 1    
   209  105  226 1    
   210  106  227 1    
   211  106  228 1    
   212  106  229 1    
   213  107  108 2    
   214  107  109 am   BACKBONE|DICT|INTERRES
   215  109  110 1    
   216  109  230 1    
   217  110  111 1    
   218  110  112 1    
   219  110  231 1    
   220  111  232 1    
   221  111  233 1    
   222  111  234 1    
   223  112  113 2    
   224  112  114 am   BACKBONE|DICT|INTERRES
   225  114  115 1    
   226  114  235 1    
   227  115  116 1    
   228  115  117 1    
   229  115  236 1    
   230  116  237 1    
   231  116  238 1    
   232  116  239 1    
   233  117  118 2    
   234  117  119 am   BACKBONE|DICT|INTERRES
   235  119  120 1    
   236  119  240 1    
   237  120  121 1    
   238  120  124 1    
   239  120  241 1    
   240  121  122 am   BACKBONE|DICT|INTERRES
   241  121  123 2    
   242  122  242 1    
   243  122  243 1    
   244  124  125 1    
   245  124  244 1    
   246  124  245 1    
   247  125  126 1    
   248  126  246 1    
   249  126  247 1    
@<TRIPOS>SUBSTRUCTURE
     1 UNK         1 GROUP             0       ****    0 ROOT    
