@<TRIPOS>MOLECULE
3R540
247   249    1
SMALL
USER_CHARGES


@<TRIPOS>ATOM
      1 CA         -1.3460  -12.0083  -46.2374 C.3       0 UNK        -0.1800 
      2 C          -1.0993  -13.4944  -46.0290 C.2       0 UNK         0.5000 
      3 O          -1.7287  -14.1035  -45.1662 O.2       0 UNK        -0.5000 
      4 N          -0.2049  -14.0875  -46.8289 N.am      1 UNK        -0.5000 
      5 CA          0.2419  -15.4921  -46.7932 C.3       1 UNK         0.1400 
      6 C6          1.3490  -15.7633  -47.8469 C.3       23 UNK        -0.0398 
      7 S7          0.9497  -15.1195  -49.5123 S.3       23 UNK        -0.2404 
      8 C8          2.2601  -15.8713  -50.5227 C.3       23 UNK        -0.0205 
      9 C9          1.8403  -17.2342  -51.0473 C.ar      23 UNK        -0.0193 
     10 C10         1.0630  -17.3252  -52.2043 C.ar      23 UNK        -0.1150 
     11 C11         0.6790  -18.5712  -52.7046 C.ar      23 UNK        -0.0193 
     12 C12         1.0768  -19.7308  -52.0348 C.ar      23 UNK        -0.1150 
     13 C13         1.8408  -19.6587  -50.8653 C.ar      23 UNK        -0.0193 
     14 C14         2.2314  -18.4009  -50.3864 C.ar      23 UNK        -0.1150 
     15 C15         2.2425  -20.9608  -50.1716 C.3       23 UNK        -0.0205 
     16 S16         2.6393  -20.8166  -48.3950 S.3       23 UNK        -0.2404 
     17 C17         1.0207  -20.3702  -47.6749 C.3       23 UNK        -0.0398 
     18 CA          0.2610  -21.5947  -47.1163 C.3       11 UNK         0.1400 
     19 N           1.0629  -22.3796  -46.1756 N.am      11 UNK        -0.5000 
     20 C           0.7487  -23.6064  -45.7424 C.2       10 UNK         0.5000 
     21 O          -0.2672  -24.2147  -46.0783 O.2       10 UNK        -0.5000 
     22 CA          1.7221  -24.2425  -44.7355 C.3       10 UNK         0.1400 
     23 CB          2.9051  -24.8963  -45.4650 C.3       10 UNK        -0.1800 
     24 N           2.2270  -23.2815  -43.7524 N.am      10 UNK        -0.5000 
     25 C           1.4632  -22.6858  -42.8267 C.2       9 UNK         0.5000 
     26 O           0.2495  -22.8616  -42.7211 O.2       9 UNK        -0.5000 
     27 CA          2.1720  -21.7054  -41.8774 C.3       9 UNK         0.1400 
     28 CB          3.0395  -22.4687  -40.8639 C.3       9 UNK        -0.1800 
     29 N           2.9882  -20.6851  -42.5470 N.am      9 UNK        -0.5000 
     30 C           2.5901  -19.8707  -43.5345 C.2       8 UNK         0.5000 
     31 O           1.4734  -19.9124  -44.0513 O.2       8 UNK        -0.5000 
     32 CA          3.6139  -18.8214  -43.9921 C.3       8 UNK         0.1400 
     33 CB          3.2959  -18.2297  -45.3784 C.3       8 UNK        -0.1800 
     34 N           3.6644  -17.7392  -43.0146 N.am      8 UNK        -0.5000 
     35 C           4.7682  -17.0482  -42.7022 C.2       7 UNK         0.5000 
     36 O           5.8891  -17.3171  -43.1362 O.2       7 UNK        -0.5000 
     37 CA          4.5991  -15.8479  -41.7573 C.3       7 UNK         0.1400 
     38 CB          4.0565  -14.6327  -42.5276 C.3       7 UNK        -0.1800 
     39 N           3.6957  -16.1574  -40.6512 N.am      7 UNK        -0.5000 
     40 C           4.0886  -16.4931  -39.4141 C.2       6 UNK         0.5000 
     41 O           5.2683  -16.5705  -39.0686 O.2       6 UNK        -0.5000 
     42 CA          2.9837  -16.7823  -38.3760 C.3       6 UNK         0.1400 
     43 CB          2.7138  -15.5352  -37.5200 C.3       6 UNK        -0.1800 
     44 N           1.7265  -17.2193  -38.9830 N.am      6 UNK        -0.5000 
     45 C           1.5432  -18.4082  -39.5717 C.2       5 UNK         0.5000 
     46 O           2.3831  -19.3063  -39.5605 O.2       5 UNK        -0.5000 
     47 CA          0.2179  -18.6190  -40.3306 C.3       5 UNK         0.1400 
     48 CB         -0.7599  -19.4595  -39.4968 C.3       5 UNK        -0.1800 
     49 N          -0.4433  -17.3802  -40.7489 N.am      5 UNK        -0.5000 
     50 C           0.0668  -16.4891  -41.6066 C.2       4 UNK         0.5000 
     51 O           1.1755  -16.6148  -42.1308 O.2       4 UNK        -0.5000 
     52 CA         -0.8001  -15.2513  -41.9009 C.3       4 UNK         0.1400 
     53 CB          0.0340  -14.0923  -42.4752 C.3       4 UNK        -0.1800 
     54 N          -1.8977  -15.5542  -42.8194 N.am      4 UNK        -0.5000 
     55 C          -3.0022  -16.2490  -42.5138 C.2       3 UNK         0.5000 
     56 O          -3.2071  -16.7281  -41.3973 O.2       3 UNK        -0.5000 
     57 CA         -4.0664  -16.4430  -43.6092 C.3       3 UNK         0.1400 
     58 CB         -5.1832  -15.3959  -43.4696 C.3       3 UNK        -0.1800 
     59 N          -3.5244  -16.3883  -44.9699 N.am      3 UNK        -0.5000 
     60 C          -3.9080  -17.1962  -45.9702 C.2       2 UNK         0.5000 
     61 O          -4.7489  -18.0858  -45.8379 O.2       2 UNK        -0.5000 
     62 CA         -3.2806  -16.9812  -47.3639 C.3       2 UNK         0.1400 
     63 CB         -4.3011  -16.3276  -48.3092 C.3       2 UNK        -0.1800 
     64 N          -2.0705  -16.1611  -47.3492 N.am      2 UNK        -0.5000 
     65 C          -0.8822  -16.5530  -46.8730 C.2       1 UNK         0.5000 
     66 O          -0.6590  -17.6920  -46.4669 O.2       1 UNK        -0.5000 
     67 C          -1.0749  -21.1696  -46.4816 C.2       11 UNK         0.5000 
     68 O          -2.1138  -21.2815  -47.1309 O.2       11 UNK        -0.5000 
     69 N          -1.0293  -20.7465  -45.2112 N.am      12 UNK        -0.5000 
     70 CA         -2.1979  -20.3803  -44.4178 C.3       12 UNK         0.1400 
     71 CB         -1.7414  -19.6884  -43.1293 C.3       12 UNK        -0.1800 
     72 C          -3.1013  -21.5839  -44.1034 C.2       12 UNK         0.5000 
     73 O          -4.3224  -21.4567  -44.1846 O.2       12 UNK        -0.5000 
     74 N          -2.4927  -22.7364  -43.7854 N.am      13 UNK        -0.5000 
     75 CA         -3.1890  -24.0022  -43.5423 C.3       13 UNK         0.1400 
     76 CB         -2.1991  -25.0394  -42.9912 C.3       13 UNK        -0.1800 
     77 C          -3.9005  -24.5410  -44.7973 C.2       13 UNK         0.5000 
     78 O          -5.0247  -25.0335  -44.6953 O.2       13 UNK        -0.5000 
     79 N          -3.2463  -24.4119  -45.9593 N.am      14 UNK        -0.5000 
     80 CA         -3.8009  -24.7635  -47.2674 C.3       14 UNK         0.1400 
     81 CB         -2.6437  -24.9003  -48.2697 C.3       14 UNK        -0.1800 
     82 C          -4.8332  -23.7443  -47.7912 C.2       14 UNK         0.5000 
     83 O          -5.6069  -24.0859  -48.6863 O.2       14 UNK        -0.5000 
     84 N          -4.7985  -22.5143  -47.2550 N.am      15 UNK        -0.5000 
     85 CA         -5.4947  -21.3103  -47.7242 C.3       15 UNK         0.1400 
     86 CB         -7.0203  -21.4395  -47.5391 C.3       15 UNK        -0.1800 
     87 C          -5.0762  -20.9417  -49.1645 C.2       15 UNK         0.5000 
     88 O          -5.9194  -20.6210  -50.0044 O.2       15 UNK        -0.5000 
     89 N          -3.7679  -21.0500  -49.4259 N.am      16 UNK        -0.5000 
     90 CA         -3.1409  -20.8543  -50.7268 C.3       16 UNK         0.1400 
     91 CB         -1.7158  -21.4209  -50.6670 C.3       16 UNK        -0.1800 
     92 C          -3.1340  -19.3709  -51.1315 C.2       16 UNK         0.5000 
     93 O          -2.7744  -18.5176  -50.3207 O.2       16 UNK        -0.5000 
     94 N          -3.5206  -19.0967  -52.3795 N.am      17 UNK        -0.5000 
     95 CA         -3.6562  -17.7635  -52.9573 C.3       17 UNK         0.1400 
     96 CB         -4.9529  -17.1041  -52.4446 C.3       17 UNK        -0.1800 
     97 C          -3.6593  -17.8909  -54.4889 C.2       17 UNK         0.5000 
     98 O          -3.5462  -19.0049  -55.0139 O.2       17 UNK        -0.5000 
     99 N          -3.7967  -16.7573  -55.1881 N.am      18 UNK        -0.5000 
    100 CA        -4.0058  -16.6936  -56.6369 C.3       18 UNK         0.1400 
    101 CB        -4.0661  -15.2240  -57.0772 C.3       18 UNK        -0.1800 
    102 C         -5.2884  -17.4406  -57.0472 C.2       18 UNK         0.5000 
    103 O         -6.3086  -17.3125  -56.3670 O.2       18 UNK        -0.5000 
    104 N         -5.1897  -18.2502  -58.1090 N.am      19 UNK        -0.5000 
    105 CA        -6.1863  -19.1932  -58.6408 C.3       19 UNK         0.1400 
    106 CB        -7.4984  -18.4853  -59.0301 C.3       19 UNK        -0.1800 
    107 C         -6.4537  -20.4150  -57.7346 C.2       19 UNK         0.5000 
    108 O         -6.6525  -21.5125  -58.2558 O.2       19 UNK        -0.5000 
    109 N         -6.4313  -20.2223  -56.4095 N.am      20 UNK        -0.5000 
    110 CA        -6.6080  -21.2627  -55.3956 C.3       20 UNK         0.1400 
    111 CB        -6.8242  -20.5994  -54.0264 C.3       20 UNK        -0.1800 
    112 C         -5.4302  -22.2533  -55.3352 C.2       20 UNK         0.5000 
    113 O         -5.6545  -23.4464  -55.1271 O.2       20 UNK        -0.5000 
    114 N         -4.2063  -21.7441  -55.5211 N.am      21 UNK        -0.5000 
    115 CA        -2.9682  -22.5229  -55.5182 C.3       21 UNK         0.1400 
    116 CB        -2.3773  -22.5528  -54.1002 C.3       21 UNK        -0.1800 
    117 C         -1.9516  -21.9608  -56.5224 C.2       21 UNK         0.5000 
    118 O         -1.3321  -22.7354  -57.2518 O.2       21 UNK        -0.5000 
    119 N         -1.8134  -20.6294  -56.5611 N.am      22 UNK        -0.5000 
    120 CA        -0.9086  -19.9012  -57.4689 C.3       22 UNK         0.1400 
    121 C         -1.5473  -19.5556  -58.8486 C.2       22 UNK         0.5000 
    122 N         -2.7318  -20.0535  -59.1828 N.am      22 UNK        -0.7600 
    123 O         -0.9541  -18.8325  -59.6438 O.2       22 UNK        -0.5000 
    124 C124       -0.3003  -18.6494  -56.7829 C.3       23 UNK        -0.0398 
    125 S125        0.8375  -19.0679  -55.4177 S.3       23 UNK        -0.2404 
    126 C126       -0.1698  -18.6594  -53.9622 C.3       23 UNK        -0.0205 
    127 H127       -2.3933  -11.8337  -46.4832 H         1 UNK         0.0600 
    128 H128       -0.7336  -11.6044  -47.0439 H         1 UNK         0.0600 
    129 H129       -1.1128  -11.4604  -45.3245 H         1 UNK         0.0600 
    130 H130        0.2415  -13.5326  -47.5459 H         1 UNK         0.3000 
    131 H131        0.6945  -15.6349  -45.8095 H         1 UNK         0.0600 
    132 H132        2.2734  -15.2831  -47.5233 H         1 UNK         0.0800 
    133 H133        1.5807  -16.8283  -47.9106 H         1 UNK         0.0800 
    134 H134        2.4763  -15.2107  -51.3636 H         1 UNK         0.0800 
    135 H135        3.1852  -15.9422  -49.9485 H         1 UNK         0.0800 
    136 H136        0.7591  -16.4225  -52.7155 H         1 UNK         0.1150 
    137 H137        0.7946  -20.6948  -52.4330 H         1 UNK         0.1150 
    138 H138        2.8412  -18.3198  -49.4987 H         1 UNK         0.1150 
    139 H139        1.4498  -21.7020  -50.2852 H         1 UNK         0.0800 
    140 H140        3.1162  -21.3634  -50.6853 H         1 UNK         0.0800 
    141 H141        0.4179  -19.8480  -48.4196 H         1 UNK         0.0800 
    142 H142        1.1969  -19.6444  -46.8806 H         1 UNK         0.0800 
    143 H143        0.0222  -22.2461  -47.9601 H         1 UNK         0.0600 
    144 H144        1.8983  -21.9379  -45.8228 H         1 UNK         0.3000 
    145 H145        1.1796  -25.0231  -44.1979 H         1 UNK         0.0600 
    146 H146        3.5596  -25.4179  -44.7665 H         1 UNK         0.0600 
    147 H147        2.5563  -25.6308  -46.1922 H         1 UNK         0.0600 
    148 H148        3.5046  -24.1609  -46.0031 H         1 UNK         0.0600 
    149 H149        3.2141  -23.0723  -43.7773 H         1 UNK         0.3000 
    150 H150        1.3912  -21.1915  -41.3190 H         1 UNK         0.0600 
    151 H151        2.4556  -23.2294  -40.3439 H         1 UNK         0.0600 
    152 H152        3.4418  -21.7978  -40.1048 H         1 UNK         0.0600 
    153 H153        3.8795  -22.9705  -41.3453 H         1 UNK         0.0600 
    154 H154        3.9134  -20.5484  -42.1667 H         1 UNK         0.3000 
    155 H155        4.5831  -19.3212  -44.0502 H         1 UNK         0.0600 
    156 H156        2.3083  -17.7670  -45.4053 H         1 UNK         0.0600 
    157 H157        4.0263  -17.4727  -45.6640 H         1 UNK         0.0600 
    158 H158        3.3258  -19.0050  -46.1419 H         1 UNK         0.0600 
    159 H159        2.7672  -17.4427  -42.6358 H         1 UNK         0.3000 
    160 H160        5.5865  -15.5821  -41.3736 H         1 UNK         0.0600 
    161 H161        3.9606  -13.7642  -41.8758 H         1 UNK         0.0600 
    162 H162        3.0778  -14.8317  -42.9654 H         1 UNK         0.0600 
    163 H163        4.7281  -14.3563  -43.3413 H         1 UNK         0.0600 
    164 H164        2.7083  -16.1734  -40.8758 H         1 UNK         0.3000 
    165 H165        3.3451  -17.5769  -37.7196 H         1 UNK         0.0600 
    166 H166        1.9819  -15.7431  -36.7392 H         1 UNK         0.0600 
    167 H167        3.6255  -15.1955  -37.0267 H         1 UNK         0.0600 
    168 H168        2.3383  -14.7068  -38.1222 H         1 UNK         0.0600 
    169 H169        0.9764  -16.5452  -39.0182 H         1 UNK         0.3000 
    170 H170        0.4594  -19.1661  -41.2413 H         1 UNK         0.0600 
    171 H171       -0.3133  -20.4143  -39.2158 H         1 UNK         0.0600 
    172 H172       -1.0466  -18.9464  -38.5782 H         1 UNK         0.0600 
    173 H173       -1.6696  -19.6799  -40.0553 H         1 UNK         0.0600 
    174 H174       -1.3947  -17.2357  -40.4299 H         1 UNK         0.3000 
    175 H175       -1.2254  -14.9111  -40.9544 H         1 UNK         0.0600 
    176 H176       -0.5780  -13.2028  -42.6258 H         1 UNK         0.0600 
    177 H177        0.4839  -14.3543  -43.4336 H         1 UNK         0.0600 
    178 H178        0.8434  -13.8187  -41.7972 H         1 UNK         0.0600 
    179 H179       -1.8183  -15.1290  -43.7400 H         1 UNK         0.3000 
    180 H180       -4.4997  -17.4289  -43.4278 H         1 UNK         0.0600 
    181 H181       -4.8118  -14.3883  -43.6611 H         1 UNK         0.0600 
    182 H182       -5.6088  -15.4061  -42.4653 H         1 UNK         0.0600 
    183 H183       -5.9964  -15.5921  -44.1686 H         1 UNK         0.0600 
    184 H184       -2.8454  -15.6586  -45.1635 H         1 UNK         0.3000 
    185 H185       -3.0217  -17.9667  -47.7564 H         1 UNK         0.0600 
    186 H186       -5.1860  -16.9553  -48.4215 H         1 UNK         0.0600 
    187 H187       -4.6290  -15.3557  -47.9385 H         1 UNK         0.0600 
    188 H188       -3.8798  -16.1830  -49.3040 H         1 UNK         0.0600 
    189 H189       -2.1653  -15.2056  -47.6591 H         1 UNK         0.3000 
    190 H190       -0.1233  -20.6279  -44.7641 H         1 UNK         0.3000 
    191 H191       -2.7816  -19.6678  -44.9995 H         1 UNK         0.0600 
    192 H192       -1.1530  -18.7979  -43.3520 H         1 UNK         0.0600 
    193 H193       -2.5948  -19.3774  -42.5261 H         1 UNK         0.0600 
    194 H194       -1.1296  -20.3538  -42.5201 H         1 UNK         0.0600 
    195 H195       -1.4825  -22.7461  -43.6786 H         1 UNK         0.3000 
    196 H196       -3.9508  -23.8232  -42.7807 H         1 UNK         0.0600 
    197 H197       -2.6967  -25.9900  -42.7954 H         1 UNK         0.0600 
    198 H198       -1.7596  -24.7035  -42.0519 H         1 UNK         0.0600 
    199 H199       -1.3856  -25.2315  -43.6913 H         1 UNK         0.0600 
    200 H200       -2.2936  -24.0611  -45.9502 H         1 UNK         0.3000 
    201 H201       -4.3012  -25.7308  -47.1873 H         1 UNK         0.0600 
    202 H202       -1.9416  -25.6736  -47.9578 H         1 UNK         0.0600 
    203 H203       -2.0890  -23.9665  -48.3691 H         1 UNK         0.0600 
    204 H204       -3.0097  -25.1731  -49.2603 H         1 UNK         0.0600 
    205 H205       -4.0961  -22.3457  -46.5469 H         1 UNK         0.3000 
    206 H206       -5.1520  -20.4944  -47.0867 H         1 UNK         0.0600 
    207 H207       -7.2700  -21.6965  -46.5097 H         1 UNK         0.0600 
    208 H208       -7.5195  -20.4976  -47.7690 H         1 UNK         0.0600 
    209 H209       -7.4475  -22.2027  -48.1900 H         1 UNK         0.0600 
    210 H210       -3.1431  -21.2430  -48.6460 H         1 UNK         0.3000 
    211 H211       -3.7103  -21.4255  -51.4631 H         1 UNK         0.0600 
    212 H212       -1.0966  -20.8700  -49.9594 H         1 UNK         0.0600 
    213 H213       -1.2336  -21.3626  -51.6400 H         1 UNK         0.0600 
    214 H214       -1.7165  -22.4695  -50.3697 H         1 UNK         0.0600 
    215 H215       -3.7433  -19.8447  -53.0219 H         1 UNK         0.3000 
    216 H216       -2.7943  -17.1583  -52.6693 H         1 UNK         0.0600 
    217 H217       -5.0505  -16.0799  -52.8052 H         1 UNK         0.0600 
    218 H218       -4.9753  -17.0597  -51.3560 H         1 UNK         0.0600 
    219 H219       -5.8372  -17.6532  -52.7703 H         1 UNK         0.0600 
    220 H220       -3.9031  -15.8871  -54.6882 H         1 UNK         0.3000 
    221 H221       -3.1518  -17.1650  -57.1253 H         1 UNK         0.0600 
    222 H222       -3.1444  -14.6986  -56.8268 H         1 UNK         0.0600 
    223 H223       -4.2014  -15.1453  -58.1567 H         1 UNK         0.0600 
    224 H224       -4.8944  -14.6956  -56.6031 H         1 UNK         0.0600 
    225 H225       -4.2913  -18.3019  -58.5703 H         1 UNK         0.3000 
    226 H226       -5.7498  -19.5853  -59.5607 H         1 UNK         0.0600 
    227 H227       -7.3100  -17.6430  -59.6957 H         1 UNK         0.0600 
    228 H228       -8.1657  -19.1707  -59.5540 H         1 UNK         0.0600 
    229 H229       -8.0390  -18.1127  -58.1599 H         1 UNK         0.0600 
    230 H230       -6.3040  -19.2711  -56.0805 H         1 UNK         0.3000 
    231 H231       -7.5071  -21.8297  -55.6456 H         1 UNK         0.0600 
    232 H232       -5.9698  -19.9896  -53.7345 H         1 UNK         0.0600 
    233 H233       -6.9737  -21.3474  -53.2465 H         1 UNK         0.0600 
    234 H234       -7.7051  -19.9574  -54.0338 H         1 UNK         0.0600 
    235 H235       -4.1153  -20.7423  -55.6533 H         1 UNK         0.3000 
    236 H236       -3.1822  -23.5489  -55.8257 H         1 UNK         0.0600 
    237 H237       -3.0601  -23.0289  -53.3965 H         1 UNK         0.0600 
    238 H238       -1.4410  -23.1116  -54.0755 H         1 UNK         0.0600 
    239 H239       -2.1702  -21.5453  -53.7425 H         1 UNK         0.0600 
    240 H240       -2.3710  -20.0514  -55.9391 H         1 UNK         0.3000 
    241 H241       -0.0725  -20.5578  -57.7164 H         1 UNK         0.0600 
    242 H242       -3.1851  -20.7248  -58.5853 H         1 UNK         0.3800 
    243 H243       -3.0914  -19.8716  -60.1068 H         1 UNK         0.3800 
    244 H244        0.2849  -18.0651  -57.4950 H         1 UNK         0.0800 
    245 H245       -1.0853  -17.9831  -56.4274 H         1 UNK         0.0800 
    246 H246       -0.9451  -19.4151  -53.8352 H         1 UNK         0.0800 
    247 H247       -0.6787  -17.7094  -54.1277 H         1 UNK         0.0800 
@<TRIPOS>BOND
     1    1    2 1    
     2    1  127 1    
     3    1  128 1    
     4    1  129 1    
     5    2    3 2    
     6    2    4 am   BACKBONE|DICT|INTERRES
     7    4    5 1    
     8    4  130 1    
     9    5    6 1    
    10    5   65 1    
    11    5  131 1    
    12    6    7 1    
    13    6  132 1    
    14    6  133 1    
    15    7    8 1    
    16    8    9 1    
    17    8  134 1    
    18    8  135 1    
    19    9   10 ar   
    20    9   14 ar   
    21   10   11 ar   
    22   10  136 1    
    23   11   12 ar   
    24   11  126 1    
    25   12   13 ar   
    26   12  137 1    
    27   13   14 ar   
    28   13   15 1    
    29   14  138 1    
    30   15   16 1    
    31   15  139 1    
    32   15  140 1    
    33   16   17 1    
    34   17   18 1    
    35   17  141 1    
    36   17  142 1    
    37   18   19 1    
    38   18   67 1    
    39   18  143 1    
    40   19   20 am   BACKBONE|DICT|INTERRES
    41   19  144 1    
    42   20   21 2    
    43   20   22 1    
    44   22   23 1    
    45   22   24 1    
    46   22  145 1    
    47   23  146 1    
    48   23  147 1    
    49   23  148 1    
    50   24   25 am   BACKBONE|DICT|INTERRES
    51   24  149 1    
    52   25   26 2    
    53   25   27 1    
    54   27   28 1    
    55   27   29 1    
    56   27  150 1    
    57   28  151 1    
    58   28  152 1    
    59   28  153 1    
    60   29   30 am   BACKBONE|DICT|INTERRES
    61   29  154 1    
    62   30   31 2    
    63   30   32 1    
    64   32   33 1    
    65   32   34 1    
    66   32  155 1    
    67   33  156 1    
    68   33  157 1    
    69   33  158 1    
    70   34   35 am   BACKBONE|DICT|INTERRES
    71   34  159 1    
    72   35   36 2    
    73   35   37 1    
    74   37   38 1    
    75   37   39 1    
    76   37  160 1    
    77   38  161 1    
    78   38  162 1    
    79   38  163 1    
    80   39   40 am   BACKBONE|DICT|INTERRES
    81   39  164 1    
    82   40   41 2    
    83   40   42 1    
    84   42   43 1    
    85   42   44 1    
    86   42  165 1    
    87   43  166 1    
    88   43  167 1    
    89   43  168 1    
    90   44   45 am   BACKBONE|DICT|INTERRES
    91   44  169 1    
    92   45   46 2    
    93   45   47 1    
    94   47   48 1    
    95   47   49 1    
    96   47  170 1    
    97   48  171 1    
    98   48  172 1    
    99   48  173 1    
   100   49   50 am   BACKBONE|DICT|INTERRES
   101   49  174 1    
   102   50   51 2    
   103   50   52 1    
   104   52   53 1    
   105   52   54 1    
   106   52  175 1    
   107   53  176 1    
   108   53  177 1    
   109   53  178 1    
   110   54   55 am   BACKBONE|DICT|INTERRES
   111   54  179 1    
   112   55   56 2    
   113   55   57 1    
   114   57   58 1    
   115   57   59 1    
   116   57  180 1    
   117   58  181 1    
   118   58  182 1    
   119   58  183 1    
   120   59   60 am   BACKBONE|DICT|INTERRES
   121   59  184 1    
   122   60   61 2    
   123   60   62 1    
   124   62   63 1    
   125   62   64 1    
   126   62  185 1    
   127   63  186 1    
   128   63  187 1    
   129   63  188 1    
   130   64   65 am   BACKBONE|DICT|INTERRES
   131   64  189 1    
   132   65   66 2    
   133   67   68 2    
   134   67   69 am   BACKBONE|DICT|INTERRES
   135   69   70 1    
   136   69  190 1    
   137   70   71 1    
   138   70   72 1    
   139   70  191 1    
   140   71  192 1    
   141   71  193 1    
   142   71  194 1    
   143   72   73 2    
   144   72   74 am   BACKBONE|DICT|INTERRES
   145   74   75 1    
   146   74  195 1    
   147   75   76 1    
   148   75   77 1    
   149   75  196 1    
   150   76  197 1    
   151   76  198 1    
   152   76  199 1    
   153   77   78 2    
   154   77   79 am   BACKBONE|DICT|INTERRES
   155   79   80 1    
   156   79  200 1    
   157   80   81 1    
   158   80   82 1    
   159   80  201 1    
   160   81  202 1    
   161   81  203 1    
   162   81  204 1    
   163   82   83 2    
   164   82   84 am   BACKBONE|DICT|INTERRES
   165   84   85 1    
   166   84  205 1    
   167   85   86 1    
   168   85   87 1    
   169   85  206 1    
   170   86  207 1    
   171   86  208 1    
   172   86  209 1    
   173   87   88 2    
   174   87   89 am   BACKBONE|DICT|INTERRES
   175   89   90 1    
   176   89  210 1    
   177   90   91 1    
   178   90   92 1    
   179   90  211 1    
   180   91  212 1    
   181   91  213 1    
   182   91  214 1    
   183   92   93 2    
   184   92   94 am   BACKBONE|DICT|INTERRES
   185   94   95 1    
   186   94  215 1    
   187   95   96 1    
   188   95   97 1    
   189   95  216 1    
   190   96  217 1    
   191   96  218 1    
   192   96  219 1    
   193   97   98 2    
   194   97   99 am   BACKBONE|DICT|INTERRES
   195   99  100 1    
   196   99  220 1    
   197  100  101 1    
   198  100  102 1    
   199  100  221 1    
   200  101  222 1    
   201  101  223 1    
   202  101  224 1    
   203  102  103 2    
   204  102  104 am   BACKBONE|DICT|INTERRES
   205  104  105 1    
   206  104  225 1    
   207  105  106 1    
   208  105  107 1    
   209  105  226 1    
   210  106  227 1    
   211  106  228 1    
   212  106  229 1    
   213  107  108 2    
   214  107  109 am   BACKBONE|DICT|INTERRES
   215  109  110 1    
   216  109  230 1    
   217  110  111 1    
   218  110  112 1    
   219  110  231 1    
   220  111  232 1    
   221  111  233 1    
   222  111  234 1    
   223  112  113 2    
   224  112  114 am   BACKBONE|DICT|INTERRES
   225  114  115 1    
   226  114  235 1    
   227  115  116 1    
   228  115  117 1    
   229  115  236 1    
   230  116  237 1    
   231  116  238 1    
   232  116  239 1    
   233  117  118 2    
   234  117  119 am   BACKBONE|DICT|INTERRES
   235  119  120 1    
   236  119  240 1    
   237  120  121 1    
   238  120  124 1    
   239  120  241 1    
   240  121  122 am   BACKBONE|DICT|INTERRES
   241  121  123 2    
   242  122  242 1    
   243  122  243 1    
   244  124  125 1    
   245  124  244 1    
   246  124  245 1    
   247  125  126 1    
   248  126  246 1    
   249  126  247 1    
@<TRIPOS>SUBSTRUCTURE
     1 UNK         1 GROUP             0       ****    0 ROOT    
