@<TRIPOS>MOLECULE
3R540
247   249    1
SMALL
USER_CHARGES


@<TRIPOS>ATOM
      1 CA         -1.2821  -14.8279  -52.9170 C.3       0 UNK        -0.1800 
      2 C          -1.0041  -15.4771  -51.5689 C.2       0 UNK         0.5000 
      3 O          -1.3160  -16.6506  -51.3817 O.2       0 UNK        -0.5000 
      4 N          -0.4170  -14.7147  -50.6362 N.am      1 UNK        -0.5000 
      5 CA          0.0268  -15.1502  -49.3019 C.3       1 UNK         0.1400 
      6 C6          1.1281  -16.2446  -49.3331 C.3       23 UNK        -0.0398 
      7 S7          2.6353  -15.7052  -50.2144 S.3       23 UNK        -0.2404 
      8 C8          2.6763  -16.8296  -51.6531 C.3       23 UNK        -0.0205 
      9 C9          2.7090  -18.3052  -51.2685 C.ar      23 UNK        -0.0193 
     10 C10         1.8304  -19.2040  -51.8831 C.ar      23 UNK        -0.1150 
     11 C11         1.8257  -20.5526  -51.5175 C.ar      23 UNK        -0.0193 
     12 C12         2.6879  -20.9958  -50.5125 C.ar      23 UNK        -0.1150 
     13 C13         3.5649  -20.1088  -49.8839 C.ar      23 UNK        -0.0193 
     14 C14         3.5972  -18.7728  -50.2926 C.ar      23 UNK        -0.1150 
     15 C15         4.4446  -20.5930  -48.7378 C.3       23 UNK        -0.0205 
     16 S16         4.0469  -19.8411  -47.1142 S.3       23 UNK        -0.2404 
     17 C17         2.2579  -19.4764  -47.1932 C.3       23 UNK        -0.0398 
     18 CA          1.3577  -20.7329  -47.1507 C.3       11 UNK         0.1400 
     19 N           1.4283  -21.4489  -45.8745 N.am      11 UNK        -0.5000 
     20 C           0.9115  -22.6702  -45.6665 C.2       10 UNK         0.5000 
     21 O           0.3542  -23.3302  -46.5416 O.2       10 UNK        -0.5000 
     22 CA          0.9820  -23.2435  -44.2378 C.3       10 UNK         0.1400 
     23 CB          2.2843  -24.0331  -44.0419 C.3       10 UNK        -0.1800 
     24 N           0.8796  -22.2249  -43.1953 N.am      10 UNK        -0.5000 
     25 C          -0.1417  -21.3712  -43.0376 C.2       9 UNK         0.5000 
     26 O          -1.1732  -21.4064  -43.7093 O.2       9 UNK        -0.5000 
     27 CA          0.0485  -20.2552  -41.9912 C.3       9 UNK         0.1400 
     28 CB         -0.6446  -20.6489  -40.6792 C.3       9 UNK        -0.1800 
     29 N           1.4534  -19.9055  -41.7252 N.am      9 UNK        -0.5000 
     30 C           2.3286  -19.4812  -42.6539 C.2       8 UNK         0.5000 
     31 O           2.0415  -19.3940  -43.8470 O.2       8 UNK        -0.5000 
     32 CA          3.7587  -19.1145  -42.2132 C.3       8 UNK         0.1400 
     33 CB          4.0909  -17.6581  -42.5754 C.3       8 UNK        -0.1800 
     34 N           3.9812  -19.3089  -40.7814 N.am      8 UNK        -0.5000 
     35 C           4.4758  -20.4270  -40.2316 C.2       7 UNK         0.5000 
     36 O           4.7970  -21.4212  -40.8832 O.2       7 UNK        -0.5000 
     37 CA          4.6277  -20.4517  -38.6959 C.3       7 UNK         0.1400 
     38 CB          6.0771  -20.1376  -38.2950 C.3       7 UNK        -0.1800 
     39 N           3.7312  -19.5263  -37.9984 N.am      7 UNK        -0.5000 
     40 C           2.3956  -19.6195  -37.9935 C.2       6 UNK         0.5000 
     41 O           1.7811  -20.5233  -38.5612 O.2       6 UNK        -0.5000 
     42 CA          1.5980  -18.5029  -37.2895 C.3       6 UNK         0.1400 
     43 CB          2.4691  -17.4605  -36.5515 C.3       6 UNK        -0.1800 
     44 N           0.6857  -17.8427  -38.2293 N.am      6 UNK        -0.5000 
     45 C           1.0203  -17.2086  -39.3623 C.2       5 UNK         0.5000 
     46 O           2.1817  -17.0579  -39.7530 O.2       5 UNK        -0.5000 
     47 CA         -0.1472  -16.6634  -40.1976 C.3       5 UNK         0.1400 
     48 CB         -0.8978  -15.5423  -39.4546 C.3       5 UNK        -0.1800 
     49 N           0.3483  -16.1469  -41.4702 N.am      5 UNK        -0.5000 
     50 C          -0.3496  -16.1212  -42.6091 C.2       4 UNK         0.5000 
     51 O          -1.4648  -16.6308  -42.7385 O.2       4 UNK        -0.5000 
     52 CA          0.3044  -15.3929  -43.8003 C.3       4 UNK         0.1400 
     53 CB          0.9969  -16.3805  -44.7486 C.3       4 UNK        -0.1800 
     54 N          -0.6743  -14.6115  -44.5571 N.am      4 UNK        -0.5000 
     55 C          -1.3139  -13.5322  -44.0801 C.2       3 UNK         0.5000 
     56 O          -1.1012  -13.0612  -42.9614 O.2       3 UNK        -0.5000 
     57 CA         -2.3383  -12.8303  -44.9958 C.3       3 UNK         0.1400 
     58 CB         -1.8644  -11.4105  -45.3487 C.3       3 UNK        -0.1800 
     59 N          -2.6030  -13.5485  -46.2417 N.am      3 UNK        -0.5000 
     60 C          -3.4325  -14.5914  -46.3750 C.2       2 UNK         0.5000 
     61 O          -4.0947  -15.0650  -45.4524 O.2       2 UNK        -0.5000 
     62 CA         -3.5398  -15.2057  -47.7851 C.3       2 UNK         0.1400 
     63 CB         -4.7574  -14.6194  -48.5131 C.3       2 UNK        -0.1800 
     64 N          -2.3441  -15.0000  -48.6120 N.am      2 UNK        -0.5000 
     65 C          -1.1353  -15.5193  -48.3492 C.2       1 UNK         0.5000 
     66 O          -0.9151  -16.2200  -47.3620 O.2       1 UNK        -0.5000 
     67 C          -0.0922  -20.3493  -47.4936 C.2       11 UNK         0.5000 
     68 O          -0.5448  -20.6186  -48.6060 O.2       11 UNK        -0.5000 
     69 N          -0.8035  -19.7671  -46.5170 N.am      12 UNK        -0.5000 
     70 CA         -2.2080  -19.3790  -46.6464 C.3       12 UNK         0.1400 
     71 CB         -2.6399  -18.5578  -45.4229 C.3       12 UNK        -0.1800 
     72 C          -3.1302  -20.5933  -46.8438 C.2       12 UNK         0.5000 
     73 O          -4.0557  -20.5223  -47.6525 O.2       12 UNK        -0.5000 
     74 N          -2.8357  -21.6923  -46.1345 N.am      13 UNK        -0.5000 
     75 CA         -3.5193  -22.9770  -46.2664 C.3       13 UNK         0.1400 
     76 CB         -3.0573  -23.9256  -45.1504 C.3       13 UNK        -0.1800 
     77 C          -3.3152  -23.6146  -47.6528 C.2       13 UNK         0.5000 
     78 O          -4.2951  -24.0236  -48.2750 O.2       13 UNK        -0.5000 
     79 N          -2.0622  -23.6546  -48.1304 N.am      14 UNK        -0.5000 
     80 CA         -1.6885  -24.1875  -49.4441 C.3       14 UNK         0.1400 
     81 CB         -0.1589  -24.2845  -49.5444 C.3       14 UNK        -0.1800 
     82 C          -2.2656  -23.3728  -50.6169 C.2       14 UNK         0.5000 
     83 O          -2.6736  -23.9580  -51.6201 O.2       14 UNK        -0.5000 
     84 N          -2.3249  -22.0446  -50.4552 N.am      15 UNK        -0.5000 
     85 CA         -2.9601  -21.1180  -51.3935 C.3       15 UNK         0.1400 
     86 CB         -2.4361  -19.7027  -51.1079 C.3       15 UNK        -0.1800 
     87 C          -4.5011  -21.1320  -51.3207 C.2       15 UNK         0.5000 
     88 O          -5.1450  -20.5130  -52.1677 O.2       15 UNK        -0.5000 
     89 N          -5.0701  -21.7821  -50.2937 N.am      16 UNK        -0.5000 
     90 CA         -6.4963  -21.8316  -49.9561 C.3       16 UNK         0.1400 
     91 CB         -7.2700  -22.6532  -51.0088 C.3       16 UNK        -0.1800 
     92 C          -7.0845  -20.4221  -49.7339 C.2       16 UNK         0.5000 
     93 O          -8.1388  -20.0971  -50.2784 O.2       16 UNK        -0.5000 
     94 N          -6.3468  -19.5866  -48.9867 N.am      17 UNK        -0.5000 
     95 CA         -6.5890  -18.1554  -48.7653 C.3       17 UNK         0.1400 
     96 CB         -7.8541  -17.9344  -47.9115 C.3       17 UNK        -0.1800 
     97 C          -6.5919  -17.3467  -50.0828 C.2       17 UNK         0.5000 
     98 O          -7.4086  -16.4420  -50.2588 O.2       17 UNK        -0.5000 
     99 N          -5.6686  -17.7130  -50.9838 N.am      18 UNK        -0.5000 
    100 CA        -5.4563  -17.1855  -52.3365 C.3       18 UNK         0.1400 
    101 CB        -5.0855  -15.6885  -52.3101 C.3       18 UNK        -0.1800 
    102 C         -6.5905  -17.5076  -53.3328 C.2       18 UNK         0.5000 
    103 O         -6.6573  -16.8835  -54.3935 O.2       18 UNK        -0.5000 
    104 N         -7.4429  -18.4922  -53.0121 N.am      19 UNK        -0.5000 
    105 CA        -8.4565  -19.0209  -53.9267 C.3       19 UNK         0.1400 
    106 CB        -9.5437  -19.7545  -53.1283 C.3       19 UNK        -0.1800 
    107 C         -7.8537  -19.9542  -54.9942 C.2       19 UNK         0.5000 
    108 O         -8.4491  -20.1024  -56.0626 O.2       19 UNK        -0.5000 
    109 N         -6.6966  -20.5593  -54.6969 N.am      20 UNK        -0.5000 
    110 CA        -5.9385  -21.4167  -55.6000 C.3       20 UNK         0.1400 
    111 CB        -5.7230  -22.7788  -54.9204 C.3       20 UNK        -0.1800 
    112 C         -4.5868  -20.7607  -55.9169 C.2       20 UNK         0.5000 
    113 O         -4.0137  -20.0768  -55.0652 O.2       20 UNK        -0.5000 
    114 N         -4.0806  -21.0125  -57.1288 N.am      21 UNK        -0.5000 
    115 CA        -2.7140  -20.6795  -57.5253 C.3       21 UNK         0.1400 
    116 CB        -2.6356  -20.6046  -59.0580 C.3       21 UNK        -0.1800 
    117 C         -1.7498  -21.7473  -56.9812 C.2       21 UNK         0.5000 
    118 O         -2.0759  -22.9369  -57.0297 O.2       21 UNK        -0.5000 
    119 N         -0.5906  -21.3122  -56.4764 N.am      22 UNK        -0.5000 
    120 CA         0.4556  -22.2018  -55.9503 C.3       22 UNK         0.1400 
    121 C          1.2452  -22.9496  -57.0642 C.2       22 UNK         0.5000 
    122 N          1.9090  -24.0467  -56.7271 N.am      22 UNK        -0.7600 
    123 O          1.2902  -22.5323  -58.2199 O.2       22 UNK        -0.5000 
    124 C124        1.4008  -21.4579  -54.9652 C.3       23 UNK        -0.0398 
    125 S125        1.7440  -22.4773  -53.4903 S.3       23 UNK        -0.2404 
    126 C126        0.8867  -21.5406  -52.1879 C.3       23 UNK        -0.0205 
    127 H127       -1.0334  -13.7665  -52.9157 H         1 UNK         0.0600 
    128 H128       -2.3345  -14.9296  -53.1781 H         1 UNK         0.0600 
    129 H129       -0.6913  -15.3151  -53.6926 H         1 UNK         0.0600 
    130 H130       -0.1913  -13.7569  -50.8662 H         1 UNK         0.3000 
    131 H131        0.4761  -14.2655  -48.8484 H         1 UNK         0.0600 
    132 H132        0.7389  -17.1681  -49.7636 H         1 UNK         0.0800 
    133 H133        1.4429  -16.4985  -48.3197 H         1 UNK         0.0800 
    134 H134        3.5597  -16.6043  -52.2513 H         1 UNK         0.0800 
    135 H135        1.8122  -16.6149  -52.2836 H         1 UNK         0.0800 
    136 H136        1.1450  -18.8538  -52.6420 H         1 UNK         0.1150 
    137 H137        2.6651  -22.0347  -50.2144 H         1 UNK         0.1150 
    138 H138        4.2758  -18.0853  -49.8075 H         1 UNK         0.1150 
    139 H139        4.3706  -21.6768  -48.6363 H         1 UNK         0.0800 
    140 H140        5.4883  -20.3841  -48.9759 H         1 UNK         0.0800 
    141 H141        2.0576  -18.8842  -48.0853 H         1 UNK         0.0800 
    142 H142        2.0194  -18.8116  -46.3627 H         1 UNK         0.0800 
    143 H143        1.6946  -21.4216  -47.9266 H         1 UNK         0.0600 
    144 H144        1.8251  -20.9331  -45.0957 H         1 UNK         0.3000 
    145 H145        0.1426  -23.9297  -44.1126 H         1 UNK         0.0600 
    146 H146        2.3108  -24.5156  -43.0647 H         1 UNK         0.0600 
    147 H147        2.3817  -24.8179  -44.7934 H         1 UNK         0.0600 
    148 H148        3.1612  -23.3894  -44.1233 H         1 UNK         0.0600 
    149 H149        1.6834  -22.1112  -42.5957 H         1 UNK         0.3000 
    150 H150       -0.4408  -19.3609  -42.3824 H         1 UNK         0.0600 
    151 H151       -1.7013  -20.8633  -40.8447 H         1 UNK         0.0600 
    152 H152       -0.5901  -19.8512  -39.9406 H         1 UNK         0.0600 
    153 H153       -0.1941  -21.5402  -40.2409 H         1 UNK         0.0600 
    154 H154        1.7663  -19.9928  -40.7665 H         1 UNK         0.3000 
    155 H155        4.4387  -19.7547  -42.7791 H         1 UNK         0.0600 
    156 H156        3.3867  -16.9567  -42.1284 H         1 UNK         0.0600 
    157 H157        4.0637  -17.5105  -43.6557 H         1 UNK         0.0600 
    158 H158        5.0923  -17.3870  -42.2410 H         1 UNK         0.0600 
    159 H159        3.6925  -18.5456  -40.1794 H         1 UNK         0.3000 
    160 H160        4.3920  -21.4642  -38.3613 H         1 UNK         0.0600 
    161 H161        6.3646  -19.1264  -38.5861 H         1 UNK         0.0600 
    162 H162        6.7736  -20.8275  -38.7735 H         1 UNK         0.0600 
    163 H163        6.2184  -20.2311  -37.2180 H         1 UNK         0.0600 
    164 H164        4.1625  -18.7417  -37.5316 H         1 UNK         0.3000 
    165 H165        0.9745  -18.9992  -36.5445 H         1 UNK         0.0600 
    166 H166        1.8443  -16.7263  -36.0428 H         1 UNK         0.0600 
    167 H167        3.0881  -17.9335  -35.7882 H         1 UNK         0.0600 
    168 H168        3.1287  -16.9151  -37.2272 H         1 UNK         0.0600 
    169 H169       -0.2952  -17.9356  -38.0060 H         1 UNK         0.3000 
    170 H170       -0.8321  -17.4928  -40.3830 H         1 UNK         0.0600 
    171 H171       -1.3159  -15.8970  -38.5121 H         1 UNK         0.0600 
    172 H172       -0.2393  -14.7028  -39.2281 H         1 UNK         0.0600 
    173 H173       -1.7282  -15.1620  -40.0499 H         1 UNK         0.0600 
    174 H174        1.2921  -15.7844  -41.4358 H         1 UNK         0.3000 
    175 H175        1.0581  -14.6996  -43.4208 H         1 UNK         0.0600 
    176 H176        0.3240  -17.1753  -45.0717 H         1 UNK         0.0600 
    177 H177        1.3782  -15.8803  -45.6389 H         1 UNK         0.0600 
    178 H178        1.8470  -16.8474  -44.2571 H         1 UNK         0.0600 
    179 H179       -0.9333  -14.9753  -45.4648 H         1 UNK         0.3000 
    180 H180       -3.2705  -12.7467  -44.4331 H         1 UNK         0.0600 
    181 H181       -0.9273  -11.4262  -45.9066 H         1 UNK         0.0600 
    182 H182       -1.7007  -10.8156  -44.4492 H         1 UNK         0.0600 
    183 H183       -2.6060  -10.8851  -45.9509 H         1 UNK         0.0600 
    184 H184       -2.1076  -13.2275  -47.0601 H         1 UNK         0.3000 
    185 H185       -3.6872  -16.2814  -47.6688 H         1 UNK         0.0600 
    186 H186       -4.8760  -15.0587  -49.5004 H         1 UNK         0.0600 
    187 H187       -5.6771  -14.8145  -47.9597 H         1 UNK         0.0600 
    188 H188       -4.6714  -13.5393  -48.6379 H         1 UNK         0.0600 
    189 H189       -2.4508  -14.4323  -49.4398 H         1 UNK         0.3000 
    190 H190       -0.3716  -19.6230  -45.6160 H         1 UNK         0.3000 
    191 H191       -2.3000  -18.7448  -47.5308 H         1 UNK         0.0600 
    192 H192       -2.5260  -19.1186  -44.4948 H         1 UNK         0.0600 
    193 H193       -3.6863  -18.2601  -45.5017 H         1 UNK         0.0600 
    194 H194       -2.0547  -17.6430  -45.3337 H         1 UNK         0.0600 
    195 H195       -2.0915  -21.6387  -45.4453 H         1 UNK         0.3000 
    196 H196       -4.5886  -22.7978  -46.1360 H         1 UNK         0.0600 
    197 H197       -3.5943  -24.8736  -45.1977 H         1 UNK         0.0600 
    198 H198       -3.2406  -23.4953  -44.1656 H         1 UNK         0.0600 
    199 H199       -1.9932  -24.1478  -45.2251 H         1 UNK         0.0600 
    200 H200       -1.2970  -23.3280  -47.5464 H         1 UNK         0.3000 
    201 H201       -2.0947  -25.1982  -49.5204 H         1 UNK         0.0600 
    202 H202        0.2367  -24.9906  -48.8144 H         1 UNK         0.0600 
    203 H203        0.3168  -23.3202  -49.3628 H         1 UNK         0.0600 
    204 H204        0.1523  -24.6296  -50.5313 H         1 UNK         0.0600 
    205 H205       -1.8997  -21.6306  -49.6298 H         1 UNK         0.3000 
    206 H206       -2.6741  -21.3934  -52.4109 H         1 UNK         0.0600 
    207 H207       -1.3474  -19.6632  -51.1378 H         1 UNK         0.0600 
    208 H208       -2.7994  -18.9939  -51.8516 H         1 UNK         0.0600 
    209 H209       -2.7502  -19.3449  -50.1266 H         1 UNK         0.0600 
    210 H210       -4.4591  -22.2503  -49.6369 H         1 UNK         0.3000 
    211 H211       -6.5729  -22.3532  -49.0012 H         1 UNK         0.0600 
    212 H212       -7.2564  -22.1764  -51.9893 H         1 UNK         0.0600 
    213 H213       -8.3141  -22.7759  -50.7192 H         1 UNK         0.0600 
    214 H214       -6.8438  -23.6505  -51.1178 H         1 UNK         0.0600 
    215 H215       -5.4948  -19.9575  -48.5653 H         1 UNK         0.3000 
    216 H216       -5.7382  -17.7908  -48.1882 H         1 UNK         0.0600 
    217 H217       -7.9587  -16.8847  -47.6345 H         1 UNK         0.0600 
    218 H218       -7.8105  -18.5103  -46.9871 H         1 UNK         0.0600 
    219 H219       -8.7601  -18.2231  -48.4449 H         1 UNK         0.0600 
    220 H220       -5.0970  -18.5132  -50.7546 H         1 UNK         0.3000 
    221 H221       -4.5877  -17.7182  -52.7247 H         1 UNK         0.0600 
    222 H222       -5.9061  -15.0687  -51.9492 H         1 UNK         0.0600 
    223 H223       -4.2198  -15.5138  -51.6726 H         1 UNK         0.0600 
    224 H224       -4.8236  -15.3306  -53.3062 H         1 UNK         0.0600 
    225 H225       -7.3339  -18.9700  -52.1263 H         1 UNK         0.3000 
    226 H226       -8.9300  -18.1835  -54.4435 H         1 UNK         0.0600 
    227 H227       -9.9599  -19.1187  -52.3466 H         1 UNK         0.0600 
    228 H228      -10.3667  -20.0541  -53.7782 H         1 UNK         0.0600 
    229 H229       -9.1565  -20.6584  -52.6577 H         1 UNK         0.0600 
    230 H230       -6.2326  -20.3487  -53.8166 H         1 UNK         0.3000 
    231 H231       -6.4802  -21.5747  -56.5348 H         1 UNK         0.0600 
    232 H232       -6.6743  -23.2567  -54.6858 H         1 UNK         0.0600 
    233 H233       -5.1604  -22.6821  -53.9909 H         1 UNK         0.0600 
    234 H234       -5.1678  -23.4568  -55.5699 H         1 UNK         0.0600 
    235 H235       -4.5870  -21.6218  -57.7548 H         1 UNK         0.3000 
    236 H236       -2.4442  -19.7029  -57.1171 H         1 UNK         0.0600 
    237 H237       -1.6273  -20.3456  -59.3836 H         1 UNK         0.0600 
    238 H238       -2.8955  -21.5565  -59.5230 H         1 UNK         0.0600 
    239 H239       -3.3100  -19.8435  -59.4507 H         1 UNK         0.0600 
    240 H240       -0.3717  -20.3276  -56.5114 H         1 UNK         0.3000 
    241 H241       -0.0777  -22.9748  -55.3920 H         1 UNK         0.0600 
    242 H242        2.4360  -24.5397  -57.4313 H         1 UNK         0.3800 
    243 H243        1.9084  -24.3881  -55.7777 H         1 UNK         0.3800 
    244 H244        2.3477  -21.1841  -55.4345 H         1 UNK         0.0800 
    245 H245        0.9625  -20.5130  -54.6427 H         1 UNK         0.0800 
    246 H246        0.0069  -21.0386  -52.5918 H         1 UNK         0.0800 
    247 H247        0.5119  -22.2408  -51.4436 H         1 UNK         0.0800 
@<TRIPOS>BOND
     1    1    2 1    
     2    1  127 1    
     3    1  128 1    
     4    1  129 1    
     5    2    3 2    
     6    2    4 am   BACKBONE|DICT|INTERRES
     7    4    5 1    
     8    4  130 1    
     9    5    6 1    
    10    5   65 1    
    11    5  131 1    
    12    6    7 1    
    13    6  132 1    
    14    6  133 1    
    15    7    8 1    
    16    8    9 1    
    17    8  134 1    
    18    8  135 1    
    19    9   10 ar   
    20    9   14 ar   
    21   10   11 ar   
    22   10  136 1    
    23   11   12 ar   
    24   11  126 1    
    25   12   13 ar   
    26   12  137 1    
    27   13   14 ar   
    28   13   15 1    
    29   14  138 1    
    30   15   16 1    
    31   15  139 1    
    32   15  140 1    
    33   16   17 1    
    34   17   18 1    
    35   17  141 1    
    36   17  142 1    
    37   18   19 1    
    38   18   67 1    
    39   18  143 1    
    40   19   20 am   BACKBONE|DICT|INTERRES
    41   19  144 1    
    42   20   21 2    
    43   20   22 1    
    44   22   23 1    
    45   22   24 1    
    46   22  145 1    
    47   23  146 1    
    48   23  147 1    
    49   23  148 1    
    50   24   25 am   BACKBONE|DICT|INTERRES
    51   24  149 1    
    52   25   26 2    
    53   25   27 1    
    54   27   28 1    
    55   27   29 1    
    56   27  150 1    
    57   28  151 1    
    58   28  152 1    
    59   28  153 1    
    60   29   30 am   BACKBONE|DICT|INTERRES
    61   29  154 1    
    62   30   31 2    
    63   30   32 1    
    64   32   33 1    
    65   32   34 1    
    66   32  155 1    
    67   33  156 1    
    68   33  157 1    
    69   33  158 1    
    70   34   35 am   BACKBONE|DICT|INTERRES
    71   34  159 1    
    72   35   36 2    
    73   35   37 1    
    74   37   38 1    
    75   37   39 1    
    76   37  160 1    
    77   38  161 1    
    78   38  162 1    
    79   38  163 1    
    80   39   40 am   BACKBONE|DICT|INTERRES
    81   39  164 1    
    82   40   41 2    
    83   40   42 1    
    84   42   43 1    
    85   42   44 1    
    86   42  165 1    
    87   43  166 1    
    88   43  167 1    
    89   43  168 1    
    90   44   45 am   BACKBONE|DICT|INTERRES
    91   44  169 1    
    92   45   46 2    
    93   45   47 1    
    94   47   48 1    
    95   47   49 1    
    96   47  170 1    
    97   48  171 1    
    98   48  172 1    
    99   48  173 1    
   100   49   50 am   BACKBONE|DICT|INTERRES
   101   49  174 1    
   102   50   51 2    
   103   50   52 1    
   104   52   53 1    
   105   52   54 1    
   106   52  175 1    
   107   53  176 1    
   108   53  177 1    
   109   53  178 1    
   110   54   55 am   BACKBONE|DICT|INTERRES
   111   54  179 1    
   112   55   56 2    
   113   55   57 1    
   114   57   58 1    
   115   57   59 1    
   116   57  180 1    
   117   58  181 1    
   118   58  182 1    
   119   58  183 1    
   120   59   60 am   BACKBONE|DICT|INTERRES
   121   59  184 1    
   122   60   61 2    
   123   60   62 1    
   124   62   63 1    
   125   62   64 1    
   126   62  185 1    
   127   63  186 1    
   128   63  187 1    
   129   63  188 1    
   130   64   65 am   BACKBONE|DICT|INTERRES
   131   64  189 1    
   132   65   66 2    
   133   67   68 2    
   134   67   69 am   BACKBONE|DICT|INTERRES
   135   69   70 1    
   136   69  190 1    
   137   70   71 1    
   138   70   72 1    
   139   70  191 1    
   140   71  192 1    
   141   71  193 1    
   142   71  194 1    
   143   72   73 2    
   144   72   74 am   BACKBONE|DICT|INTERRES
   145   74   75 1    
   146   74  195 1    
   147   75   76 1    
   148   75   77 1    
   149   75  196 1    
   150   76  197 1    
   151   76  198 1    
   152   76  199 1    
   153   77   78 2    
   154   77   79 am   BACKBONE|DICT|INTERRES
   155   79   80 1    
   156   79  200 1    
   157   80   81 1    
   158   80   82 1    
   159   80  201 1    
   160   81  202 1    
   161   81  203 1    
   162   81  204 1    
   163   82   83 2    
   164   82   84 am   BACKBONE|DICT|INTERRES
   165   84   85 1    
   166   84  205 1    
   167   85   86 1    
   168   85   87 1    
   169   85  206 1    
   170   86  207 1    
   171   86  208 1    
   172   86  209 1    
   173   87   88 2    
   174   87   89 am   BACKBONE|DICT|INTERRES
   175   89   90 1    
   176   89  210 1    
   177   90   91 1    
   178   90   92 1    
   179   90  211 1    
   180   91  212 1    
   181   91  213 1    
   182   91  214 1    
   183   92   93 2    
   184   92   94 am   BACKBONE|DICT|INTERRES
   185   94   95 1    
   186   94  215 1    
   187   95   96 1    
   188   95   97 1    
   189   95  216 1    
   190   96  217 1    
   191   96  218 1    
   192   96  219 1    
   193   97   98 2    
   194   97   99 am   BACKBONE|DICT|INTERRES
   195   99  100 1    
   196   99  220 1    
   197  100  101 1    
   198  100  102 1    
   199  100  221 1    
   200  101  222 1    
   201  101  223 1    
   202  101  224 1    
   203  102  103 2    
   204  102  104 am   BACKBONE|DICT|INTERRES
   205  104  105 1    
   206  104  225 1    
   207  105  106 1    
   208  105  107 1    
   209  105  226 1    
   210  106  227 1    
   211  106  228 1    
   212  106  229 1    
   213  107  108 2    
   214  107  109 am   BACKBONE|DICT|INTERRES
   215  109  110 1    
   216  109  230 1    
   217  110  111 1    
   218  110  112 1    
   219  110  231 1    
   220  111  232 1    
   221  111  233 1    
   222  111  234 1    
   223  112  113 2    
   224  112  114 am   BACKBONE|DICT|INTERRES
   225  114  115 1    
   226  114  235 1    
   227  115  116 1    
   228  115  117 1    
   229  115  236 1    
   230  116  237 1    
   231  116  238 1    
   232  116  239 1    
   233  117  118 2    
   234  117  119 am   BACKBONE|DICT|INTERRES
   235  119  120 1    
   236  119  240 1    
   237  120  121 1    
   238  120  124 1    
   239  120  241 1    
   240  121  122 am   BACKBONE|DICT|INTERRES
   241  121  123 2    
   242  122  242 1    
   243  122  243 1    
   244  124  125 1    
   245  124  244 1    
   246  124  245 1    
   247  125  126 1    
   248  126  246 1    
   249  126  247 1    
@<TRIPOS>SUBSTRUCTURE
     1 UNK         1 GROUP             0       ****    0 ROOT    
