@<TRIPOS>MOLECULE
3R540
247   249    1
SMALL
USER_CHARGES


@<TRIPOS>ATOM
      1 CA         -3.3458  -17.6715  -45.8991 C.3       0 UNK        -0.1800 
      2 C          -3.4462  -16.1609  -46.0421 C.2       0 UNK         0.5000 
      3 O          -4.4503  -15.5720  -45.6420 O.2       0 UNK        -0.5000 
      4 N          -2.4133  -15.5402  -46.6251 N.am      1 UNK        -0.5000 
      5 CA         -2.2988  -14.0910  -46.8200 C.3       1 UNK         0.1400 
      6 C6         -1.1328  -13.7125  -47.7685 C.3       23 UNK        -0.0398 
      7 S7         -1.1249  -14.6732  -49.3244 S.3       23 UNK        -0.2404 
      8 C8          0.5058  -15.4768  -49.2217 C.3       23 UNK        -0.0205 
      9 C9          0.6040  -16.6766  -50.1509 C.ar      23 UNK        -0.0193 
     10 C10         0.8606  -16.5008  -51.5127 C.ar      23 UNK        -0.1150 
     11 C11         0.9768  -17.6077  -52.3577 C.ar      23 UNK        -0.0193 
     12 C12         0.8372  -18.8951  -51.8314 C.ar      23 UNK        -0.1150 
     13 C13         0.5903  -19.0912  -50.4691 C.ar      23 UNK        -0.0193 
     14 C14         0.4653  -17.9692  -49.6389 C.ar      23 UNK        -0.1150 
     15 C15         0.4523  -20.5207  -49.9401 C.3       23 UNK        -0.0205 
     16 S16         1.1823  -20.7962  -48.2882 S.3       23 UNK        -0.2404 
     17 C17        -0.1833  -20.2716  -47.2014 C.3       23 UNK        -0.0398 
     18 CA         -0.7304  -21.4305  -46.3404 C.3       11 UNK         0.1400 
     19 N           0.2414  -21.9353  -45.3602 N.am      11 UNK        -0.5000 
     20 C           0.1109  -23.1085  -44.7240 C.2       10 UNK         0.5000 
     21 O          -0.9295  -23.7685  -44.7502 O.2       10 UNK        -0.5000 
     22 CA          1.3216  -23.6747  -43.9682 C.3       10 UNK         0.1400 
     23 CB          2.0959  -24.6318  -44.8971 C.3       10 UNK        -0.1800 
     24 N           2.2246  -22.6595  -43.4148 N.am      10 UNK        -0.5000 
     25 C           3.1317  -22.9324  -42.4641 C.2       9 UNK         0.5000 
     26 O           3.2515  -24.0368  -41.9305 O.2       9 UNK        -0.5000 
     27 CA          4.0739  -21.7961  -42.0308 C.3       9 UNK         0.1400 
     28 CB          5.1146  -21.4999  -43.1222 C.3       9 UNK        -0.1800 
     29 N           3.3648  -20.5717  -41.6690 N.am      9 UNK        -0.5000 
     30 C           2.5823  -20.4332  -40.5892 C.2       8 UNK         0.5000 
     31 O           2.3937  -21.3235  -39.7592 O.2       8 UNK        -0.5000 
     32 CA          1.8839  -19.0713  -40.4060 C.3       8 UNK         0.1400 
     33 CB          2.8022  -18.0784  -39.6771 C.3       8 UNK        -0.1800 
     34 N           1.4439  -18.4811  -41.6692 N.am      8 UNK        -0.5000 
     35 C           0.5194  -19.0180  -42.4766 C.2       7 UNK         0.5000 
     36 O          -0.1001  -20.0549  -42.2390 O.2       7 UNK        -0.5000 
     37 CA          0.2986  -18.3018  -43.8142 C.3       7 UNK         0.1400 
     38 CB         -0.5641  -17.0451  -43.6393 C.3       7 UNK        -0.1800 
     39 N           1.5630  -17.9593  -44.4670 N.am      7 UNK        -0.5000 
     40 C           2.4559  -18.8528  -44.9211 C.2       6 UNK         0.5000 
     41 O           2.2924  -20.0730  -44.8674 O.2       6 UNK        -0.5000 
     42 CA          3.7614  -18.2845  -45.5045 C.3       6 UNK         0.1400 
     43 CB          3.5522  -17.8515  -46.9639 C.3       6 UNK        -0.1800 
     44 N           4.2736  -17.1507  -44.7339 N.am      6 UNK        -0.5000 
     45 C           4.6766  -17.2102  -43.4557 C.2       5 UNK         0.5000 
     46 O           4.7050  -18.2468  -42.7956 O.2       5 UNK        -0.5000 
     47 CA          5.0554  -15.8750  -42.7880 C.3       5 UNK         0.1400 
     48 CB          6.5441  -15.5651  -43.0026 C.3       5 UNK        -0.1800 
     49 N           4.2473  -14.7546  -43.2772 N.am      5 UNK        -0.5000 
     50 C           2.9245  -14.6464  -43.0977 C.2       4 UNK         0.5000 
     51 O           2.2527  -15.4635  -42.4624 O.2       4 UNK        -0.5000 
     52 CA          2.2390  -13.4785  -43.8257 C.3       4 UNK         0.1400 
     53 CB          1.8251  -13.9063  -45.2407 C.3       4 UNK        -0.1800 
     54 N           1.0592  -12.9998  -43.1087 N.am      4 UNK        -0.5000 
     55 C           1.1122  -12.2290  -42.0140 C.2       3 UNK         0.5000 
     56 O           2.1719  -11.8428  -41.5156 O.2       3 UNK        -0.5000 
     57 CA         -0.2287  -11.8206  -41.3618 C.3       3 UNK         0.1400 
     58 CB         -0.1472  -10.4565  -40.6442 C.3       3 UNK        -0.1800 
     59 N          -1.3845  -11.8554  -42.2664 N.am      3 UNK        -0.5000 
     60 C          -1.5790  -11.1365  -43.3822 C.2       2 UNK         0.5000 
     61 O          -0.7740  -10.3236  -43.8410 O.2       2 UNK        -0.5000 
     62 CA         -2.9113  -11.3943  -44.1158 C.3       2 UNK         0.1400 
     63 CB         -3.6220  -10.0732  -44.4545 C.3       2 UNK        -0.1800 
     64 N          -2.7767  -12.1887  -45.3411 N.am      2 UNK        -0.5000 
     65 C          -2.1569  -13.3713  -45.4597 C.2       1 UNK         0.5000 
     66 O          -1.5013  -13.9023  -44.5588 O.2       1 UNK        -0.5000 
     67 C          -2.1144  -21.0726  -45.7630 C.2       11 UNK         0.5000 
     68 O          -3.0467  -20.9109  -46.5508 O.2       11 UNK        -0.5000 
     69 N          -2.2570  -20.9887  -44.4327 N.am      12 UNK        -0.5000 
     70 CA         -3.5535  -20.8719  -43.7612 C.3       12 UNK         0.1400 
     71 CB         -3.3387  -20.5591  -42.2740 C.3       12 UNK        -0.1800 
     72 C          -4.4319  -22.1267  -43.9369 C.2       12 UNK         0.5000 
     73 O          -5.6519  -21.9963  -44.0337 O.2       12 UNK        -0.5000 
     74 N          -3.8039  -23.3098  -44.0212 N.am      13 UNK        -0.5000 
     75 CA         -4.4813  -24.5787  -44.2995 C.3       13 UNK         0.1400 
     76 CB         -3.6014  -25.7440  -43.8221 C.3       13 UNK        -0.1800 
     77 C          -4.8231  -24.7325  -45.7932 C.2       13 UNK         0.5000 
     78 O          -5.8418  -25.3382  -46.1261 O.2       13 UNK        -0.5000 
     79 N          -3.9774  -24.1612  -46.6625 N.am      14 UNK        -0.5000 
     80 CA         -4.1600  -24.1319  -48.1164 C.3       14 UNK         0.1400 
     81 CB         -2.7841  -23.9749  -48.7846 C.3       14 UNK        -0.1800 
     82 C          -5.1075  -23.0097  -48.5876 C.2       14 UNK         0.5000 
     83 O          -5.4231  -22.9574  -49.7766 O.2       14 UNK        -0.5000 
     84 N          -5.4967  -22.1103  -47.6710 N.am      15 UNK        -0.5000 
     85 CA         -6.3172  -20.9135  -47.8777 C.3       15 UNK         0.1400 
     86 CB         -7.7791  -21.3085  -48.1680 C.3       15 UNK        -0.1800 
     87 C          -5.7128  -19.9590  -48.9300 C.2       15 UNK         0.5000 
     88 O          -6.4113  -19.5212  -49.8451 O.2       15 UNK        -0.5000 
     89 N          -4.4062  -19.6864  -48.7816 N.am      16 UNK        -0.5000 
     90 CA         -3.5627  -18.8900  -49.6844 C.3       16 UNK         0.1400 
     91 CB         -4.0261  -17.4189  -49.7373 C.3       16 UNK        -0.1800 
     92 C          -3.4263  -19.5312  -51.0824 C.2       16 UNK         0.5000 
     93 O          -3.4653  -18.8286  -52.0932 O.2       16 UNK        -0.5000 
     94 N          -3.2731  -20.8650  -51.0947 N.am      17 UNK        -0.5000 
     95 CA         -3.1750  -21.7377  -52.2695 C.3       17 UNK         0.1400 
     96 CB         -1.8893  -21.4483  -53.0755 C.3       17 UNK        -0.1800 
     97 C          -4.4543  -21.6987  -53.1282 C.2       17 UNK         0.5000 
     98 O          -4.3861  -21.4758  -54.3385 O.2       17 UNK        -0.5000 
     99 N          -5.6075  -21.9154  -52.4808 N.am      18 UNK        -0.5000 
    100 CA        -6.9225  -21.9724  -53.1198 C.3       18 UNK         0.1400 
    101 CB        -8.0058  -22.1385  -52.0455 C.3       18 UNK        -0.1800 
    102 C         -7.0034  -23.1065  -54.1578 C.2       18 UNK         0.5000 
    103 O         -6.5120  -24.2077  -53.8982 O.2       18 UNK        -0.5000 
    104 N         -7.5825  -22.7979  -55.3258 N.am      19 UNK        -0.5000 
    105 CA        -7.7120  -23.6221  -56.5382 C.3       19 UNK         0.1400 
    106 CB        -8.5009  -24.9171  -56.2644 C.3       19 UNK        -0.1800 
    107 C         -6.3802  -23.9206  -57.2615 C.2       19 UNK         0.5000 
    108 O         -6.3566  -23.9237  -58.4928 O.2       19 UNK        -0.5000 
    109 N         -5.3008  -24.1500  -56.5035 N.am      20 UNK        -0.5000 
    110 CA        -3.9427  -24.3744  -56.9990 C.3       20 UNK         0.1400 
    111 CB        -3.0637  -24.8750  -55.8418 C.3       20 UNK        -0.1800 
    112 C         -3.3274  -23.1185  -57.6447 C.2       20 UNK         0.5000 
    113 O         -2.6822  -23.2333  -58.6880 O.2       20 UNK        -0.5000 
    114 N         -3.5642  -21.9569  -57.0159 N.am      21 UNK        -0.5000 
    115 CA        -3.0765  -20.6160  -57.3507 C.3       21 UNK         0.1400 
    116 CB        -3.5285  -20.1995  -58.7667 C.3       21 UNK        -0.1800 
    117 C         -1.5554  -20.4412  -57.1535 C.2       21 UNK         0.5000 
    118 O         -0.8242  -21.4069  -56.9206 O.2       21 UNK        -0.5000 
    119 N         -1.1091  -19.1833  -57.2376 N.am      22 UNK        -0.5000 
    120 CA         0.3024  -18.7789  -57.1118 C.3       22 UNK         0.1400 
    121 C          1.1199  -18.8972  -58.4328 C.2       22 UNK         0.5000 
    122 N          0.5190  -19.2408  -59.5657 N.am      22 UNK        -0.7600 
    123 O          2.3292  -18.6833  -58.4285 O.2       22 UNK        -0.5000 
    124 C124        0.4325  -17.3604  -56.4989 C.3       23 UNK        -0.0398 
    125 S125       -0.2530  -17.2761  -54.8092 S.3       23 UNK        -0.2404 
    126 C126        1.2751  -17.4193  -53.8354 C.3       23 UNK        -0.0205 
    127 H127       -3.2403  -17.9371  -44.8485 H         1 UNK         0.0600 
    128 H128       -2.4901  -18.0717  -46.4425 H         1 UNK         0.0600 
    129 H129       -4.2465  -18.1495  -46.2837 H         1 UNK         0.0600 
    130 H130       -1.6210  -16.0777  -46.9390 H         1 UNK         0.3000 
    131 H131       -3.2288  -13.7584  -47.2865 H         1 UNK         0.0600 
    132 H132       -1.1900  -12.6542  -48.0284 H         1 UNK         0.0800 
    133 H133       -0.1755  -13.8433  -47.2668 H         1 UNK         0.0800 
    134 H134        1.2812  -14.7507  -49.4705 H         1 UNK         0.0800 
    135 H135        0.7001  -15.7917  -48.1953 H         1 UNK         0.0800 
    136 H136        0.9703  -15.5028  -51.9135 H         1 UNK         0.1150 
    137 H137        0.9265  -19.7482  -52.4894 H         1 UNK         0.1150 
    138 H138        0.2771  -18.0854  -48.5848 H         1 UNK         0.1150 
    139 H139       -0.5989  -20.8088  -49.9385 H         1 UNK         0.0800 
    140 H140        0.9491  -21.2095  -50.6251 H         1 UNK         0.0800 
    141 H141       -0.9760  -19.8564  -47.8233 H         1 UNK         0.0800 
    142 H142        0.1655  -19.4475  -46.5848 H         1 UNK         0.0800 
    143 H143       -0.9209  -22.2608  -47.0217 H         1 UNK         0.0600 
    144 H144        1.1098  -21.4112  -45.2924 H         1 UNK         0.3000 
    145 H145        0.9131  -24.2550  -43.1380 H         1 UNK         0.0600 
    146 H146        2.8613  -25.1888  -44.3574 H         1 UNK         0.0600 
    147 H147        1.4288  -25.3671  -45.3496 H         1 UNK         0.0600 
    148 H148        2.5852  -24.0901  -45.7075 H         1 UNK         0.0600 
    149 H149        2.1748  -21.7207  -43.7981 H         1 UNK         0.3000 
    150 H150        4.6154  -22.1374  -41.1459 H         1 UNK         0.0600 
    151 H151        5.6618  -22.4031  -43.3948 H         1 UNK         0.0600 
    152 H152        5.8471  -20.7689  -42.7797 H         1 UNK         0.0600 
    153 H153        4.6529  -21.1112  -44.0293 H         1 UNK         0.0600 
    154 H154        3.5341  -19.7605  -42.2543 H         1 UNK         0.3000 
    155 H155        0.9981  -19.2336  -39.7883 H         1 UNK         0.0600 
    156 H156        3.1140  -18.4737  -38.7096 H         1 UNK         0.0600 
    157 H157        2.2935  -17.1317  -39.4939 H         1 UNK         0.0600 
    158 H158        3.7045  -17.8671  -40.2515 H         1 UNK         0.0600 
    159 H159        1.8892  -17.6158  -41.9511 H         1 UNK         0.3000 
    160 H160       -0.2476  -18.9858  -44.4606 H         1 UNK         0.0600 
    161 H161       -0.1110  -16.3220  -42.9625 H         1 UNK         0.0600 
    162 H162       -1.5421  -17.2982  -43.2292 H         1 UNK         0.0600 
    163 H163       -0.7268  -16.5470  -44.5932 H         1 UNK         0.0600 
    164 H164        1.8063  -16.9807  -44.4903 H         1 UNK         0.3000 
    165 H165        4.5123  -19.0767  -45.4830 H         1 UNK         0.0600 
    166 H166        4.4823  -17.4952  -47.4070 H         1 UNK         0.0600 
    167 H167        3.2060  -18.6866  -47.5735 H         1 UNK         0.0600 
    168 H168        2.8126  -17.0546  -47.0503 H         1 UNK         0.0600 
    169 H169        4.2977  -16.2569  -45.2010 H         1 UNK         0.3000 
    170 H170        4.8774  -15.9785  -41.7155 H         1 UNK         0.0600 
    171 H171        7.1688  -16.3773  -42.6281 H         1 UNK         0.0600 
    172 H172        6.7808  -15.4289  -44.0585 H         1 UNK         0.0600 
    173 H173        6.8388  -14.6595  -42.4721 H         1 UNK         0.0600 
    174 H174        4.7326  -14.0475  -43.8108 H         1 UNK         0.3000 
    175 H175        2.9511  -12.6549  -43.9130 H         1 UNK         0.0600 
    176 H176        1.0820  -14.7044  -45.2206 H         1 UNK         0.0600 
    177 H177        1.4031  -13.0618  -45.7848 H         1 UNK         0.0600 
    178 H178        2.6804  -14.2647  -45.8146 H         1 UNK         0.0600 
    179 H179        0.1560  -13.3057  -43.4558 H         1 UNK         0.3000 
    180 H180       -0.4243  -12.5769  -40.6004 H         1 UNK         0.0600 
    181 H181        0.1152   -9.6527  -41.3326 H         1 UNK         0.0600 
    182 H182        0.6066  -10.4705  -39.8562 H         1 UNK         0.0600 
    183 H183       -1.0970  -10.1999  -40.1751 H         1 UNK         0.0600 
    184 H184       -2.0921  -12.5341  -42.0214 H         1 UNK         0.3000 
    185 H185       -3.5667  -11.9538  -43.4453 H         1 UNK         0.0600 
    186 H186       -3.7414   -9.4543  -43.5642 H         1 UNK         0.0600 
    187 H187       -3.0617   -9.4901  -45.1865 H         1 UNK         0.0600 
    188 H188       -4.6183  -10.2521  -44.8595 H         1 UNK         0.0600 
    189 H189       -3.2657  -11.8237  -46.1452 H         1 UNK         0.3000 
    190 H190       -1.4472  -21.1160  -43.8389 H         1 UNK         0.3000 
    191 H191       -4.0968  -20.0368  -44.2064 H         1 UNK         0.0600 
    192 H192       -4.2905  -20.4907  -41.7456 H         1 UNK         0.0600 
    193 H193       -2.7426  -21.3290  -41.7826 H         1 UNK         0.0600 
    194 H194       -2.8281  -19.6049  -42.1440 H         1 UNK         0.0600 
    195 H195       -2.7906  -23.3395  -43.9821 H         1 UNK         0.3000 
    196 H196       -5.4165  -24.6098  -43.7361 H         1 UNK         0.0600 
    197 H197       -4.1101  -26.6983  -43.9638 H         1 UNK         0.0600 
    198 H198       -3.3688  -25.6540  -42.7610 H         1 UNK         0.0600 
    199 H199       -2.6595  -25.7918  -44.3694 H         1 UNK         0.0600 
    200 H200       -3.1569  -23.7019  -46.2954 H         1 UNK         0.3000 
    201 H201       -4.5884  -25.0835  -48.4377 H         1 UNK         0.0600 
    202 H202       -2.0669  -24.6995  -48.3983 H         1 UNK         0.0600 
    203 H203       -2.3732  -22.9771  -48.6341 H         1 UNK         0.0600 
    204 H204       -2.8566  -24.1372  -49.8603 H         1 UNK         0.0600 
    205 H205       -5.1212  -22.2168  -46.7394 H         1 UNK         0.3000 
    206 H206       -6.3065  -20.3664  -46.9337 H         1 UNK         0.0600 
    207 H207       -8.1919  -21.9018  -47.3522 H         1 UNK         0.0600 
    208 H208       -8.4114  -20.4269  -48.2795 H         1 UNK         0.0600 
    209 H209       -7.8668  -21.8955  -49.0812 H         1 UNK         0.0600 
    210 H210       -3.9302  -20.1152  -47.9902 H         1 UNK         0.3000 
    211 H211       -2.5624  -18.8937  -49.2522 H         1 UNK         0.0600 
    212 H212       -4.9787  -17.3100  -50.2561 H         1 UNK         0.0600 
    213 H213       -3.2968  -16.8025  -50.2643 H         1 UNK         0.0600 
    214 H214       -4.1417  -17.0005  -48.7396 H         1 UNK         0.0600 
    215 H215       -3.3325  -21.3420  -50.2080 H         1 UNK         0.3000 
    216 H216       -3.0980  -22.7578  -51.8919 H         1 UNK         0.0600 
    217 H217       -1.7779  -22.1533  -53.9002 H         1 UNK         0.0600 
    218 H218       -1.0026  -21.5417  -52.4498 H         1 UNK         0.0600 
    219 H219       -1.8909  -20.4467  -53.5069 H         1 UNK         0.0600 
    220 H220       -5.5773  -22.1480  -51.4914 H         1 UNK         0.3000 
    221 H221       -7.0838  -21.0182  -53.6256 H         1 UNK         0.0600 
    222 H222       -7.8446  -23.0369  -51.4480 H         1 UNK         0.0600 
    223 H223       -8.0190  -21.2820  -51.3720 H         1 UNK         0.0600 
    224 H224       -8.9971  -22.2130  -52.4942 H         1 UNK         0.0600 
    225 H225       -7.9247  -21.8530  -55.4337 H         1 UNK         0.3000 
    226 H226       -8.3071  -23.0237  -57.2301 H         1 UNK         0.0600 
    227 H227       -9.4628  -24.7024  -55.7990 H         1 UNK         0.0600 
    228 H228       -8.7017  -25.4512  -57.1940 H         1 UNK         0.0600 
    229 H229       -7.9562  -25.5996  -55.6119 H         1 UNK         0.0600 
    230 H230       -5.4359  -24.1624  -55.4973 H         1 UNK         0.3000 
    231 H231       -3.9845  -25.1565  -57.7599 H         1 UNK         0.0600 
    232 H232       -3.0183  -24.1499  -55.0283 H         1 UNK         0.0600 
    233 H233       -2.0419  -25.0563  -56.1778 H         1 UNK         0.0600 
    234 H234       -3.4440  -25.8119  -55.4346 H         1 UNK         0.0600 
    235 H235       -4.0520  -21.9971  -56.1242 H         1 UNK         0.3000 
    236 H236       -3.5605  -19.9484  -56.6361 H         1 UNK         0.0600 
    237 H237       -4.5970  -20.3667  -58.9033 H         1 UNK         0.0600 
    238 H238       -3.3453  -19.1397  -58.9447 H         1 UNK         0.0600 
    239 H239       -3.0014  -20.7540  -59.5433 H         1 UNK         0.0600 
    240 H240       -1.7659  -18.4374  -57.4142 H         1 UNK         0.3000 
    241 H241        0.7891  -19.4678  -56.4185 H         1 UNK         0.0600 
    242 H242        1.0621  -19.3187  -60.4116 H         1 UNK         0.3800 
    243 H243       -0.4695  -19.4315  -59.5856 H         1 UNK         0.3800 
    244 H244       -0.0881  -16.6298  -57.1198 H         1 UNK         0.0800 
    245 H245        1.4752  -17.0388  -56.4704 H         1 UNK         0.0800 
    246 H246        1.8859  -16.5275  -53.9846 H         1 UNK         0.0800 
    247 H247        1.8636  -18.2617  -54.2026 H         1 UNK         0.0800 
@<TRIPOS>BOND
     1    1    2 1    
     2    1  127 1    
     3    1  128 1    
     4    1  129 1    
     5    2    3 2    
     6    2    4 am   BACKBONE|DICT|INTERRES
     7    4    5 1    
     8    4  130 1    
     9    5    6 1    
    10    5   65 1    
    11    5  131 1    
    12    6    7 1    
    13    6  132 1    
    14    6  133 1    
    15    7    8 1    
    16    8    9 1    
    17    8  134 1    
    18    8  135 1    
    19    9   10 ar   
    20    9   14 ar   
    21   10   11 ar   
    22   10  136 1    
    23   11   12 ar   
    24   11  126 1    
    25   12   13 ar   
    26   12  137 1    
    27   13   14 ar   
    28   13   15 1    
    29   14  138 1    
    30   15   16 1    
    31   15  139 1    
    32   15  140 1    
    33   16   17 1    
    34   17   18 1    
    35   17  141 1    
    36   17  142 1    
    37   18   19 1    
    38   18   67 1    
    39   18  143 1    
    40   19   20 am   BACKBONE|DICT|INTERRES
    41   19  144 1    
    42   20   21 2    
    43   20   22 1    
    44   22   23 1    
    45   22   24 1    
    46   22  145 1    
    47   23  146 1    
    48   23  147 1    
    49   23  148 1    
    50   24   25 am   BACKBONE|DICT|INTERRES
    51   24  149 1    
    52   25   26 2    
    53   25   27 1    
    54   27   28 1    
    55   27   29 1    
    56   27  150 1    
    57   28  151 1    
    58   28  152 1    
    59   28  153 1    
    60   29   30 am   BACKBONE|DICT|INTERRES
    61   29  154 1    
    62   30   31 2    
    63   30   32 1    
    64   32   33 1    
    65   32   34 1    
    66   32  155 1    
    67   33  156 1    
    68   33  157 1    
    69   33  158 1    
    70   34   35 am   BACKBONE|DICT|INTERRES
    71   34  159 1    
    72   35   36 2    
    73   35   37 1    
    74   37   38 1    
    75   37   39 1    
    76   37  160 1    
    77   38  161 1    
    78   38  162 1    
    79   38  163 1    
    80   39   40 am   BACKBONE|DICT|INTERRES
    81   39  164 1    
    82   40   41 2    
    83   40   42 1    
    84   42   43 1    
    85   42   44 1    
    86   42  165 1    
    87   43  166 1    
    88   43  167 1    
    89   43  168 1    
    90   44   45 am   BACKBONE|DICT|INTERRES
    91   44  169 1    
    92   45   46 2    
    93   45   47 1    
    94   47   48 1    
    95   47   49 1    
    96   47  170 1    
    97   48  171 1    
    98   48  172 1    
    99   48  173 1    
   100   49   50 am   BACKBONE|DICT|INTERRES
   101   49  174 1    
   102   50   51 2    
   103   50   52 1    
   104   52   53 1    
   105   52   54 1    
   106   52  175 1    
   107   53  176 1    
   108   53  177 1    
   109   53  178 1    
   110   54   55 am   BACKBONE|DICT|INTERRES
   111   54  179 1    
   112   55   56 2    
   113   55   57 1    
   114   57   58 1    
   115   57   59 1    
   116   57  180 1    
   117   58  181 1    
   118   58  182 1    
   119   58  183 1    
   120   59   60 am   BACKBONE|DICT|INTERRES
   121   59  184 1    
   122   60   61 2    
   123   60   62 1    
   124   62   63 1    
   125   62   64 1    
   126   62  185 1    
   127   63  186 1    
   128   63  187 1    
   129   63  188 1    
   130   64   65 am   BACKBONE|DICT|INTERRES
   131   64  189 1    
   132   65   66 2    
   133   67   68 2    
   134   67   69 am   BACKBONE|DICT|INTERRES
   135   69   70 1    
   136   69  190 1    
   137   70   71 1    
   138   70   72 1    
   139   70  191 1    
   140   71  192 1    
   141   71  193 1    
   142   71  194 1    
   143   72   73 2    
   144   72   74 am   BACKBONE|DICT|INTERRES
   145   74   75 1    
   146   74  195 1    
   147   75   76 1    
   148   75   77 1    
   149   75  196 1    
   150   76  197 1    
   151   76  198 1    
   152   76  199 1    
   153   77   78 2    
   154   77   79 am   BACKBONE|DICT|INTERRES
   155   79   80 1    
   156   79  200 1    
   157   80   81 1    
   158   80   82 1    
   159   80  201 1    
   160   81  202 1    
   161   81  203 1    
   162   81  204 1    
   163   82   83 2    
   164   82   84 am   BACKBONE|DICT|INTERRES
   165   84   85 1    
   166   84  205 1    
   167   85   86 1    
   168   85   87 1    
   169   85  206 1    
   170   86  207 1    
   171   86  208 1    
   172   86  209 1    
   173   87   88 2    
   174   87   89 am   BACKBONE|DICT|INTERRES
   175   89   90 1    
   176   89  210 1    
   177   90   91 1    
   178   90   92 1    
   179   90  211 1    
   180   91  212 1    
   181   91  213 1    
   182   91  214 1    
   183   92   93 2    
   184   92   94 am   BACKBONE|DICT|INTERRES
   185   94   95 1    
   186   94  215 1    
   187   95   96 1    
   188   95   97 1    
   189   95  216 1    
   190   96  217 1    
   191   96  218 1    
   192   96  219 1    
   193   97   98 2    
   194   97   99 am   BACKBONE|DICT|INTERRES
   195   99  100 1    
   196   99  220 1    
   197  100  101 1    
   198  100  102 1    
   199  100  221 1    
   200  101  222 1    
   201  101  223 1    
   202  101  224 1    
   203  102  103 2    
   204  102  104 am   BACKBONE|DICT|INTERRES
   205  104  105 1    
   206  104  225 1    
   207  105  106 1    
   208  105  107 1    
   209  105  226 1    
   210  106  227 1    
   211  106  228 1    
   212  106  229 1    
   213  107  108 2    
   214  107  109 am   BACKBONE|DICT|INTERRES
   215  109  110 1    
   216  109  230 1    
   217  110  111 1    
   218  110  112 1    
   219  110  231 1    
   220  111  232 1    
   221  111  233 1    
   222  111  234 1    
   223  112  113 2    
   224  112  114 am   BACKBONE|DICT|INTERRES
   225  114  115 1    
   226  114  235 1    
   227  115  116 1    
   228  115  117 1    
   229  115  236 1    
   230  116  237 1    
   231  116  238 1    
   232  116  239 1    
   233  117  118 2    
   234  117  119 am   BACKBONE|DICT|INTERRES
   235  119  120 1    
   236  119  240 1    
   237  120  121 1    
   238  120  124 1    
   239  120  241 1    
   240  121  122 am   BACKBONE|DICT|INTERRES
   241  121  123 2    
   242  122  242 1    
   243  122  243 1    
   244  124  125 1    
   245  124  244 1    
   246  124  245 1    
   247  125  126 1    
   248  126  246 1    
   249  126  247 1    
@<TRIPOS>SUBSTRUCTURE
     1 UNK         1 GROUP             0       ****    0 ROOT    
