@<TRIPOS>MOLECULE
3R540
247   249    1
SMALL
USER_CHARGES


@<TRIPOS>ATOM
      1 CA         -3.5748   -9.6757  -45.6184 C.3       0 UNK        -0.1800 
      2 C          -2.5618  -10.7876  -45.8472 C.2       0 UNK         0.5000 
      3 O          -1.3574  -10.5380  -45.8085 O.2       0 UNK        -0.5000 
      4 N          -3.0404  -12.0202  -46.0647 N.am      1 UNK        -0.5000 
      5 CA         -2.2302  -13.2125  -46.3675 C.3       1 UNK         0.1400 
      6 C6         -3.0975  -14.4290  -46.7771 C.3       23 UNK        -0.0398 
      7 S7         -4.2688  -14.0183  -48.1161 S.3       23 UNK        -0.2404 
      8 C8         -5.5354  -15.3082  -47.9211 C.3       23 UNK        -0.0205 
      9 C9         -5.3544  -16.4218  -48.9389 C.ar      23 UNK        -0.0193 
     10 C10        -5.8515  -16.2613  -50.2345 C.ar      23 UNK        -0.1150 
     11 C11        -5.7298  -17.2864  -51.1756 C.ar      23 UNK        -0.0193 
     12 C12        -5.1192  -18.4867  -50.8034 C.ar      23 UNK        -0.1150 
     13 C13        -4.5937  -18.6526  -49.5189 C.ar      23 UNK        -0.0193 
     14 C14        -4.7134  -17.6137  -48.5903 C.ar      23 UNK        -0.1150 
     15 C15        -3.8824  -19.9474  -49.1549 C.3       23 UNK        -0.0205 
     16 S16        -4.9739  -21.1122  -48.2849 S.3       23 UNK        -0.2404 
     17 C17        -4.5714  -20.7693  -46.5367 C.3       23 UNK        -0.0398 
     18 CA         -3.5194  -21.7454  -45.9492 C.3       11 UNK         0.1400 
     19 N          -2.8816  -21.1786  -44.7517 N.am      11 UNK        -0.5000 
     20 C          -1.9079  -21.7525  -44.0298 C.2       10 UNK         0.5000 
     21 O          -1.4516  -22.8725  -44.2662 O.2       10 UNK        -0.5000 
     22 CA         -1.3725  -20.9286  -42.8453 C.3       10 UNK         0.1400 
     23 CB         -0.3048  -21.6759  -42.0274 C.3       10 UNK        -0.1800 
     24 N          -0.7988  -19.6808  -43.3385 N.am      10 UNK        -0.5000 
     25 C          -1.3848  -18.4797  -43.2713 C.2       9 UNK         0.5000 
     26 O          -2.4887  -18.2827  -42.7627 O.2       9 UNK        -0.5000 
     27 CA         -0.6232  -17.3086  -43.9173 C.3       9 UNK         0.1400 
     28 CB          0.5785  -16.8921  -43.0547 C.3       9 UNK        -0.1800 
     29 N          -0.1610  -17.6211  -45.2676 N.am      9 UNK        -0.5000 
     30 C          -0.9545  -17.9014  -46.3103 C.2       8 UNK         0.5000 
     31 O          -2.1833  -17.8932  -46.2592 O.2       8 UNK        -0.5000 
     32 CA         -0.2510  -18.2891  -47.6213 C.3       8 UNK         0.1400 
     33 CB          0.1983  -17.0464  -48.4049 C.3       8 UNK        -0.1800 
     34 N           0.8927  -19.1626  -47.3594 N.am      8 UNK        -0.5000 
     35 C           0.7796  -20.4735  -47.1010 C.2       7 UNK         0.5000 
     36 O          -0.2834  -21.0865  -47.1684 O.2       7 UNK        -0.5000 
     37 CA          2.0581  -21.2333  -46.6976 C.3       7 UNK         0.1400 
     38 CB          2.7016  -21.8993  -47.9228 C.3       7 UNK        -0.1800 
     39 N           3.0498  -20.3847  -46.0364 N.am      7 UNK        -0.5000 
     40 C           2.9152  -19.8990  -44.7949 C.2       6 UNK         0.5000 
     41 O           1.9489  -20.1342  -44.0713 O.2       6 UNK        -0.5000 
     42 CA          4.0205  -18.9455  -44.3008 C.3       6 UNK         0.1400 
     43 CB          5.1773  -19.7395  -43.6763 C.3       6 UNK        -0.1800 
     44 N           4.5466  -18.0553  -45.3421 N.am      6 UNK        -0.5000 
     45 C           3.8072  -17.1943  -46.0538 C.2       5 UNK         0.5000 
     46 O           2.5819  -17.1086  -45.9543 O.2       5 UNK        -0.5000 
     47 CA          4.5533  -16.3375  -47.0934 C.3       5 UNK         0.1400 
     48 CB          4.7199  -17.1273  -48.4012 C.3       5 UNK        -0.1800 
     49 N           3.8518  -15.0873  -47.3913 N.am      5 UNK        -0.5000 
     50 C           3.6391  -14.0949  -46.5169 C.2       4 UNK         0.5000 
     51 O           4.0968  -14.0966  -45.3708 O.2       4 UNK        -0.5000 
     52 CA          2.8067  -12.8944  -47.0199 C.3       4 UNK         0.1400 
     53 CB          1.7460  -13.2813  -48.0707 C.3       4 UNK        -0.1800 
     54 N           2.1406  -12.2231  -45.9050 N.am      4 UNK        -0.5000 
     55 C           2.6585  -11.2118  -45.1932 C.2       3 UNK         0.5000 
     56 O           3.7436  -10.6872  -45.4507 O.2       3 UNK        -0.5000 
     57 CA          1.8360  -10.6750  -44.0031 C.3       3 UNK         0.1400 
     58 CB          1.4116   -9.2173  -44.2475 C.3       3 UNK        -0.1800 
     59 N           0.6394  -11.4746  -43.7342 N.am      3 UNK        -0.5000 
     60 C           0.5964  -12.5259  -42.9025 C.2       2 UNK         0.5000 
     61 O           1.5557  -12.9009  -42.2283 O.2       2 UNK        -0.5000 
     62 CA         -0.7360  -13.2994  -42.8049 C.3       2 UNK         0.1400 
     63 CB         -1.5338  -12.8429  -41.5745 C.3       2 UNK        -0.1800 
     64 N          -1.5848  -13.1758  -43.9909 N.am      2 UNK        -0.5000 
     65 C          -1.2647  -13.5940  -45.2241 C.2       1 UNK         0.5000 
     66 O          -0.2309  -14.2067  -45.4823 O.2       1 UNK        -0.5000 
     67 C          -4.1126  -23.1546  -45.7159 C.2       11 UNK         0.5000 
     68 O          -3.9862  -24.0228  -46.5811 O.2       11 UNK        -0.5000 
     69 N          -4.7078  -23.3677  -44.5328 N.am      12 UNK        -0.5000 
     70 CA         -5.2731  -24.6487  -44.1077 C.3       12 UNK         0.1400 
     71 CB         -6.1123  -24.4377  -42.8387 C.3       12 UNK        -0.1800 
     72 C          -4.2033  -25.7323  -43.8774 C.2       12 UNK         0.5000 
     73 O          -4.4165  -26.8819  -44.2622 O.2       12 UNK        -0.5000 
     74 N          -3.0611  -25.3468  -43.2891 N.am      13 UNK        -0.5000 
     75 CA         -1.9149  -26.2304  -43.0512 C.3       13 UNK         0.1400 
     76 CB         -0.9516  -25.5735  -42.0521 C.3       13 UNK        -0.1800 
     77 C          -1.1814  -26.5871  -44.3561 C.2       13 UNK         0.5000 
     78 O          -0.7072  -27.7136  -44.5036 O.2       13 UNK        -0.5000 
     79 N          -1.1490  -25.6333  -45.2960 N.am      14 UNK        -0.5000 
     80 CA         -0.6547  -25.8069  -46.6619 C.3       14 UNK         0.1400 
     81 CB         -0.3710  -24.4199  -47.2597 C.3       14 UNK        -0.1800 
     82 C          -1.6194  -26.5968  -47.5712 C.2       14 UNK         0.5000 
     83 O          -1.2711  -26.8526  -48.7232 O.2       14 UNK        -0.5000 
     84 N          -2.8194  -26.9348  -47.0715 N.am      15 UNK        -0.5000 
     85 CA         -3.9076  -27.6358  -47.7642 C.3       15 UNK         0.1400 
     86 CB         -3.5200  -29.1053  -48.0276 C.3       15 UNK        -0.1800 
     87 C          -4.3794  -26.8991  -49.0368 C.2       15 UNK         0.5000 
     88 O          -4.7270  -27.5365  -50.0323 O.2       15 UNK        -0.5000 
     89 N          -4.3486  -25.5601  -48.9770 N.am      16 UNK        -0.5000 
     90 CA         -4.6507  -24.6037  -50.0425 C.3       16 UNK         0.1400 
     91 CB         -6.1356  -24.6792  -50.4520 C.3       16 UNK        -0.1800 
     92 C          -3.6958  -24.6585  -51.2546 C.2       16 UNK         0.5000 
     93 O          -4.0203  -24.0857  -52.2942 O.2       16 UNK        -0.5000 
     94 N          -2.5141  -25.2830  -51.1169 N.am      17 UNK        -0.5000 
     95 CA         -1.5025  -25.3687  -52.1803 C.3       17 UNK         0.1400 
     96 CB         -0.3738  -26.3135  -51.7444 C.3       17 UNK        -0.1800 
     97 C          -0.9253  -23.9989  -52.5914 C.2       17 UNK         0.5000 
     98 O          -0.5171  -23.8246  -53.7401 O.2       17 UNK        -0.5000 
     99 N          -0.9401  -23.0400  -51.6555 N.am      18 UNK        -0.5000 
    100 CA        -0.5303  -21.6526  -51.8645 C.3       18 UNK         0.1400 
    101 CB        -0.2991  -20.9911  -50.4996 C.3       18 UNK        -0.1800 
    102 C         -1.5182  -20.8253  -52.7099 C.2       18 UNK         0.5000 
    103 O         -1.1557  -19.7262  -53.1290 O.2       18 UNK        -0.5000 
    104 N         -2.7267  -21.3450  -52.9833 N.am      19 UNK        -0.5000 
    105 CA        -3.7666  -20.6764  -53.7778 C.3       19 UNK         0.1400 
    106 CB        -5.1018  -21.4177  -53.6153 C.3       19 UNK        -0.1800 
    107 C         -3.4184  -20.4765  -55.2679 C.2       19 UNK         0.5000 
    108 O         -4.1477  -19.7781  -55.9718 O.2       19 UNK        -0.5000 
    109 N         -2.2955  -21.0503  -55.7201 N.am      20 UNK        -0.5000 
    110 CA        -1.6592  -20.7356  -56.9984 C.3       20 UNK         0.1400 
    111 CB        -0.5517  -21.7667  -57.2645 C.3       20 UNK        -0.1800 
    112 C         -1.0860  -19.3012  -57.0495 C.2       20 UNK         0.5000 
    113 O         -0.9368  -18.7586  -58.1453 O.2       20 UNK        -0.5000 
    114 N         -0.7765  -18.7192  -55.8810 N.am      21 UNK        -0.5000 
    115 CA        -0.2469  -17.3640  -55.7272 C.3       21 UNK         0.1400 
    116 CB         1.1694  -17.4454  -55.1351 C.3       21 UNK        -0.1800 
    117 C         -1.1500  -16.4880  -54.8404 C.2       21 UNK         0.5000 
    118 O         -1.3290  -15.3107  -55.1561 O.2       21 UNK        -0.5000 
    119 N         -1.6955  -17.0691  -53.7615 N.am      22 UNK        -0.5000 
    120 CA        -2.4698  -16.4097  -52.6925 C.3       22 UNK         0.1400 
    121 C         -1.6260  -15.4294  -51.8201 C.2       22 UNK         0.5000 
    122 N         -2.2061  -14.8652  -50.7697 N.am      22 UNK        -0.7600 
    123 O         -0.4428  -15.1905  -52.0510 O.2       22 UNK        -0.5000 
    124 C124       -3.8002  -15.7734  -53.1969 C.3       23 UNK        -0.0398 
    125 S125       -4.9492  -17.0324  -53.8524 S.3       23 UNK        -0.2404 
    126 C126       -6.2648  -17.0912  -52.5886 C.3       23 UNK        -0.0205 
    127 H127       -3.4228   -9.2266  -44.6370 H         1 UNK         0.0600 
    128 H128       -4.5996  -10.0440  -45.6701 H         1 UNK         0.0600 
    129 H129       -3.4537   -8.8985  -46.3728 H         1 UNK         0.0600 
    130 H130       -4.0403  -12.1606  -46.1001 H         1 UNK         0.3000 
    131 H131       -1.6030  -12.9543  -47.2236 H         1 UNK         0.0600 
    132 H132       -2.4677  -15.2519  -47.1192 H         1 UNK         0.0800 
    133 H133       -3.6532  -14.8023  -45.9151 H         1 UNK         0.0800 
    134 H134       -6.5176  -14.8531  -48.0569 H         1 UNK         0.0800 
    135 H135       -5.5314  -15.7099  -46.9071 H         1 UNK         0.0800 
    136 H136       -6.3369  -15.3344  -50.5070 H         1 UNK         0.1150 
    137 H137       -5.0437  -19.2898  -51.5191 H         1 UNK         0.1150 
    138 H138       -4.3197  -17.7328  -47.5928 H         1 UNK         0.1150 
    139 H139       -3.0023  -19.7392  -48.5480 H         1 UNK         0.0800 
    140 H140       -3.5182  -20.4330  -50.0611 H         1 UNK         0.0800 
    141 H141       -5.4941  -20.7917  -45.9543 H         1 UNK         0.0800 
    142 H142       -4.2088  -19.7442  -46.4644 H         1 UNK         0.0800 
    143 H143       -2.7225  -21.8605  -46.6852 H         1 UNK         0.0600 
    144 H144       -3.1692  -20.2453  -44.4927 H         1 UNK         0.3000 
    145 H145       -2.2141  -20.7271  -42.1798 H         1 UNK         0.0600 
    146 H146        0.1023  -21.0423  -41.2394 H         1 UNK         0.0600 
    147 H147       -0.7323  -22.5542  -41.5445 H         1 UNK         0.0600 
    148 H148        0.5268  -22.0084  -42.6501 H         1 UNK         0.0600 
    149 H149        0.1191  -19.7598  -43.7709 H         1 UNK         0.3000 
    150 H150       -1.3073  -16.4610  -43.9878 H         1 UNK         0.0600 
    151 H151        1.2977  -17.7031  -42.9453 H         1 UNK         0.0600 
    152 H152        0.2596  -16.6026  -42.0528 H         1 UNK         0.0600 
    153 H153        1.1023  -16.0418  -43.4933 H         1 UNK         0.0600 
    154 H154        0.8423  -17.5771  -45.4261 H         1 UNK         0.3000 
    155 H155       -0.9666  -18.8247  -48.2453 H         1 UNK         0.0600 
    156 H156        0.9155  -16.4493  -47.8434 H         1 UNK         0.0600 
    157 H157       -0.6527  -16.4039  -48.6339 H         1 UNK         0.0600 
    158 H158        0.6599  -17.3228  -49.3529 H         1 UNK         0.0600 
    159 H159        1.7827  -18.7073  -47.2103 H         1 UNK         0.3000 
    160 H160        1.7649  -22.0186  -45.9976 H         1 UNK         0.0600 
    161 H161        3.0002  -21.1644  -48.6715 H         1 UNK         0.0600 
    162 H162        2.0069  -22.5922  -48.3989 H         1 UNK         0.0600 
    163 H163        3.5850  -22.4730  -47.6420 H         1 UNK         0.0600 
    164 H164        3.8728  -20.1393  -46.5665 H         1 UNK         0.3000 
    165 H165        3.5845  -18.3152  -43.5234 H         1 UNK         0.0600 
    166 H166        5.9181  -19.0746  -43.2318 H         1 UNK         0.0600 
    167 H167        5.6839  -20.3624  -44.4146 H         1 UNK         0.0600 
    168 H168        4.8165  -20.3969  -42.8840 H         1 UNK         0.0600 
    169 H169        5.5449  -18.0837  -45.4927 H         1 UNK         0.3000 
    170 H170        5.5404  -16.0891  -46.6984 H         1 UNK         0.0600 
    171 H171        5.2699  -18.0545  -48.2349 H         1 UNK         0.0600 
    172 H172        3.7554  -17.3917  -48.8376 H         1 UNK         0.0600 
    173 H173        5.2763  -16.5520  -49.1415 H         1 UNK         0.0600 
    174 H174        3.4268  -15.0217  -48.3037 H         1 UNK         0.3000 
    175 H175        3.5027  -12.2013  -47.4965 H         1 UNK         0.0600 
    176 H176        1.0959  -14.0800  -47.7160 H         1 UNK         0.0600 
    177 H177        1.1144  -12.4290  -48.3224 H         1 UNK         0.0600 
    178 H178        2.2070  -13.6172  -49.0000 H         1 UNK         0.0600 
    179 H179        1.2812  -12.6519  -45.5852 H         1 UNK         0.3000 
    180 H180        2.4880  -10.6885  -43.1273 H         1 UNK         0.0600 
    181 H181        0.8090   -9.1181  -45.1506 H         1 UNK         0.0600 
    182 H182        2.2825   -8.5712  -44.3644 H         1 UNK         0.0600 
    183 H183        0.8304   -8.8289  -43.4110 H         1 UNK         0.0600 
    184 H184       -0.1818  -11.2377  -44.2818 H         1 UNK         0.3000 
    185 H185       -0.4936  -14.3538  -42.6779 H         1 UNK         0.0600 
    186 H186       -2.4366  -13.4402  -41.4450 H         1 UNK         0.0600 
    187 H187       -0.9427  -12.9492  -40.6638 H         1 UNK         0.0600 
    188 H188       -1.8302  -11.7961  -41.6533 H         1 UNK         0.0600 
    189 H189       -2.4476  -12.6643  -43.8754 H         1 UNK         0.3000 
    190 H190       -4.7610  -22.6051  -43.8739 H         1 UNK         0.3000 
    191 H191       -5.9375  -25.0030  -44.8990 H         1 UNK         0.0600 
    192 H192       -6.5629  -25.3748  -42.5088 H         1 UNK         0.0600 
    193 H193       -6.9250  -23.7331  -43.0162 H         1 UNK         0.0600 
    194 H194       -5.5096  -24.0551  -42.0141 H         1 UNK         0.0600 
    195 H195       -2.9336  -24.3709  -43.0644 H         1 UNK         0.3000 
    196 H196       -2.2849  -27.1572  -42.6075 H         1 UNK         0.0600 
    197 H197       -0.4760  -24.6894  -42.4759 H         1 UNK         0.0600 
    198 H198       -1.4652  -25.2785  -41.1370 H         1 UNK         0.0600 
    199 H199       -0.1562  -26.2649  -41.7711 H         1 UNK         0.0600 
    200 H200       -1.5015  -24.7111  -45.0568 H         1 UNK         0.3000 
    201 H201        0.2847  -26.3617  -46.6235 H         1 UNK         0.0600 
    202 H202       -1.2806  -23.8251  -47.3474 H         1 UNK         0.0600 
    203 H203        0.0679  -24.4983  -48.2550 H         1 UNK         0.0600 
    204 H204        0.3298  -23.8634  -46.6388 H         1 UNK         0.0600 
    205 H205       -3.0265  -26.6513  -46.1233 H         1 UNK         0.3000 
    206 H206       -4.7568  -27.6339  -47.0795 H         1 UNK         0.0600 
    207 H207       -3.2007  -29.5982  -47.1093 H         1 UNK         0.0600 
    208 H208       -4.3667  -29.6696  -48.4199 H         1 UNK         0.0600 
    209 H209       -2.7086  -29.1865  -48.7516 H         1 UNK         0.0600 
    210 H210       -4.0730  -25.1344  -48.0935 H         1 UNK         0.3000 
    211 H211       -4.4878  -23.6228  -49.5990 H         1 UNK         0.0600 
    212 H212       -6.3996  -23.8599  -51.1218 H         1 UNK         0.0600 
    213 H213       -6.7876  -24.6050  -49.5816 H         1 UNK         0.0600 
    214 H214       -6.3672  -25.6106  -50.9690 H         1 UNK         0.0600 
    215 H215       -2.2977  -25.7553  -50.2460 H         1 UNK         0.3000 
    216 H216       -1.9833  -25.7984  -53.0615 H         1 UNK         0.0600 
    217 H217        0.1541  -25.9318  -50.8696 H         1 UNK         0.0600 
    218 H218        0.3603  -26.4394  -52.5413 H         1 UNK         0.0600 
    219 H219       -0.7597  -27.3031  -51.4989 H         1 UNK         0.0600 
    220 H220       -1.2935  -23.2767  -50.7405 H         1 UNK         0.3000 
    221 H221        0.4202  -21.6540  -52.4021 H         1 UNK         0.0600 
    222 H222        0.5074  -21.4886  -49.9634 H         1 UNK         0.0600 
    223 H223       -1.1891  -21.0316  -49.8724 H         1 UNK         0.0600 
    224 H224       -0.0160  -19.9428  -50.6054 H         1 UNK         0.0600 
    225 H225       -2.9550  -22.2741  -52.6482 H         1 UNK         0.3000 
    226 H226       -3.8830  -19.6759  -53.3639 H         1 UNK         0.0600 
    227 H227       -5.0706  -22.4036  -54.0799 H         1 UNK         0.0600 
    228 H228       -5.3606  -21.5480  -52.5642 H         1 UNK         0.0600 
    229 H229       -5.9154  -20.8617  -54.0826 H         1 UNK         0.0600 
    230 H230       -1.7736  -21.6397  -55.0870 H         1 UNK         0.3000 
    231 H231       -2.4092  -20.8230  -57.7872 H         1 UNK         0.0600 
    232 H232        0.2202  -21.7355  -56.4944 H         1 UNK         0.0600 
    233 H233       -0.0671  -21.5813  -58.2240 H         1 UNK         0.0600 
    234 H234       -0.9543  -22.7794  -57.2946 H         1 UNK         0.0600 
    235 H235       -0.9454  -19.2316  -55.0223 H         1 UNK         0.3000 
    236 H236       -0.1768  -16.8692  -56.6980 H         1 UNK         0.0600 
    237 H237        1.8400  -17.9964  -55.7946 H         1 UNK         0.0600 
    238 H238        1.5930  -16.4498  -54.9966 H         1 UNK         0.0600 
    239 H239        1.1714  -17.9418  -54.1637 H         1 UNK         0.0600 
    240 H240       -1.4536  -18.0366  -53.5623 H         1 UNK         0.3000 
    241 H241       -2.7291  -17.2189  -52.0089 H         1 UNK         0.0600 
    242 H242       -1.6629  -14.2307  -50.2078 H         1 UNK         0.3800 
    243 H243       -3.1602  -15.0607  -50.5097 H         1 UNK         0.3800 
    244 H244       -3.6093  -15.0382  -53.9783 H         1 UNK         0.0800 
    245 H245       -4.3053  -15.2207  -52.4053 H         1 UNK         0.0800 
    246 H246       -6.9457  -17.9091  -52.8282 H         1 UNK         0.0800 
    247 H247       -6.8543  -16.1755  -52.6547 H         1 UNK         0.0800 
@<TRIPOS>BOND
     1    1    2 1    
     2    1  127 1    
     3    1  128 1    
     4    1  129 1    
     5    2    3 2    
     6    2    4 am   BACKBONE|DICT|INTERRES
     7    4    5 1    
     8    4  130 1    
     9    5    6 1    
    10    5   65 1    
    11    5  131 1    
    12    6    7 1    
    13    6  132 1    
    14    6  133 1    
    15    7    8 1    
    16    8    9 1    
    17    8  134 1    
    18    8  135 1    
    19    9   10 ar   
    20    9   14 ar   
    21   10   11 ar   
    22   10  136 1    
    23   11   12 ar   
    24   11  126 1    
    25   12   13 ar   
    26   12  137 1    
    27   13   14 ar   
    28   13   15 1    
    29   14  138 1    
    30   15   16 1    
    31   15  139 1    
    32   15  140 1    
    33   16   17 1    
    34   17   18 1    
    35   17  141 1    
    36   17  142 1    
    37   18   19 1    
    38   18   67 1    
    39   18  143 1    
    40   19   20 am   BACKBONE|DICT|INTERRES
    41   19  144 1    
    42   20   21 2    
    43   20   22 1    
    44   22   23 1    
    45   22   24 1    
    46   22  145 1    
    47   23  146 1    
    48   23  147 1    
    49   23  148 1    
    50   24   25 am   BACKBONE|DICT|INTERRES
    51   24  149 1    
    52   25   26 2    
    53   25   27 1    
    54   27   28 1    
    55   27   29 1    
    56   27  150 1    
    57   28  151 1    
    58   28  152 1    
    59   28  153 1    
    60   29   30 am   BACKBONE|DICT|INTERRES
    61   29  154 1    
    62   30   31 2    
    63   30   32 1    
    64   32   33 1    
    65   32   34 1    
    66   32  155 1    
    67   33  156 1    
    68   33  157 1    
    69   33  158 1    
    70   34   35 am   BACKBONE|DICT|INTERRES
    71   34  159 1    
    72   35   36 2    
    73   35   37 1    
    74   37   38 1    
    75   37   39 1    
    76   37  160 1    
    77   38  161 1    
    78   38  162 1    
    79   38  163 1    
    80   39   40 am   BACKBONE|DICT|INTERRES
    81   39  164 1    
    82   40   41 2    
    83   40   42 1    
    84   42   43 1    
    85   42   44 1    
    86   42  165 1    
    87   43  166 1    
    88   43  167 1    
    89   43  168 1    
    90   44   45 am   BACKBONE|DICT|INTERRES
    91   44  169 1    
    92   45   46 2    
    93   45   47 1    
    94   47   48 1    
    95   47   49 1    
    96   47  170 1    
    97   48  171 1    
    98   48  172 1    
    99   48  173 1    
   100   49   50 am   BACKBONE|DICT|INTERRES
   101   49  174 1    
   102   50   51 2    
   103   50   52 1    
   104   52   53 1    
   105   52   54 1    
   106   52  175 1    
   107   53  176 1    
   108   53  177 1    
   109   53  178 1    
   110   54   55 am   BACKBONE|DICT|INTERRES
   111   54  179 1    
   112   55   56 2    
   113   55   57 1    
   114   57   58 1    
   115   57   59 1    
   116   57  180 1    
   117   58  181 1    
   118   58  182 1    
   119   58  183 1    
   120   59   60 am   BACKBONE|DICT|INTERRES
   121   59  184 1    
   122   60   61 2    
   123   60   62 1    
   124   62   63 1    
   125   62   64 1    
   126   62  185 1    
   127   63  186 1    
   128   63  187 1    
   129   63  188 1    
   130   64   65 am   BACKBONE|DICT|INTERRES
   131   64  189 1    
   132   65   66 2    
   133   67   68 2    
   134   67   69 am   BACKBONE|DICT|INTERRES
   135   69   70 1    
   136   69  190 1    
   137   70   71 1    
   138   70   72 1    
   139   70  191 1    
   140   71  192 1    
   141   71  193 1    
   142   71  194 1    
   143   72   73 2    
   144   72   74 am   BACKBONE|DICT|INTERRES
   145   74   75 1    
   146   74  195 1    
   147   75   76 1    
   148   75   77 1    
   149   75  196 1    
   150   76  197 1    
   151   76  198 1    
   152   76  199 1    
   153   77   78 2    
   154   77   79 am   BACKBONE|DICT|INTERRES
   155   79   80 1    
   156   79  200 1    
   157   80   81 1    
   158   80   82 1    
   159   80  201 1    
   160   81  202 1    
   161   81  203 1    
   162   81  204 1    
   163   82   83 2    
   164   82   84 am   BACKBONE|DICT|INTERRES
   165   84   85 1    
   166   84  205 1    
   167   85   86 1    
   168   85   87 1    
   169   85  206 1    
   170   86  207 1    
   171   86  208 1    
   172   86  209 1    
   173   87   88 2    
   174   87   89 am   BACKBONE|DICT|INTERRES
   175   89   90 1    
   176   89  210 1    
   177   90   91 1    
   178   90   92 1    
   179   90  211 1    
   180   91  212 1    
   181   91  213 1    
   182   91  214 1    
   183   92   93 2    
   184   92   94 am   BACKBONE|DICT|INTERRES
   185   94   95 1    
   186   94  215 1    
   187   95   96 1    
   188   95   97 1    
   189   95  216 1    
   190   96  217 1    
   191   96  218 1    
   192   96  219 1    
   193   97   98 2    
   194   97   99 am   BACKBONE|DICT|INTERRES
   195   99  100 1    
   196   99  220 1    
   197  100  101 1    
   198  100  102 1    
   199  100  221 1    
   200  101  222 1    
   201  101  223 1    
   202  101  224 1    
   203  102  103 2    
   204  102  104 am   BACKBONE|DICT|INTERRES
   205  104  105 1    
   206  104  225 1    
   207  105  106 1    
   208  105  107 1    
   209  105  226 1    
   210  106  227 1    
   211  106  228 1    
   212  106  229 1    
   213  107  108 2    
   214  107  109 am   BACKBONE|DICT|INTERRES
   215  109  110 1    
   216  109  230 1    
   217  110  111 1    
   218  110  112 1    
   219  110  231 1    
   220  111  232 1    
   221  111  233 1    
   222  111  234 1    
   223  112  113 2    
   224  112  114 am   BACKBONE|DICT|INTERRES
   225  114  115 1    
   226  114  235 1    
   227  115  116 1    
   228  115  117 1    
   229  115  236 1    
   230  116  237 1    
   231  116  238 1    
   232  116  239 1    
   233  117  118 2    
   234  117  119 am   BACKBONE|DICT|INTERRES
   235  119  120 1    
   236  119  240 1    
   237  120  121 1    
   238  120  124 1    
   239  120  241 1    
   240  121  122 am   BACKBONE|DICT|INTERRES
   241  121  123 2    
   242  122  242 1    
   243  122  243 1    
   244  124  125 1    
   245  124  244 1    
   246  124  245 1    
   247  125  126 1    
   248  126  246 1    
   249  126  247 1    
@<TRIPOS>SUBSTRUCTURE
     1 UNK         1 GROUP             0       ****    0 ROOT    
