@<TRIPOS>MOLECULE
3R540
247   249    1
SMALL
USER_CHARGES


@<TRIPOS>ATOM
      1 CA         -0.9721  -15.0624  -51.5006 C.3       0 UNK        -0.1800 
      2 C          -0.4933  -14.0972  -50.4312 C.2       0 UNK         0.5000 
      3 O          -0.8712  -12.9266  -50.4562 O.2       0 UNK        -0.5000 
      4 N           0.3209  -14.5795  -49.4827 N.am      1 UNK        -0.5000 
      5 CA          0.8547  -13.7911  -48.3644 C.3       1 UNK         0.1400 
      6 C6          2.2824  -14.2387  -47.9640 C.3       23 UNK        -0.0398 
      7 S7          2.3799  -15.8468  -47.1008 S.3       23 UNK        -0.2404 
      8 C8          3.6930  -16.7067  -48.0197 C.3       23 UNK        -0.0205 
      9 C9          3.1511  -17.5494  -49.1645 C.ar      23 UNK        -0.0193 
     10 C10         3.1384  -17.0506  -50.4711 C.ar      23 UNK        -0.1150 
     11 C11         2.7362  -17.8634  -51.5363 C.ar      23 UNK        -0.0193 
     12 C12         2.3413  -19.1785  -51.2788 C.ar      23 UNK        -0.1150 
     13 C13         2.3018  -19.6774  -49.9759 C.ar      23 UNK        -0.0193 
     14 C14         2.7134  -18.8558  -48.9211 C.ar      23 UNK        -0.1150 
     15 C15         1.7741  -21.0874  -49.7352 C.3       23 UNK        -0.0205 
     16 S16         2.9634  -22.1889  -48.8957 S.3       23 UNK        -0.2404 
     17 C17         2.3370  -22.1514  -47.1766 C.3       23 UNK        -0.0398 
     18 CA          1.3580  -23.2802  -46.7365 C.3       11 UNK         0.1400 
     19 N           0.7016  -22.9230  -45.4747 N.am      11 UNK        -0.5000 
     20 C          -0.0763  -23.7255  -44.7337 C.2       10 UNK         0.5000 
     21 O          -0.4115  -24.8607  -45.0720 O.2       10 UNK        -0.5000 
     22 CA         -0.5733  -23.1539  -43.3961 C.3       10 UNK         0.1400 
     23 CB          0.5661  -23.1156  -42.3655 C.3       10 UNK        -0.1800 
     24 N          -1.1026  -21.8041  -43.5808 N.am      10 UNK        -0.5000 
     25 C          -2.4058  -21.4953  -43.6316 C.2       9 UNK         0.5000 
     26 O          -3.3087  -22.3020  -43.4121 O.2       9 UNK        -0.5000 
     27 CA         -2.7767  -20.0448  -44.0077 C.3       9 UNK         0.1400 
     28 CB         -3.0978  -19.2260  -42.7489 C.3       9 UNK        -0.1800 
     29 N          -1.7452  -19.3498  -44.7816 N.am      9 UNK        -0.5000 
     30 C          -1.3377  -19.7206  -46.0045 C.2       8 UNK         0.5000 
     31 O          -1.7995  -20.6828  -46.6124 O.2       8 UNK        -0.5000 
     32 CA         -0.1755  -18.9387  -46.6383 C.3       8 UNK         0.1400 
     33 CB         -0.7094  -17.8147  -47.5333 C.3       8 UNK        -0.1800 
     34 N           0.7716  -18.3883  -45.6696 N.am      8 UNK        -0.5000 
     35 C           1.4187  -19.0664  -44.7100 C.2       7 UNK         0.5000 
     36 O           1.3416  -20.2880  -44.5643 O.2       7 UNK        -0.5000 
     37 CA          2.2330  -18.2281  -43.7061 C.3       7 UNK         0.1400 
     38 CB          3.7175  -18.2056  -44.0947 C.3       7 UNK        -0.1800 
     39 N           1.7486  -16.8501  -43.5661 N.am      7 UNK        -0.5000 
     40 C           0.5363  -16.4973  -43.1139 C.2       6 UNK         0.5000 
     41 O          -0.3216  -17.3172  -42.7849 O.2       6 UNK        -0.5000 
     42 CA          0.1820  -14.9969  -43.0849 C.3       6 UNK         0.1400 
     43 CB         -0.3871  -14.5587  -41.7213 C.3       6 UNK        -0.1800 
     44 N           1.2437  -14.0891  -43.5336 N.am      6 UNK        -0.5000 
     45 C           2.4064  -13.7956  -42.9297 C.2       5 UNK         0.5000 
     46 O           2.8029  -14.3335  -41.8964 O.2       5 UNK        -0.5000 
     47 CA          3.2764  -12.7151  -43.6018 C.3       5 UNK         0.1400 
     48 CB          4.3235  -13.3621  -44.5206 C.3       5 UNK        -0.1800 
     49 N           2.4735  -11.7596  -44.3705 N.am      5 UNK        -0.5000 
     50 C           1.7371  -10.7853  -43.8189 C.2       4 UNK         0.5000 
     51 O           1.7470  -10.5217  -42.6156 O.2       4 UNK        -0.5000 
     52 CA          0.7919  -10.0078  -44.7484 C.3       4 UNK         0.1400 
     53 CB          1.2703   -9.9394  -46.2127 C.3       4 UNK        -0.1800 
     54 N          -0.5120  -10.6622  -44.6871 N.am      4 UNK        -0.5000 
     55 C          -1.5665  -10.2180  -43.9891 C.2       3 UNK         0.5000 
     56 O          -1.5846   -9.1273  -43.4161 O.2       3 UNK        -0.5000 
     57 CA         -2.7985  -11.1450  -43.8598 C.3       3 UNK         0.1400 
     58 CB         -4.1160  -10.4097  -44.1842 C.3       3 UNK        -0.1800 
     59 N          -2.7006  -12.4175  -44.5895 N.am      3 UNK        -0.5000 
     60 C          -2.7022  -12.6051  -45.9162 C.2       2 UNK         0.5000 
     61 O          -2.8334  -11.7060  -46.7485 O.2       2 UNK        -0.5000 
     62 CA         -2.4715  -14.0528  -46.3903 C.3       2 UNK         0.1400 
     63 CB         -3.7431  -14.6296  -47.0300 C.3       2 UNK        -0.1800 
     64 N          -1.3726  -14.1422  -47.3504 N.am      2 UNK        -0.5000 
     65 C          -0.1192  -13.7020  -47.1636 C.2       1 UNK         0.5000 
     66 O           0.2825  -13.2427  -46.0903 O.2       1 UNK        -0.5000 
     67 C           0.3468  -23.7112  -47.8239 C.2       11 UNK         0.5000 
     68 O           0.5291  -24.7651  -48.4360 O.2       11 UNK        -0.5000 
     69 N          -0.7146  -22.9171  -48.0292 N.am      12 UNK        -0.5000 
     70 CA         -1.7349  -23.2040  -49.0361 C.3       12 UNK         0.1400 
     71 CB         -2.4985  -21.9276  -49.4007 C.3       12 UNK        -0.1800 
     72 C          -2.7022  -24.2985  -48.5687 C.2       12 UNK         0.5000 
     73 O          -3.1624  -25.0777  -49.3986 O.2       12 UNK        -0.5000 
     74 N          -2.9573  -24.3792  -47.2547 N.am      13 UNK        -0.5000 
     75 CA         -3.7823  -25.4226  -46.6430 C.3       13 UNK         0.1400 
     76 CB         -4.0242  -25.0987  -45.1627 C.3       13 UNK        -0.1800 
     77 C          -3.1705  -26.8248  -46.8125 C.2       13 UNK         0.5000 
     78 O          -3.8948  -27.7656  -47.1374 O.2       13 UNK        -0.5000 
     79 N          -1.8419  -26.9243  -46.6597 N.am      14 UNK        -0.5000 
     80 CA         -1.0607  -28.1343  -46.9254 C.3       14 UNK         0.1400 
     81 CB          0.3751  -27.9269  -46.4203 C.3       14 UNK        -0.1800 
     82 C          -1.0602  -28.5409  -48.4137 C.2       14 UNK         0.5000 
     83 O          -1.0281  -29.7339  -48.7169 O.2       14 UNK        -0.5000 
     84 N          -1.1188  -27.5475  -49.3108 N.am      15 UNK        -0.5000 
     85 CA         -1.2084  -27.7279  -50.7620 C.3       15 UNK         0.1400 
     86 CB         -0.6303  -26.4784  -51.4469 C.3       15 UNK        -0.1800 
     87 C          -2.6450  -27.9979  -51.2609 C.2       15 UNK         0.5000 
     88 O          -2.8130  -28.3357  -52.4333 O.2       15 UNK        -0.5000 
     89 N          -3.6446  -27.8274  -50.3817 N.am      16 UNK        -0.5000 
     90 CA         -5.0885  -27.8721  -50.6394 C.3       16 UNK         0.1400 
     91 CB         -5.5361  -29.2915  -51.0469 C.3       16 UNK        -0.1800 
     92 C          -5.5502  -26.7742  -51.6250 C.2       16 UNK         0.5000 
     93 O          -6.3719  -27.0325  -52.5071 O.2       16 UNK        -0.5000 
     94 N          -5.0014  -25.5672  -51.4533 N.am      17 UNK        -0.5000 
     95 CA         -5.2642  -24.3703  -52.2466 C.3       17 UNK         0.1400 
     96 CB         -3.9552  -23.9752  -52.9507 C.3       17 UNK        -0.1800 
     97 C          -5.7632  -23.2283  -51.3421 C.2       17 UNK         0.5000 
     98 O          -5.7133  -23.3364  -50.1144 O.2       17 UNK        -0.5000 
     99 N          -6.2324  -22.1402  -51.9651 N.am      18 UNK        -0.5000 
    100 CA        -6.6525  -20.9203  -51.2769 C.3       18 UNK         0.1400 
    101 CB        -7.6073  -20.1278  -52.1827 C.3       18 UNK        -0.1800 
    102 C         -5.4326  -20.0630  -50.9017 C.2       18 UNK         0.5000 
    103 O         -4.5795  -19.8094  -51.7571 O.2       18 UNK        -0.5000 
    104 N         -5.3883  -19.5969  -49.6467 N.am      19 UNK        -0.5000 
    105 CA        -4.3027  -18.7822  -49.0889 C.3       19 UNK         0.1400 
    106 CB        -4.5240  -18.6158  -47.5781 C.3       19 UNK        -0.1800 
    107 C         -4.1324  -17.4142  -49.7732 C.2       19 UNK         0.5000 
    108 O         -3.0150  -16.9075  -49.8505 O.2       19 UNK        -0.5000 
    109 N         -5.2334  -16.8623  -50.2966 N.am      20 UNK        -0.5000 
    110 CA        -5.2551  -15.6222  -51.0729 C.3       20 UNK         0.1400 
    111 CB        -6.6966  -15.0897  -51.0975 C.3       20 UNK        -0.1800 
    112 C         -4.7112  -15.7806  -52.5097 C.2       20 UNK         0.5000 
    113 O         -4.5067  -14.7689  -53.1811 O.2       20 UNK        -0.5000 
    114 N         -4.5001  -17.0244  -52.9627 N.am      21 UNK        -0.5000 
    115 CA        -4.0770  -17.3691  -54.3203 C.3       21 UNK         0.1400 
    116 CB        -5.2145  -18.1571  -54.9948 C.3       21 UNK        -0.1800 
    117 C         -2.7570  -18.1645  -54.3393 C.2       21 UNK         0.5000 
    118 O         -2.4526  -18.7805  -55.3619 O.2       21 UNK        -0.5000 
    119 N         -2.0031  -18.1553  -53.2280 N.am      22 UNK        -0.5000 
    120 CA        -0.7585  -18.9276  -53.0281 C.3       22 UNK         0.1400 
    121 C         -0.9685  -20.4749  -52.9745 C.2       22 UNK         0.5000 
    122 N         -2.1683  -20.9785  -52.7187 N.am      22 UNK        -0.7600 
    123 O         -0.0252  -21.2440  -53.1349 O.2       22 UNK        -0.5000 
    124 C124        0.3894  -18.5097  -54.0032 C.3       23 UNK        -0.0398 
    125 S125        1.1166  -16.8864  -53.5947 S.3       23 UNK        -0.2404 
    126 C126        2.7693  -17.3395  -52.9670 C.3       23 UNK        -0.0205 
    127 H127       -2.0589  -15.0481  -51.5512 H         1 UNK         0.0600 
    128 H128       -0.5860  -14.7632  -52.4743 H         1 UNK         0.0600 
    129 H129       -0.6540  -16.0844  -51.2940 H         1 UNK         0.0600 
    130 H130        0.5969  -15.5513  -49.5032 H         1 UNK         0.3000 
    131 H131        0.9603  -12.7605  -48.7095 H         1 UNK         0.0600 
    132 H132        2.9114  -14.2615  -48.8545 H         1 UNK         0.0800 
    133 H133        2.7337  -13.4857  -47.3177 H         1 UNK         0.0800 
    134 H134        4.2325  -17.3555  -47.3295 H         1 UNK         0.0800 
    135 H135        4.4320  -15.9910  -48.3826 H         1 UNK         0.0800 
    136 H136        3.4717  -16.0404  -50.6625 H         1 UNK         0.1150 
    137 H137        2.0520  -19.8212  -52.0954 H         1 UNK         0.1150 
    138 H138        2.7129  -19.2331  -47.9095 H         1 UNK         0.1150 
    139 H139        0.8433  -21.0184  -49.1752 H         1 UNK         0.0800 
    140 H140        1.5068  -21.5582  -50.6828 H         1 UNK         0.0800 
    141 H141        1.8773  -21.1816  -47.0148 H         1 UNK         0.0800 
    142 H142        3.2035  -22.1603  -46.5142 H         1 UNK         0.0800 
    143 H143        1.9660  -24.1635  -46.5294 H         1 UNK         0.0600 
    144 H144        0.9302  -22.0034  -45.1060 H         1 UNK         0.3000 
    145 H145       -1.3476  -23.8225  -43.0140 H         1 UNK         0.0600 
    146 H146        0.2059  -22.7676  -41.3973 H         1 UNK         0.0600 
    147 H147        0.9911  -24.1090  -42.2164 H         1 UNK         0.0600 
    148 H148        1.3757  -22.4540  -42.6767 H         1 UNK         0.0600 
    149 H149       -0.4263  -21.0800  -43.7912 H         1 UNK         0.3000 
    150 H150       -3.6772  -20.0895  -44.6236 H         1 UNK         0.0600 
    151 H151       -3.9121  -19.6813  -42.1839 H         1 UNK         0.0600 
    152 H152       -3.4058  -18.2118  -43.0038 H         1 UNK         0.0600 
    153 H153       -2.2357  -19.1581  -42.0843 H         1 UNK         0.0600 
    154 H154       -1.2794  -18.5788  -44.3179 H         1 UNK         0.3000 
    155 H155        0.3647  -19.6318  -47.2783 H         1 UNK         0.0600 
    156 H156       -1.4050  -18.2141  -48.2695 H         1 UNK         0.0600 
    157 H157       -1.2318  -17.0490  -46.9594 H         1 UNK         0.0600 
    158 H158        0.0924  -17.3358  -48.0926 H         1 UNK         0.0600 
    159 H159        0.9352  -17.3929  -45.7240 H         1 UNK         0.3000 
    160 H160        2.1414  -18.7141  -42.7328 H         1 UNK         0.0600 
    161 H161        4.3172  -17.7170  -43.3266 H         1 UNK         0.0600 
    162 H162        4.1073  -19.2172  -44.2165 H         1 UNK         0.0600 
    163 H163        3.8797  -17.6748  -45.0319 H         1 UNK         0.0600 
    164 H164        2.3899  -16.1138  -43.8206 H         1 UNK         0.3000 
    165 H165       -0.6168  -14.8803  -43.8162 H         1 UNK         0.0600 
    166 H166       -0.6739  -13.5070  -41.7334 H         1 UNK         0.0600 
    167 H167       -1.2772  -15.1344  -41.4646 H         1 UNK         0.0600 
    168 H168        0.3337  -14.7010  -40.9159 H         1 UNK         0.0600 
    169 H169        1.0452  -13.6257  -44.4169 H         1 UNK         0.3000 
    170 H170        3.8057  -12.1744  -42.8142 H         1 UNK         0.0600 
    171 H171        4.9479  -12.6093  -45.0019 H         1 UNK         0.0600 
    172 H172        3.8613  -13.9658  -45.3000 H         1 UNK         0.0600 
    173 H173        4.9852  -14.0176  -43.9529 H         1 UNK         0.0600 
    174 H174        2.3833  -11.9293  -45.3613 H         1 UNK         0.3000 
    175 H175        0.7345   -8.9844  -44.3720 H         1 UNK         0.0600 
    176 H176        1.3019  -10.9155  -46.6942 H         1 UNK         0.0600 
    177 H177        0.6066   -9.3082  -46.8039 H         1 UNK         0.0600 
    178 H178        2.2686   -9.5048  -46.2768 H         1 UNK         0.0600 
    179 H179       -0.5636  -11.5783  -45.1161 H         1 UNK         0.3000 
    180 H180       -2.8396  -11.4221  -42.8054 H         1 UNK         0.0600 
    181 H181       -4.1234  -10.0139  -45.1998 H         1 UNK         0.0600 
    182 H182       -4.2690   -9.5670  -43.5091 H         1 UNK         0.0600 
    183 H183       -4.9754  -11.0710  -44.0738 H         1 UNK         0.0600 
    184 H184       -2.5849  -13.2280  -43.9984 H         1 UNK         0.3000 
    185 H185       -2.2110  -14.6762  -45.5340 H         1 UNK         0.0600 
    186 H186       -4.0313  -14.0763  -47.9248 H         1 UNK         0.0600 
    187 H187       -3.5996  -15.6707  -47.3139 H         1 UNK         0.0600 
    188 H188       -4.5830  -14.5944  -46.3351 H         1 UNK         0.0600 
    189 H189       -1.6107  -14.4854  -48.2691 H         1 UNK         0.3000 
    190 H190       -0.8761  -22.1006  -47.4463 H         1 UNK         0.3000 
    191 H191       -1.2365  -23.5551  -49.9421 H         1 UNK         0.0600 
    192 H192       -3.1478  -21.6011  -48.5885 H         1 UNK         0.0600 
    193 H193       -3.1359  -22.0965  -50.2676 H         1 UNK         0.0600 
    194 H194       -1.8179  -21.1135  -49.6501 H         1 UNK         0.0600 
    195 H195       -2.5224  -23.7119  -46.6352 H         1 UNK         0.3000 
    196 H196       -4.7491  -25.4208  -47.1513 H         1 UNK         0.0600 
    197 H197       -4.6456  -25.8619  -44.6927 H         1 UNK         0.0600 
    198 H198       -4.5415  -24.1460  -45.0500 H         1 UNK         0.0600 
    199 H199       -3.0921  -25.0432  -44.6004 H         1 UNK         0.0600 
    200 H200       -1.3245  -26.1114  -46.3383 H         1 UNK         0.3000 
    201 H201       -1.5072  -28.9539  -46.3586 H         1 UNK         0.0600 
    202 H202        0.3894  -27.7128  -45.3515 H         1 UNK         0.0600 
    203 H203        0.8655  -27.0984  -46.9328 H         1 UNK         0.0600 
    204 H204        0.9803  -28.8196  -46.5823 H         1 UNK         0.0600 
    205 H205       -1.1211  -26.5938  -48.9747 H         1 UNK         0.3000 
    206 H206       -0.5952  -28.5845  -51.0491 H         1 UNK         0.0600 
    207 H207        0.3819  -26.2680  -51.1007 H         1 UNK         0.0600 
    208 H208       -0.5830  -26.6125  -52.5282 H         1 UNK         0.0600 
    209 H209       -1.2405  -25.5959  -51.2561 H         1 UNK         0.0600 
    210 H210       -3.3876  -27.5183  -49.4536 H         1 UNK         0.3000 
    211 H211       -5.5681  -27.6405  -49.6873 H         1 UNK         0.0600 
    212 H212       -5.1459  -29.5776  -52.0238 H         1 UNK         0.0600 
    213 H213       -6.6234  -29.3569  -51.0987 H         1 UNK         0.0600 
    214 H214       -5.2016  -30.0328  -50.3211 H         1 UNK         0.0600 
    215 H215       -4.3715  -25.4251  -50.6635 H         1 UNK         0.3000 
    216 H216       -6.0320  -24.5648  -52.9979 H         1 UNK         0.0600 
    217 H217       -4.0877  -23.0880  -53.5709 H         1 UNK         0.0600 
    218 H218       -3.6068  -24.7758  -53.6037 H         1 UNK         0.0600 
    219 H219       -3.1628  -23.7688  -52.2305 H         1 UNK         0.0600 
    220 H220       -6.2090  -22.0991  -52.9734 H         1 UNK         0.3000 
    221 H221       -7.1949  -21.1914  -50.3683 H         1 UNK         0.0600 
    222 H222       -7.1351  -19.8476  -53.1242 H         1 UNK         0.0600 
    223 H223       -8.4991  -20.7092  -52.4172 H         1 UNK         0.0600 
    224 H224       -7.9379  -19.2094  -51.6959 H         1 UNK         0.0600 
    225 H225       -6.1294  -19.8477  -49.0082 H         1 UNK         0.3000 
    226 H226       -3.3676  -19.3209  -49.2387 H         1 UNK         0.0600 
    227 H227       -4.5531  -19.5839  -47.0773 H         1 UNK         0.0600 
    228 H228       -3.7154  -18.0453  -47.1217 H         1 UNK         0.0600 
    229 H229       -5.4571  -18.0947  -47.3612 H         1 UNK         0.0600 
    230 H230       -6.1120  -17.3472  -50.1897 H         1 UNK         0.3000 
    231 H231       -4.6275  -14.8849  -50.5672 H         1 UNK         0.0600 
    232 H232       -6.7554  -14.1405  -51.6317 H         1 UNK         0.0600 
    233 H233       -7.0698  -14.9149  -50.0882 H         1 UNK         0.0600 
    234 H234       -7.3743  -15.7870  -51.5916 H         1 UNK         0.0600 
    235 H235       -4.6631  -17.8119  -52.3455 H         1 UNK         0.3000 
    236 H236       -3.8979  -16.4663  -54.9071 H         1 UNK         0.0600 
    237 H237       -6.1584  -17.6143  -54.9438 H         1 UNK         0.0600 
    238 H238       -5.0003  -18.3333  -56.0496 H         1 UNK         0.0600 
    239 H239       -5.3578  -19.1295  -54.5230 H         1 UNK         0.0600 
    240 H240       -2.3319  -17.6304  -52.4306 H         1 UNK         0.3000 
    241 H241       -0.4309  -18.6822  -52.0176 H         1 UNK         0.0600 
    242 H242       -2.2686  -21.9775  -52.7032 H         1 UNK         0.3800 
    243 H243       -2.9710  -20.3870  -52.5207 H         1 UNK         0.3800 
    244 H244        1.1946  -19.2424  -54.0264 H         1 UNK         0.0800 
    245 H245        0.0365  -18.4718  -55.0329 H         1 UNK         0.0800 
    246 H246        3.2287  -18.0786  -53.6248 H         1 UNK         0.0800 
    247 H247        3.4078  -16.4566  -53.0221 H         1 UNK         0.0800 
@<TRIPOS>BOND
     1    1    2 1    
     2    1  127 1    
     3    1  128 1    
     4    1  129 1    
     5    2    3 2    
     6    2    4 am   BACKBONE|DICT|INTERRES
     7    4    5 1    
     8    4  130 1    
     9    5    6 1    
    10    5   65 1    
    11    5  131 1    
    12    6    7 1    
    13    6  132 1    
    14    6  133 1    
    15    7    8 1    
    16    8    9 1    
    17    8  134 1    
    18    8  135 1    
    19    9   10 ar   
    20    9   14 ar   
    21   10   11 ar   
    22   10  136 1    
    23   11   12 ar   
    24   11  126 1    
    25   12   13 ar   
    26   12  137 1    
    27   13   14 ar   
    28   13   15 1    
    29   14  138 1    
    30   15   16 1    
    31   15  139 1    
    32   15  140 1    
    33   16   17 1    
    34   17   18 1    
    35   17  141 1    
    36   17  142 1    
    37   18   19 1    
    38   18   67 1    
    39   18  143 1    
    40   19   20 am   BACKBONE|DICT|INTERRES
    41   19  144 1    
    42   20   21 2    
    43   20   22 1    
    44   22   23 1    
    45   22   24 1    
    46   22  145 1    
    47   23  146 1    
    48   23  147 1    
    49   23  148 1    
    50   24   25 am   BACKBONE|DICT|INTERRES
    51   24  149 1    
    52   25   26 2    
    53   25   27 1    
    54   27   28 1    
    55   27   29 1    
    56   27  150 1    
    57   28  151 1    
    58   28  152 1    
    59   28  153 1    
    60   29   30 am   BACKBONE|DICT|INTERRES
    61   29  154 1    
    62   30   31 2    
    63   30   32 1    
    64   32   33 1    
    65   32   34 1    
    66   32  155 1    
    67   33  156 1    
    68   33  157 1    
    69   33  158 1    
    70   34   35 am   BACKBONE|DICT|INTERRES
    71   34  159 1    
    72   35   36 2    
    73   35   37 1    
    74   37   38 1    
    75   37   39 1    
    76   37  160 1    
    77   38  161 1    
    78   38  162 1    
    79   38  163 1    
    80   39   40 am   BACKBONE|DICT|INTERRES
    81   39  164 1    
    82   40   41 2    
    83   40   42 1    
    84   42   43 1    
    85   42   44 1    
    86   42  165 1    
    87   43  166 1    
    88   43  167 1    
    89   43  168 1    
    90   44   45 am   BACKBONE|DICT|INTERRES
    91   44  169 1    
    92   45   46 2    
    93   45   47 1    
    94   47   48 1    
    95   47   49 1    
    96   47  170 1    
    97   48  171 1    
    98   48  172 1    
    99   48  173 1    
   100   49   50 am   BACKBONE|DICT|INTERRES
   101   49  174 1    
   102   50   51 2    
   103   50   52 1    
   104   52   53 1    
   105   52   54 1    
   106   52  175 1    
   107   53  176 1    
   108   53  177 1    
   109   53  178 1    
   110   54   55 am   BACKBONE|DICT|INTERRES
   111   54  179 1    
   112   55   56 2    
   113   55   57 1    
   114   57   58 1    
   115   57   59 1    
   116   57  180 1    
   117   58  181 1    
   118   58  182 1    
   119   58  183 1    
   120   59   60 am   BACKBONE|DICT|INTERRES
   121   59  184 1    
   122   60   61 2    
   123   60   62 1    
   124   62   63 1    
   125   62   64 1    
   126   62  185 1    
   127   63  186 1    
   128   63  187 1    
   129   63  188 1    
   130   64   65 am   BACKBONE|DICT|INTERRES
   131   64  189 1    
   132   65   66 2    
   133   67   68 2    
   134   67   69 am   BACKBONE|DICT|INTERRES
   135   69   70 1    
   136   69  190 1    
   137   70   71 1    
   138   70   72 1    
   139   70  191 1    
   140   71  192 1    
   141   71  193 1    
   142   71  194 1    
   143   72   73 2    
   144   72   74 am   BACKBONE|DICT|INTERRES
   145   74   75 1    
   146   74  195 1    
   147   75   76 1    
   148   75   77 1    
   149   75  196 1    
   150   76  197 1    
   151   76  198 1    
   152   76  199 1    
   153   77   78 2    
   154   77   79 am   BACKBONE|DICT|INTERRES
   155   79   80 1    
   156   79  200 1    
   157   80   81 1    
   158   80   82 1    
   159   80  201 1    
   160   81  202 1    
   161   81  203 1    
   162   81  204 1    
   163   82   83 2    
   164   82   84 am   BACKBONE|DICT|INTERRES
   165   84   85 1    
   166   84  205 1    
   167   85   86 1    
   168   85   87 1    
   169   85  206 1    
   170   86  207 1    
   171   86  208 1    
   172   86  209 1    
   173   87   88 2    
   174   87   89 am   BACKBONE|DICT|INTERRES
   175   89   90 1    
   176   89  210 1    
   177   90   91 1    
   178   90   92 1    
   179   90  211 1    
   180   91  212 1    
   181   91  213 1    
   182   91  214 1    
   183   92   93 2    
   184   92   94 am   BACKBONE|DICT|INTERRES
   185   94   95 1    
   186   94  215 1    
   187   95   96 1    
   188   95   97 1    
   189   95  216 1    
   190   96  217 1    
   191   96  218 1    
   192   96  219 1    
   193   97   98 2    
   194   97   99 am   BACKBONE|DICT|INTERRES
   195   99  100 1    
   196   99  220 1    
   197  100  101 1    
   198  100  102 1    
   199  100  221 1    
   200  101  222 1    
   201  101  223 1    
   202  101  224 1    
   203  102  103 2    
   204  102  104 am   BACKBONE|DICT|INTERRES
   205  104  105 1    
   206  104  225 1    
   207  105  106 1    
   208  105  107 1    
   209  105  226 1    
   210  106  227 1    
   211  106  228 1    
   212  106  229 1    
   213  107  108 2    
   214  107  109 am   BACKBONE|DICT|INTERRES
   215  109  110 1    
   216  109  230 1    
   217  110  111 1    
   218  110  112 1    
   219  110  231 1    
   220  111  232 1    
   221  111  233 1    
   222  111  234 1    
   223  112  113 2    
   224  112  114 am   BACKBONE|DICT|INTERRES
   225  114  115 1    
   226  114  235 1    
   227  115  116 1    
   228  115  117 1    
   229  115  236 1    
   230  116  237 1    
   231  116  238 1    
   232  116  239 1    
   233  117  118 2    
   234  117  119 am   BACKBONE|DICT|INTERRES
   235  119  120 1    
   236  119  240 1    
   237  120  121 1    
   238  120  124 1    
   239  120  241 1    
   240  121  122 am   BACKBONE|DICT|INTERRES
   241  121  123 2    
   242  122  242 1    
   243  122  243 1    
   244  124  125 1    
   245  124  244 1    
   246  124  245 1    
   247  125  126 1    
   248  126  246 1    
   249  126  247 1    
@<TRIPOS>SUBSTRUCTURE
     1 UNK         1 GROUP             0       ****    0 ROOT    
