@<TRIPOS>MOLECULE
3R540
247   249    1
SMALL
USER_CHARGES


@<TRIPOS>ATOM
      1 CA          3.4989  -13.7775  -51.2955 C.3       0 UNK        -0.1800 
      2 C           2.6377  -12.5227  -51.1610 C.2       0 UNK         0.5000 
      3 O           2.6632  -11.6755  -52.0519 O.2       0 UNK        -0.5000 
      4 N           1.8563  -12.3595  -50.0857 N.am      1 UNK        -0.5000 
      5 CA          1.7679  -13.2474  -48.9207 C.3       1 UNK         0.1400 
      6 C6          0.4193  -13.0927  -48.1696 C.3       23 UNK        -0.0398 
      7 S7         -1.0464  -13.3729  -49.2192 S.3       23 UNK        -0.2404 
      8 C8         -1.2843  -15.1741  -49.0724 C.3       23 UNK        -0.0205 
      9 C9         -0.2439  -15.9515  -49.8641 C.ar      23 UNK        -0.0193 
     10 C10        -0.2296  -15.8685  -51.2577 C.ar      23 UNK        -0.1150 
     11 C11         0.7089  -16.5839  -52.0040 C.ar      23 UNK        -0.0193 
     12 C12         1.6449  -17.3835  -51.3424 C.ar      23 UNK        -0.1150 
     13 C13         1.6528  -17.4725  -49.9464 C.ar      23 UNK        -0.0193 
     14 C14         0.7017  -16.7502  -49.2136 C.ar      23 UNK        -0.1150 
     15 C15         2.7204  -18.3304  -49.2652 C.3       23 UNK        -0.0205 
     16 S16         2.1752  -19.1817  -47.7451 S.3       23 UNK        -0.2404 
     17 C17         0.7186  -20.0953  -48.3459 C.3       23 UNK        -0.0398 
     18 CA          0.4841  -21.4524  -47.6358 C.3       11 UNK         0.1400 
     19 N           0.3856  -21.3438  -46.1732 N.am      11 UNK        -0.5000 
     20 C           0.2169  -22.3825  -45.3378 C.2       10 UNK         0.5000 
     21 O           0.2080  -23.5577  -45.7019 O.2       10 UNK        -0.5000 
     22 CA         -0.0495  -22.0730  -43.8532 C.3       10 UNK         0.1400 
     23 CB          1.2562  -22.0887  -43.0452 C.3       10 UNK        -0.1800 
     24 N          -0.7738  -20.8192  -43.6377 N.am      10 UNK        -0.5000 
     25 C          -2.0149  -20.5734  -44.0850 C.2       9 UNK         0.5000 
     26 O          -2.6840  -21.3901  -44.7196 O.2       9 UNK        -0.5000 
     27 CA         -2.5951  -19.1740  -43.8104 C.3       9 UNK         0.1400 
     28 CB         -3.2571  -19.1250  -42.4257 C.3       9 UNK        -0.1800 
     29 N          -1.5905  -18.1149  -43.9105 N.am      9 UNK        -0.5000 
     30 C          -0.9730  -17.7578  -45.0457 C.2       8 UNK         0.5000 
     31 O          -1.2383  -18.2381  -46.1479 O.2       8 UNK        -0.5000 
     32 CA          0.1656  -16.7273  -44.9181 C.3       8 UNK         0.1400 
     33 CB         -0.3840  -15.2952  -44.8499 C.3       8 UNK        -0.1800 
     34 N           1.0213  -16.9753  -43.7578 N.am      8 UNK        -0.5000 
     35 C           1.7711  -18.0742  -43.5915 C.2       7 UNK         0.5000 
     36 O           1.8529  -18.9774  -44.4208 O.2       7 UNK        -0.5000 
     37 CA          2.5130  -18.2120  -42.2522 C.3       7 UNK         0.1400 
     38 CB          3.8393  -17.4385  -42.2720 C.3       7 UNK        -0.1800 
     39 N           1.6916  -17.7657  -41.1272 N.am      7 UNK        -0.5000 
     40 C           0.6145  -18.4249  -40.6765 C.2       6 UNK         0.5000 
     41 O           0.2256  -19.4960  -41.1397 O.2       6 UNK        -0.5000 
     42 CA         -0.1871  -17.7520  -39.5480 C.3       6 UNK         0.1400 
     43 CB          0.4506  -18.0423  -38.1813 C.3       6 UNK        -0.1800 
     44 N          -0.3051  -16.3054  -39.7322 N.am      6 UNK        -0.5000 
     45 C          -0.9766  -15.7215  -40.7348 C.2       5 UNK         0.5000 
     46 O          -1.6051  -16.3435  -41.5903 O.2       5 UNK        -0.5000 
     47 CA         -0.8872  -14.1869  -40.8229 C.3       5 UNK         0.1400 
     48 CB         -1.9836  -13.5323  -39.9698 C.3       5 UNK        -0.1800 
     49 N           0.4215  -13.6615  -40.4222 N.am      5 UNK        -0.5000 
     50 C           1.5712  -13.9271  -41.0553 C.2       4 UNK         0.5000 
     51 O           1.6599  -14.6744  -42.0328 O.2       4 UNK        -0.5000 
     52 CA          2.8411  -13.2983  -40.4660 C.3       4 UNK         0.1400 
     53 CB          3.6578  -14.3500  -39.6988 C.3       4 UNK        -0.1800 
     54 N           3.6565  -12.7459  -41.5431 N.am      4 UNK        -0.5000 
     55 C           3.5760  -11.4824  -41.9784 C.2       3 UNK         0.5000 
     56 O           2.8685  -10.6207  -41.4543 O.2       3 UNK        -0.5000 
     57 CA          4.4266  -11.1144  -43.2094 C.3       3 UNK         0.1400 
     58 CB          5.8055  -10.5947  -42.7738 C.3       3 UNK        -0.1800 
     59 N           4.6075  -12.2188  -44.1562 N.am      3 UNK        -0.5000 
     60 C           3.6276  -12.7434  -44.9035 C.2       2 UNK         0.5000 
     61 O           2.4477  -12.3895  -44.8346 O.2       2 UNK        -0.5000 
     62 CA          4.0444  -13.8589  -45.8849 C.3       2 UNK         0.1400 
     63 CB          4.0903  -15.2139  -45.1639 C.3       2 UNK        -0.1800 
     64 N           3.1243  -13.9656  -47.0180 N.am      2 UNK        -0.5000 
     65 C           2.9417  -13.0172  -47.9463 C.2       1 UNK         0.5000 
     66 O           3.6341  -11.9989  -48.0298 O.2       1 UNK        -0.5000 
     67 C          -0.7766  -22.1165  -48.2216 C.2       11 UNK         0.5000 
     68 O          -0.6751  -23.1322  -48.9097 O.2       11 UNK        -0.5000 
     69 N          -1.9446  -21.5494  -47.8851 N.am      12 UNK        -0.5000 
     70 CA         -3.2540  -22.0343  -48.3126 C.3       12 UNK         0.1400 
     71 CB         -4.3346  -21.0134  -47.9302 C.3       12 UNK        -0.1800 
     72 C          -3.5839  -23.4274  -47.7550 C.2       12 UNK         0.5000 
     73 O          -4.1450  -24.2438  -48.4842 O.2       12 UNK        -0.5000 
     74 N          -3.2044  -23.6896  -46.4971 N.am      13 UNK        -0.5000 
     75 CA         -3.3668  -24.9891  -45.8455 C.3       13 UNK         0.1400 
     76 CB         -3.0139  -24.8712  -44.3557 C.3       13 UNK        -0.1800 
     77 C          -2.5391  -26.0993  -46.5200 C.2       13 UNK         0.5000 
     78 O          -3.0755  -27.1760  -46.7833 O.2       13 UNK        -0.5000 
     79 N          -1.2618  -25.8128  -46.8106 N.am      14 UNK        -0.5000 
     80 CA         -0.3354  -26.7375  -47.4665 C.3       14 UNK         0.1400 
     81 CB          1.0976  -26.1958  -47.3535 C.3       14 UNK        -0.1800 
     82 C          -0.6956  -27.0045  -48.9383 C.2       14 UNK         0.5000 
     83 O          -0.6096  -28.1482  -49.3871 O.2       14 UNK        -0.5000 
     84 N          -1.0999  -25.9506  -49.6588 N.am      15 UNK        -0.5000 
     85 CA         -1.4766  -26.0098  -51.0723 C.3       15 UNK         0.1400 
     86 CB         -1.3451  -24.6024  -51.6682 C.3       15 UNK        -0.1800 
     87 C          -2.8972  -26.5571  -51.3169 C.2       15 UNK         0.5000 
     88 O          -3.2377  -26.8280  -52.4691 O.2       15 UNK        -0.5000 
     89 N          -3.7020  -26.6802  -50.2497 N.am      16 UNK        -0.5000 
     90 CA         -5.1244  -27.0397  -50.2435 C.3       16 UNK         0.1400 
     91 CB         -5.3335  -28.4961  -50.7076 C.3       16 UNK        -0.1800 
     92 C          -5.9641  -26.0150  -51.0340 C.2       16 UNK         0.5000 
     93 O          -6.6959  -26.3759  -51.9570 O.2       16 UNK        -0.5000 
     94 N          -5.7793  -24.7360  -50.6797 N.am      17 UNK        -0.5000 
     95 CA         -6.3581  -23.5075  -51.2394 C.3       17 UNK         0.1400 
     96 CB         -7.8952  -23.5195  -51.1515 C.3       17 UNK        -0.1800 
     97 C          -5.8889  -23.1449  -52.6628 C.2       17 UNK         0.5000 
     98 O          -5.8722  -21.9578  -52.9905 O.2       17 UNK        -0.5000 
     99 N          -5.5072  -24.1426  -53.4715 N.am      18 UNK        -0.5000 
    100 CA        -5.0642  -24.0466  -54.8645 C.3       18 UNK         0.1400 
    101 CB        -3.6785  -23.3705  -54.9537 C.3       18 UNK        -0.1800 
    102 C         -6.1434  -23.3953  -55.7537 C.2       18 UNK         0.5000 
    103 O         -7.2049  -23.9906  -55.9425 O.2       18 UNK        -0.5000 
    104 N         -5.8786  -22.1829  -56.2549 N.am      19 UNK        -0.5000 
    105 CA        -6.7813  -21.3876  -57.0918 C.3       19 UNK         0.1400 
    106 CB        -5.9257  -20.5782  -58.0832 C.3       19 UNK        -0.1800 
    107 C         -7.7108  -20.4770  -56.2575 C.2       19 UNK         0.5000 
    108 O         -8.1318  -19.4279  -56.7472 O.2       19 UNK        -0.5000 
    109 N         -7.9789  -20.8709  -55.0026 N.am      20 UNK        -0.5000 
    110 CA        -8.6269  -20.0940  -53.9368 C.3       20 UNK         0.1400 
    111 CB       -10.0790  -19.7201  -54.3006 C.3       20 UNK        -0.1800 
    112 C         -7.7714  -18.8846  -53.4990 C.2       20 UNK         0.5000 
    113 O         -8.3043  -17.8682  -53.0505 O.2       20 UNK        -0.5000 
    114 N         -6.4513  -19.0364  -53.6366 N.am      21 UNK        -0.5000 
    115 CA        -5.3972  -18.0811  -53.3383 C.3       21 UNK         0.1400 
    116 CB        -5.4383  -16.8898  -54.3135 C.3       21 UNK        -0.1800 
    117 C         -4.0698  -18.8370  -53.4686 C.2       21 UNK         0.5000 
    118 O         -3.9400  -19.6860  -54.3546 O.2       21 UNK        -0.5000 
    119 N         -3.1210  -18.5210  -52.5822 N.am      22 UNK        -0.5000 
    120 CA        -1.7553  -19.0773  -52.5050 C.3       22 UNK         0.1400 
    121 C         -1.6505  -20.5737  -52.0849 C.2       22 UNK         0.5000 
    122 N         -2.7363  -21.3295  -51.9919 N.am      22 UNK        -0.7600 
    123 O         -0.5557  -21.0519  -51.8060 O.2       22 UNK        -0.5000 
    124 C124       -0.8950  -18.8003  -53.7722 C.3       23 UNK        -0.0398 
    125 S125       -0.8562  -17.0403  -54.2612 S.3       23 UNK        -0.2404 
    126 C126        0.7144  -16.4838  -53.5230 C.3       23 UNK        -0.0205 
    127 H127        4.0767  -13.7475  -52.2194 H         1 UNK         0.0600 
    128 H128        2.8775  -14.6717  -51.3242 H         1 UNK         0.0600 
    129 H129        4.2024  -13.8627  -50.4678 H         1 UNK         0.0600 
    130 H130        1.3042  -11.5174  -50.0183 H         1 UNK         0.3000 
    131 H131        1.8438  -14.2761  -49.2676 H         1 UNK         0.0600 
    132 H132        0.3652  -13.7740  -47.3200 H         1 UNK         0.0800 
    133 H133        0.3353  -12.0888  -47.7493 H         1 UNK         0.0800 
    134 H134       -2.2742  -15.4269  -49.4545 H         1 UNK         0.0800 
    135 H135       -1.2819  -15.4692  -48.0230 H         1 UNK         0.0800 
    136 H136       -0.9545  -15.2466  -51.7642 H         1 UNK         0.1150 
    137 H137        2.3774  -17.9330  -51.9170 H         1 UNK         0.1150 
    138 H138        0.6952  -16.8082  -48.1358 H         1 UNK         0.1150 
    139 H139        3.0943  -19.0857  -49.9583 H         1 UNK         0.0800 
    140 H140        3.5696  -17.6921  -49.0189 H         1 UNK         0.0800 
    141 H141        0.8334  -20.2601  -49.4193 H         1 UNK         0.0800 
    142 H142       -0.1463  -19.4398  -48.2352 H         1 UNK         0.0800 
    143 H143        1.3335  -22.1022  -47.8558 H         1 UNK         0.0600 
    144 H144        0.4272  -20.4097  -45.7852 H         1 UNK         0.3000 
    145 H145       -0.6805  -22.8724  -43.4627 H         1 UNK         0.0600 
    146 H146        1.0678  -21.9317  -41.9833 H         1 UNK         0.0600 
    147 H147        1.7597  -23.0512  -43.1442 H         1 UNK         0.0600 
    148 H148        1.9539  -21.3240  -43.3820 H         1 UNK         0.0600 
    149 H149       -0.3075  -20.1166  -43.0755 H         1 UNK         0.3000 
    150 H150       -3.3636  -18.9816  -44.5619 H         1 UNK         0.0600 
    151 H151       -4.0229  -19.8958  -42.3307 H         1 UNK         0.0600 
    152 H152       -3.7403  -18.1629  -42.2543 H         1 UNK         0.0600 
    153 H153       -2.5316  -19.2811  -41.6267 H         1 UNK         0.0600 
    154 H154       -1.3621  -17.6218  -43.0522 H         1 UNK         0.3000 
    155 H155        0.7899  -16.8113  -45.8090 H         1 UNK         0.0600 
    156 H156       -0.9918  -15.1412  -43.9590 H         1 UNK         0.0600 
    157 H157       -1.0133  -15.0730  -45.7111 H         1 UNK         0.0600 
    158 H158        0.4234  -14.5624  -44.8325 H         1 UNK         0.0600 
    159 H159        1.0534  -16.2510  -43.0464 H         1 UNK         0.3000 
    160 H160        2.7443  -19.2693  -42.1065 H         1 UNK         0.0600 
    161 H161        3.6820  -16.3689  -42.4054 H         1 UNK         0.0600 
    162 H162        4.4752  -17.7791  -43.0900 H         1 UNK         0.0600 
    163 H163        4.3950  -17.5842  -41.3457 H         1 UNK         0.0600 
    164 H164        1.9115  -16.8641  -40.7320 H         1 UNK         0.3000 
    165 H165       -1.1928  -18.1780  -39.5541 H         1 UNK         0.0600 
    166 H166       -0.1528  -17.6342  -37.3702 H         1 UNK         0.0600 
    167 H167        0.5367  -19.1165  -38.0119 H         1 UNK         0.0600 
    168 H168        1.4516  -17.6161  -38.1029 H         1 UNK         0.0600 
    169 H169        0.1807  -15.7176  -39.0713 H         1 UNK         0.3000 
    170 H170       -1.0537  -13.9054  -41.8645 H         1 UNK         0.0600 
    171 H171       -2.9714  -13.8916  -40.2617 H         1 UNK         0.0600 
    172 H172       -1.8548  -13.7511  -38.9090 H         1 UNK         0.0600 
    173 H173       -1.9846  -12.4490  -40.0921 H         1 UNK         0.0600 
    174 H174        0.4318  -13.0439  -39.6232 H         1 UNK         0.3000 
    175 H175        2.5616  -12.5093  -39.7644 H         1 UNK         0.0600 
    176 H176        3.9921  -15.1594  -40.3472 H         1 UNK         0.0600 
    177 H177        4.5419  -13.9027  -39.2443 H         1 UNK         0.0600 
    178 H178        3.0694  -14.7936  -38.8946 H         1 UNK         0.0600 
    179 H179        4.2119  -13.4023  -42.0708 H         1 UNK         0.3000 
    180 H180        3.9106  -10.3063  -43.7324 H         1 UNK         0.0600 
    181 H181        6.3851  -11.3666  -42.2660 H         1 UNK         0.0600 
    182 H182        5.7064   -9.7534  -42.0865 H         1 UNK         0.0600 
    183 H183        6.3847  -10.2463  -43.6292 H         1 UNK         0.0600 
    184 H184        5.5496  -12.5655  -44.2662 H         1 UNK         0.3000 
    185 H185        5.0387  -13.6312  -46.2748 H         1 UNK         0.0600 
    186 H186        3.1246  -15.4594  -44.7229 H         1 UNK         0.0600 
    187 H187        4.3647  -16.0205  -45.8441 H         1 UNK         0.0600 
    188 H188        4.8257  -15.2047  -44.3588 H         1 UNK         0.0600 
    189 H189        2.5151  -14.7688  -47.0101 H         1 UNK         0.3000 
    190 H190       -1.9371  -20.7529  -47.2631 H         1 UNK         0.3000 
    191 H191       -3.2383  -22.1163  -49.4001 H         1 UNK         0.0600 
    192 H192       -4.3825  -20.8610  -46.8514 H         1 UNK         0.0600 
    193 H193       -5.3198  -21.3462  -48.2596 H         1 UNK         0.0600 
    194 H194       -4.1452  -20.0469  -48.3978 H         1 UNK         0.0600 
    195 H195       -2.7985  -22.9406  -45.9442 H         1 UNK         0.3000 
    196 H196       -4.4206  -25.2656  -45.9208 H         1 UNK         0.0600 
    197 H197       -3.2255  -25.8042  -43.8321 H         1 UNK         0.0600 
    198 H198       -3.5939  -24.0856  -43.8709 H         1 UNK         0.0600 
    199 H199       -1.9576  -24.6490  -44.2100 H         1 UNK         0.0600 
    200 H200       -0.8807  -24.9094  -46.5409 H         1 UNK         0.3000 
    201 H201       -0.3784  -27.6910  -46.9358 H         1 UNK         0.0600 
    202 H202        1.3957  -26.0862  -46.3107 H         1 UNK         0.0600 
    203 H203        1.1972  -25.2210  -47.8334 H         1 UNK         0.0600 
    204 H204        1.8111  -26.8713  -47.8269 H         1 UNK         0.0600 
    205 H205       -1.0921  -25.0280  -49.2314 H         1 UNK         0.3000 
    206 H206       -0.7769  -26.6658  -51.5942 H         1 UNK         0.0600 
    207 H207       -0.3463  -24.1941  -51.5114 H         1 UNK         0.0600 
    208 H208       -1.5222  -24.6135  -52.7428 H         1 UNK         0.0600 
    209 H209       -2.0618  -23.9186  -51.2150 H         1 UNK         0.0600 
    210 H210       -3.3279  -26.3898  -49.3560 H         1 UNK         0.3000 
    211 H211       -5.4531  -26.9746  -49.2051 H         1 UNK         0.0600 
    212 H212       -5.0647  -28.6357  -51.7549 H         1 UNK         0.0600 
    213 H213       -6.3774  -28.7918  -50.5978 H         1 UNK         0.0600 
    214 H214       -4.7357  -29.1871  -50.1133 H         1 UNK         0.0600 
    215 H215       -5.1310  -24.5758  -49.9083 H         1 UNK         0.3000 
    216 H216       -6.0020  -22.7045  -50.5921 H         1 UNK         0.0600 
    217 H217       -8.3079  -22.5505  -51.4330 H         1 UNK         0.0600 
    218 H218       -8.2304  -23.7312  -50.1362 H         1 UNK         0.0600 
    219 H219       -8.3361  -24.2648  -51.8141 H         1 UNK         0.0600 
    220 H220       -5.6354  -25.0845  -53.1183 H         1 UNK         0.3000 
    221 H221       -4.9519  -25.0707  -55.2232 H         1 UNK         0.0600 
    222 H222       -3.6799  -22.3589  -54.5491 H         1 UNK         0.0600 
    223 H223       -2.9366  -23.9433  -54.4009 H         1 UNK         0.0600 
    224 H224       -3.3313  -23.3161  -55.9862 H         1 UNK         0.0600 
    225 H225       -5.0095  -21.7380  -55.9910 H         1 UNK         0.3000 
    226 H226       -7.4229  -22.0549  -57.6707 H         1 UNK         0.0600 
    227 H227       -5.2770  -21.2304  -58.6683 H         1 UNK         0.0600 
    228 H228       -6.5503  -20.0300  -58.7896 H         1 UNK         0.0600 
    229 H229       -5.2952  -19.8526  -57.5673 H         1 UNK         0.0600 
    230 H230       -7.5533  -21.7364  -54.6987 H         1 UNK         0.3000 
    231 H231       -8.6701  -20.7554  -53.0711 H         1 UNK         0.0600 
    232 H232      -10.6419  -20.5946  -54.6266 H         1 UNK         0.0600 
    233 H233      -10.1227  -18.9754  -55.0955 H         1 UNK         0.0600 
    234 H234      -10.5998  -19.3027  -53.4382 H         1 UNK         0.0600 
    235 H235       -6.1026  -19.9352  -53.9545 H         1 UNK         0.3000 
    236 H236       -5.5206  -17.7282  -52.3126 H         1 UNK         0.0600 
    237 H237       -4.6062  -16.2085  -54.1313 H         1 UNK         0.0600 
    238 H238       -5.3713  -17.2207  -55.3508 H         1 UNK         0.0600 
    239 H239       -6.3568  -16.3135  -54.2049 H         1 UNK         0.0600 
    240 H240       -3.3312  -17.8214  -51.8857 H         1 UNK         0.3000 
    241 H241       -1.2921  -18.5413  -51.6770 H         1 UNK         0.0600 
    242 H242       -2.6238  -22.2932  -51.7330 H         1 UNK         0.3800 
    243 H243       -3.6304  -20.9837  -52.3073 H         1 UNK         0.3800 
    244 H244        0.1304  -19.1418  -53.6209 H         1 UNK         0.0800 
    245 H245       -1.2760  -19.3739  -54.6183 H         1 UNK         0.0800 
    246 H246        0.8880  -15.4445  -53.8054 H         1 UNK         0.0800 
    247 H247        1.5360  -17.0596  -53.9518 H         1 UNK         0.0800 
@<TRIPOS>BOND
     1    1    2 1    
     2    1  127 1    
     3    1  128 1    
     4    1  129 1    
     5    2    3 2    
     6    2    4 am   BACKBONE|DICT|INTERRES
     7    4    5 1    
     8    4  130 1    
     9    5    6 1    
    10    5   65 1    
    11    5  131 1    
    12    6    7 1    
    13    6  132 1    
    14    6  133 1    
    15    7    8 1    
    16    8    9 1    
    17    8  134 1    
    18    8  135 1    
    19    9   10 ar   
    20    9   14 ar   
    21   10   11 ar   
    22   10  136 1    
    23   11   12 ar   
    24   11  126 1    
    25   12   13 ar   
    26   12  137 1    
    27   13   14 ar   
    28   13   15 1    
    29   14  138 1    
    30   15   16 1    
    31   15  139 1    
    32   15  140 1    
    33   16   17 1    
    34   17   18 1    
    35   17  141 1    
    36   17  142 1    
    37   18   19 1    
    38   18   67 1    
    39   18  143 1    
    40   19   20 am   BACKBONE|DICT|INTERRES
    41   19  144 1    
    42   20   21 2    
    43   20   22 1    
    44   22   23 1    
    45   22   24 1    
    46   22  145 1    
    47   23  146 1    
    48   23  147 1    
    49   23  148 1    
    50   24   25 am   BACKBONE|DICT|INTERRES
    51   24  149 1    
    52   25   26 2    
    53   25   27 1    
    54   27   28 1    
    55   27   29 1    
    56   27  150 1    
    57   28  151 1    
    58   28  152 1    
    59   28  153 1    
    60   29   30 am   BACKBONE|DICT|INTERRES
    61   29  154 1    
    62   30   31 2    
    63   30   32 1    
    64   32   33 1    
    65   32   34 1    
    66   32  155 1    
    67   33  156 1    
    68   33  157 1    
    69   33  158 1    
    70   34   35 am   BACKBONE|DICT|INTERRES
    71   34  159 1    
    72   35   36 2    
    73   35   37 1    
    74   37   38 1    
    75   37   39 1    
    76   37  160 1    
    77   38  161 1    
    78   38  162 1    
    79   38  163 1    
    80   39   40 am   BACKBONE|DICT|INTERRES
    81   39  164 1    
    82   40   41 2    
    83   40   42 1    
    84   42   43 1    
    85   42   44 1    
    86   42  165 1    
    87   43  166 1    
    88   43  167 1    
    89   43  168 1    
    90   44   45 am   BACKBONE|DICT|INTERRES
    91   44  169 1    
    92   45   46 2    
    93   45   47 1    
    94   47   48 1    
    95   47   49 1    
    96   47  170 1    
    97   48  171 1    
    98   48  172 1    
    99   48  173 1    
   100   49   50 am   BACKBONE|DICT|INTERRES
   101   49  174 1    
   102   50   51 2    
   103   50   52 1    
   104   52   53 1    
   105   52   54 1    
   106   52  175 1    
   107   53  176 1    
   108   53  177 1    
   109   53  178 1    
   110   54   55 am   BACKBONE|DICT|INTERRES
   111   54  179 1    
   112   55   56 2    
   113   55   57 1    
   114   57   58 1    
   115   57   59 1    
   116   57  180 1    
   117   58  181 1    
   118   58  182 1    
   119   58  183 1    
   120   59   60 am   BACKBONE|DICT|INTERRES
   121   59  184 1    
   122   60   61 2    
   123   60   62 1    
   124   62   63 1    
   125   62   64 1    
   126   62  185 1    
   127   63  186 1    
   128   63  187 1    
   129   63  188 1    
   130   64   65 am   BACKBONE|DICT|INTERRES
   131   64  189 1    
   132   65   66 2    
   133   67   68 2    
   134   67   69 am   BACKBONE|DICT|INTERRES
   135   69   70 1    
   136   69  190 1    
   137   70   71 1    
   138   70   72 1    
   139   70  191 1    
   140   71  192 1    
   141   71  193 1    
   142   71  194 1    
   143   72   73 2    
   144   72   74 am   BACKBONE|DICT|INTERRES
   145   74   75 1    
   146   74  195 1    
   147   75   76 1    
   148   75   77 1    
   149   75  196 1    
   150   76  197 1    
   151   76  198 1    
   152   76  199 1    
   153   77   78 2    
   154   77   79 am   BACKBONE|DICT|INTERRES
   155   79   80 1    
   156   79  200 1    
   157   80   81 1    
   158   80   82 1    
   159   80  201 1    
   160   81  202 1    
   161   81  203 1    
   162   81  204 1    
   163   82   83 2    
   164   82   84 am   BACKBONE|DICT|INTERRES
   165   84   85 1    
   166   84  205 1    
   167   85   86 1    
   168   85   87 1    
   169   85  206 1    
   170   86  207 1    
   171   86  208 1    
   172   86  209 1    
   173   87   88 2    
   174   87   89 am   BACKBONE|DICT|INTERRES
   175   89   90 1    
   176   89  210 1    
   177   90   91 1    
   178   90   92 1    
   179   90  211 1    
   180   91  212 1    
   181   91  213 1    
   182   91  214 1    
   183   92   93 2    
   184   92   94 am   BACKBONE|DICT|INTERRES
   185   94   95 1    
   186   94  215 1    
   187   95   96 1    
   188   95   97 1    
   189   95  216 1    
   190   96  217 1    
   191   96  218 1    
   192   96  219 1    
   193   97   98 2    
   194   97   99 am   BACKBONE|DICT|INTERRES
   195   99  100 1    
   196   99  220 1    
   197  100  101 1    
   198  100  102 1    
   199  100  221 1    
   200  101  222 1    
   201  101  223 1    
   202  101  224 1    
   203  102  103 2    
   204  102  104 am   BACKBONE|DICT|INTERRES
   205  104  105 1    
   206  104  225 1    
   207  105  106 1    
   208  105  107 1    
   209  105  226 1    
   210  106  227 1    
   211  106  228 1    
   212  106  229 1    
   213  107  108 2    
   214  107  109 am   BACKBONE|DICT|INTERRES
   215  109  110 1    
   216  109  230 1    
   217  110  111 1    
   218  110  112 1    
   219  110  231 1    
   220  111  232 1    
   221  111  233 1    
   222  111  234 1    
   223  112  113 2    
   224  112  114 am   BACKBONE|DICT|INTERRES
   225  114  115 1    
   226  114  235 1    
   227  115  116 1    
   228  115  117 1    
   229  115  236 1    
   230  116  237 1    
   231  116  238 1    
   232  116  239 1    
   233  117  118 2    
   234  117  119 am   BACKBONE|DICT|INTERRES
   235  119  120 1    
   236  119  240 1    
   237  120  121 1    
   238  120  124 1    
   239  120  241 1    
   240  121  122 am   BACKBONE|DICT|INTERRES
   241  121  123 2    
   242  122  242 1    
   243  122  243 1    
   244  124  125 1    
   245  124  244 1    
   246  124  245 1    
   247  125  126 1    
   248  126  246 1    
   249  126  247 1    
@<TRIPOS>SUBSTRUCTURE
     1 UNK         1 GROUP             0       ****    0 ROOT    
