@<TRIPOS>MOLECULE
3R540
247   249    1
SMALL
USER_CHARGES


@<TRIPOS>ATOM
      1 CA         -7.8640  -11.3474  -51.1235 C.3       0 UNK        -0.1800 
      2 C          -6.4146  -11.7179  -50.8418 C.2       0 UNK         0.5000 
      3 O          -5.5952  -11.7279  -51.7606 O.2       0 UNK        -0.5000 
      4 N          -6.0974  -12.0284  -49.5788 N.am      1 UNK        -0.5000 
      5 CA         -4.7483  -12.3441  -49.1060 C.3       1 UNK         0.1400 
      6 C6         -4.7920  -13.0447  -47.7253 C.3       23 UNK        -0.0398 
      7 S7         -3.2067  -13.8303  -47.2827 S.3       23 UNK        -0.2404 
      8 C8         -3.5578  -15.5642  -47.6984 C.3       23 UNK        -0.0205 
      9 C9         -2.3266  -16.4283  -47.4941 C.ar      23 UNK        -0.0193 
     10 C10        -1.3970  -16.5761  -48.5280 C.ar      23 UNK        -0.1150 
     11 C11        -0.2630  -17.3708  -48.3477 C.ar      23 UNK        -0.0193 
     12 C12        -0.0631  -18.0176  -47.1285 C.ar      23 UNK        -0.1150 
     13 C13        -0.9866  -17.8852  -46.0911 C.ar      23 UNK        -0.0193 
     14 C14        -2.1168  -17.0836  -46.2760 C.ar      23 UNK        -0.1150 
     15 C15        -0.7579  -18.6158  -44.7791 C.3       23 UNK        -0.0205 
     16 S16        -1.6121  -20.2186  -44.7504 S.3       23 UNK        -0.2404 
     17 C17        -0.7957  -21.1167  -46.1271 C.3       23 UNK        -0.0398 
     18 CA         -1.0365  -22.6441  -46.1141 C.3       11 UNK         0.1400 
     19 N          -0.4680  -23.2526  -44.9107 N.am      11 UNK        -0.5000 
     20 C          -0.4866  -24.5530  -44.5894 C.2       10 UNK         0.5000 
     21 O          -0.9094  -25.4330  -45.3378 O.2       10 UNK        -0.5000 
     22 CA         -0.0101  -24.9325  -43.1720 C.3       10 UNK         0.1400 
     23 CB          1.3979  -25.5426  -43.2287 C.3       10 UNK        -0.1800 
     24 N          -0.0042  -23.8162  -42.2210 N.am      10 UNK        -0.5000 
     25 C          -1.0557  -23.0555  -41.8799 C.2       9 UNK         0.5000 
     26 O          -2.1982  -23.2523  -42.2982 O.2       9 UNK        -0.5000 
     27 CA         -0.7812  -21.8521  -40.9537 C.3       9 UNK         0.1400 
     28 CB         -1.4130  -22.0833  -39.5724 C.3       9 UNK        -0.1800 
     29 N           0.6421  -21.5339  -40.7759 N.am      9 UNK        -0.5000 
     30 C           1.4523  -21.0357  -41.7198 C.2       8 UNK         0.5000 
     31 O           1.1088  -20.8251  -42.8849 O.2       8 UNK        -0.5000 
     32 CA          2.9044  -20.7774  -41.3022 C.3       8 UNK         0.1400 
     33 CB          3.7525  -22.0505  -41.4771 C.3       8 UNK        -0.1800 
     34 N           3.4432  -19.7008  -42.1251 N.am      8 UNK        -0.5000 
     35 C           4.4894  -18.9271  -41.8131 C.2       7 UNK         0.5000 
     36 O           5.1259  -19.0463  -40.7642 O.2       7 UNK        -0.5000 
     37 CA          4.8781  -17.8248  -42.8255 C.3       7 UNK         0.1400 
     38 CB          6.3783  -17.4675  -42.7717 C.3       7 UNK        -0.1800 
     39 N           4.4627  -18.0956  -44.2072 N.am      7 UNK        -0.5000 
     40 C           4.8455  -19.1165  -44.9928 C.2       6 UNK         0.5000 
     41 O           5.6167  -20.0079  -44.6372 O.2       6 UNK        -0.5000 
     42 CA          4.2555  -19.1631  -46.4177 C.3       6 UNK         0.1400 
     43 CB          3.0815  -20.1519  -46.4629 C.3       6 UNK        -0.1800 
     44 N           3.8047  -17.8527  -46.8965 N.am      6 UNK        -0.5000 
     45 C           4.6285  -16.8591  -47.2587 C.2       5 UNK         0.5000 
     46 O           5.8521  -16.9834  -47.3214 O.2       5 UNK        -0.5000 
     47 CA          3.9982  -15.4896  -47.5890 C.3       5 UNK         0.1400 
     48 CB          4.0112  -15.2354  -49.1045 C.3       5 UNK        -0.1800 
     49 N           2.6377  -15.2684  -47.0854 N.am      5 UNK        -0.5000 
     50 C           2.2534  -15.2773  -45.8024 C.2       4 UNK         0.5000 
     51 O           2.9805  -15.6375  -44.8751 O.2       4 UNK        -0.5000 
     52 CA          0.8270  -14.7630  -45.5215 C.3       4 UNK         0.1400 
     53 CB          0.4035  -14.9523  -44.0543 C.3       4 UNK        -0.1800 
     54 N           0.6929  -13.3506  -45.8796 N.am      4 UNK        -0.5000 
     55 C           0.5068  -12.8931  -47.1229 C.2       3 UNK         0.5000 
     56 O           0.4294  -13.6205  -48.1175 O.2       3 UNK        -0.5000 
     57 CA          0.4392  -11.3716  -47.2936 C.3       3 UNK         0.1400 
     58 CB          1.8485  -10.7996  -47.5419 C.3       3 UNK        -0.1800 
     59 N          -0.4416  -11.0923  -48.4205 N.am      3 UNK        -0.5000 
     60 C          -0.9347   -9.9009  -48.7749 C.2       2 UNK         0.5000 
     61 O          -0.6808   -8.8466  -48.1912 O.2       2 UNK        -0.5000 
     62 CA         -1.8982   -9.8972  -49.9755 C.3       2 UNK         0.1400 
     63 CB         -1.1209   -9.9577  -51.2998 C.3       2 UNK        -0.1800 
     64 N          -2.8489  -11.0095  -49.9172 N.am      2 UNK        -0.5000 
     65 C          -3.8914  -11.0607  -49.0775 C.2       1 UNK         0.5000 
     66 O          -4.1994  -10.1452  -48.3103 O.2       1 UNK        -0.5000 
     67 C          -2.5328  -22.9705  -46.3271 C.2       11 UNK         0.5000 
     68 O          -2.9632  -23.1049  -47.4734 O.2       11 UNK        -0.5000 
     69 N          -3.2911  -23.0967  -45.2284 N.am      12 UNK        -0.5000 
     70 CA         -4.7101  -23.4406  -45.2417 C.3       12 UNK         0.1400 
     71 CB         -5.3629  -22.9464  -43.9428 C.3       12 UNK        -0.1800 
     72 C          -4.9257  -24.9519  -45.4209 C.2       12 UNK         0.5000 
     73 O          -5.8537  -25.3505  -46.1237 O.2       12 UNK        -0.5000 
     74 N          -4.0496  -25.7632  -44.8107 N.am      13 UNK        -0.5000 
     75 CA         -4.0601  -27.2252  -44.9029 C.3       13 UNK         0.1400 
     76 CB         -3.1341  -27.8130  -43.8267 C.3       13 UNK        -0.1800 
     77 C          -3.6594  -27.7222  -46.3035 C.2       13 UNK         0.5000 
     78 O          -4.2796  -28.6490  -46.8254 O.2       13 UNK        -0.5000 
     79 N          -2.6543  -27.0668  -46.8991 N.am      14 UNK        -0.5000 
     80 CA         -2.2003  -27.2903  -48.2727 C.3       14 UNK         0.1400 
     81 CB         -0.7992  -26.6764  -48.4268 C.3       14 UNK        -0.1800 
     82 C          -3.1537  -26.7003  -49.3319 C.2       14 UNK         0.5000 
     83 O          -3.0293  -27.0429  -50.5077 O.2       14 UNK        -0.5000 
     84 N          -4.0522  -25.8004  -48.9020 N.am      15 UNK        -0.5000 
     85 CA         -4.9910  -24.9996  -49.6980 C.3       15 UNK         0.1400 
     86 CB         -5.9870  -25.8919  -50.4653 C.3       15 UNK        -0.1800 
     87 C          -4.3022  -23.9620  -50.6101 C.2       15 UNK         0.5000 
     88 O          -4.9496  -23.3958  -51.4919 O.2       15 UNK        -0.5000 
     89 N          -3.0170  -23.6849  -50.3525 N.am      16 UNK        -0.5000 
     90 CA         -2.2068  -22.6864  -51.0449 C.3       16 UNK         0.1400 
     91 CB         -0.7428  -22.8204  -50.6015 C.3       16 UNK        -0.1800 
     92 C          -2.7163  -21.2564  -50.8091 C.2       16 UNK         0.5000 
     93 O          -2.6739  -20.4483  -51.7350 O.2       16 UNK        -0.5000 
     94 N          -3.2321  -20.9894  -49.5999 N.am      17 UNK        -0.5000 
     95 CA         -3.8724  -19.7236  -49.2381 C.3       17 UNK         0.1400 
     96 CB         -4.1016  -19.6801  -47.7208 C.3       17 UNK        -0.1800 
     97 C          -5.2070  -19.5062  -49.9721 C.2       17 UNK         0.5000 
     98 O          -5.5039  -18.3820  -50.3750 O.2       17 UNK        -0.5000 
     99 N          -5.9806  -20.5893  -50.1340 N.am      18 UNK        -0.5000 
    100 CA        -7.2793  -20.5922  -50.8077 C.3       18 UNK         0.1400 
    101 CB        -8.0424  -21.8751  -50.4419 C.3       18 UNK        -0.1800 
    102 C         -7.1376  -20.4501  -52.3322 C.2       18 UNK         0.5000 
    103 O         -7.8844  -19.6878  -52.9467 O.2       18 UNK        -0.5000 
    104 N         -6.1634  -21.1671  -52.9080 N.am      19 UNK        -0.5000 
    105 CA        -5.8080  -21.0985  -54.3259 C.3       19 UNK         0.1400 
    106 CB        -4.9544  -22.3283  -54.6750 C.3       19 UNK        -0.1800 
    107 C         -5.0526  -19.8084  -54.7025 C.2       19 UNK         0.5000 
    108 O         -5.0216  -19.4533  -55.8811 O.2       19 UNK        -0.5000 
    109 N         -4.4281  -19.1644  -53.7041 N.am      20 UNK        -0.5000 
    110 CA        -3.4839  -18.0447  -53.8028 C.3       20 UNK         0.1400 
    111 CB        -4.1664  -16.7819  -54.3666 C.3       20 UNK        -0.1800 
    112 C         -2.1920  -18.4273  -54.5593 C.2       20 UNK         0.5000 
    113 O         -1.5420  -17.5676  -55.1566 O.2       20 UNK        -0.5000 
    114 N         -1.8344  -19.7186  -54.5068 N.am      21 UNK        -0.5000 
    115 CA        -0.7043  -20.3283  -55.2102 C.3       21 UNK         0.1400 
    116 CB        -0.7954  -21.8550  -55.0642 C.3       21 UNK        -0.1800 
    117 C          0.6608  -19.8175  -54.7180 C.2       21 UNK         0.5000 
    118 O          1.6038  -19.7343  -55.5055 O.2       21 UNK        -0.5000 
    119 N          0.7244  -19.4654  -53.4305 N.am      22 UNK        -0.5000 
    120 CA         1.8666  -18.8136  -52.7777 C.3       22 UNK         0.1400 
    121 C          1.8976  -17.2632  -52.9366 C.2       22 UNK         0.5000 
    122 N          0.9577  -16.6348  -53.6347 N.am      22 UNK        -0.7600 
    123 O          2.8069  -16.6138  -52.4286 O.2       22 UNK        -0.5000 
    124 C124        2.0043  -19.2674  -51.3008 C.3       23 UNK        -0.0398 
    125 S125        0.4675  -19.1230  -50.3235 S.3       23 UNK        -0.2404 
    126 C126        0.7485  -17.5507  -49.4622 C.3       23 UNK        -0.0205 
    127 H127       -8.4751  -11.3836  -50.2212 H         1 UNK         0.0600 
    128 H128       -8.2924  -12.0358  -51.8521 H         1 UNK         0.0600 
    129 H129       -7.9204  -10.3384  -51.5320 H         1 UNK         0.0600 
    130 H130       -6.8096  -11.9699  -48.8649 H         1 UNK         0.3000 
    131 H131       -4.3095  -13.0457  -49.8195 H         1 UNK         0.0600 
    132 H132       -5.0678  -12.3430  -46.9359 H         1 UNK         0.0800 
    133 H133       -5.5696  -13.8099  -47.7209 H         1 UNK         0.0800 
    134 H134       -3.8925  -15.6340  -48.7348 H         1 UNK         0.0800 
    135 H135       -4.3798  -15.9300  -47.0811 H         1 UNK         0.0800 
    136 H136       -1.5551  -16.0706  -49.4701 H         1 UNK         0.1150 
    137 H137        0.8036  -18.6444  -46.9980 H         1 UNK         0.1150 
    138 H138       -2.8351  -16.9765  -45.4755 H         1 UNK         0.1150 
    139 H139       -1.1222  -18.0087  -43.9494 H         1 UNK         0.0800 
    140 H140        0.3077  -18.7668  -44.6009 H         1 UNK         0.0800 
    141 H141        0.2753  -20.9293  -46.0694 H         1 UNK         0.0800 
    142 H142       -1.1162  -20.6933  -47.0800 H         1 UNK         0.0800 
    143 H143       -0.4998  -23.0738  -46.9622 H         1 UNK         0.0600 
    144 H144       -0.1109  -22.6012  -44.2238 H         1 UNK         0.3000 
    145 H145       -0.6997  -25.6875  -42.7899 H         1 UNK         0.0600 
    146 H146        1.4280  -26.3950  -43.9090 H         1 UNK         0.0600 
    147 H147        1.7135  -25.9005  -42.2485 H         1 UNK         0.0600 
    148 H148        2.1358  -24.8182  -43.5764 H         1 UNK         0.0600 
    149 H149        0.8912  -23.5721  -41.8259 H         1 UNK         0.3000 
    150 H150       -1.2641  -20.9852  -41.4100 H         1 UNK         0.0600 
    151 H151       -0.9585  -22.9317  -39.0593 H         1 UNK         0.0600 
    152 H152       -2.4815  -22.2859  -39.6587 H         1 UNK         0.0600 
    153 H153       -1.3023  -21.2054  -38.9355 H         1 UNK         0.0600 
    154 H154        1.0164  -21.6937  -39.8513 H         1 UNK         0.3000 
    155 H155        2.9149  -20.4689  -40.2547 H         1 UNK         0.0600 
    156 H156        3.7739  -22.3766  -42.5180 H         1 UNK         0.0600 
    157 H157        3.3566  -22.8734  -40.8809 H         1 UNK         0.0600 
    158 H158        4.7822  -21.8880  -41.1585 H         1 UNK         0.0600 
    159 H159        2.9365  -19.5380  -42.9855 H         1 UNK         0.3000 
    160 H160        4.3225  -16.9368  -42.5208 H         1 UNK         0.0600 
    161 H161        7.0078  -18.3285  -42.9980 H         1 UNK         0.0600 
    162 H162        6.6614  -17.1068  -41.7823 H         1 UNK         0.0600 
    163 H163        6.6203  -16.6783  -43.4837 H         1 UNK         0.0600 
    164 H164        3.8474  -17.3908  -44.6028 H         1 UNK         0.3000 
    165 H165        5.0343  -19.5271  -47.0912 H         1 UNK         0.0600 
    166 H166        3.4154  -21.1616  -46.2205 H         1 UNK         0.0600 
    167 H167        2.3133  -19.8850  -45.7374 H         1 UNK         0.0600 
    168 H168        2.6269  -20.1904  -47.4533 H         1 UNK         0.0600 
    169 H169        2.8169  -17.6581  -46.8557 H         1 UNK         0.3000 
    170 H170        4.6335  -14.7360  -47.1193 H         1 UNK         0.0600 
    171 H171        3.6612  -14.2299  -49.3394 H         1 UNK         0.0600 
    172 H172        3.3791  -15.9425  -49.6411 H         1 UNK         0.0600 
    173 H173        5.0197  -15.3285  -49.5095 H         1 UNK         0.0600 
    174 H174        1.9611  -14.9214  -47.7581 H         1 UNK         0.3000 
    175 H175        0.1428  -15.3411  -46.1409 H         1 UNK         0.0600 
    176 H176        0.4915  -15.9968  -43.7535 H         1 UNK         0.0600 
    177 H177        1.0201  -14.3618  -43.3756 H         1 UNK         0.0600 
    178 H178       -0.6363  -14.6602  -43.9062 H         1 UNK         0.0600 
    179 H179        0.7882  -12.6891  -45.1227 H         1 UNK         0.3000 
    180 H180        0.0106  -10.9289  -46.3923 H         1 UNK         0.0600 
    181 H181        2.2834  -11.1937  -48.4613 H         1 UNK         0.0600 
    182 H182        2.5238  -11.0546  -46.7242 H         1 UNK         0.0600 
    183 H183        1.8344   -9.7126  -47.6178 H         1 UNK         0.0600 
    184 H184       -0.7085  -11.9196  -48.9396 H         1 UNK         0.3000 
    185 H185       -2.4571   -8.9589  -49.9556 H         1 UNK         0.0600 
    186 H186       -0.4142   -9.1302  -51.3745 H         1 UNK         0.0600 
    187 H187       -0.5528  -10.8840  -51.3949 H         1 UNK         0.0600 
    188 H188       -1.7939   -9.8874  -52.1546 H         1 UNK         0.0600 
    189 H189       -2.6827  -11.7833  -50.5442 H         1 UNK         0.3000 
    190 H190       -2.8622  -22.9634  -44.3190 H         1 UNK         0.3000 
    191 H191       -5.1910  -22.9289  -46.0784 H         1 UNK         0.0600 
    192 H192       -5.2494  -21.8677  -43.8325 H         1 UNK         0.0600 
    193 H193       -6.4316  -23.1644  -43.9352 H         1 UNK         0.0600 
    194 H194       -4.9236  -23.4200  -43.0639 H         1 UNK         0.0600 
    195 H195       -3.2994  -25.3464  -44.2798 H         1 UNK         0.3000 
    196 H196       -5.0765  -27.5710  -44.7027 H         1 UNK         0.0600 
    197 H197       -3.1640  -28.9032  -43.8425 H         1 UNK         0.0600 
    198 H198       -3.4359  -27.4943  -42.8289 H         1 UNK         0.0600 
    199 H199       -2.0965  -27.5131  -43.9759 H         1 UNK         0.0600 
    200 H200       -2.1460  -26.3656  -46.3639 H         1 UNK         0.3000 
    201 H201       -2.1298  -28.3655  -48.4491 H         1 UNK         0.0600 
    202 H202       -0.4023  -26.8470  -49.4283 H         1 UNK         0.0600 
    203 H203       -0.0963  -27.1172  -47.7195 H         1 UNK         0.0600 
    204 H204       -0.8114  -25.5989  -48.2563 H         1 UNK         0.0600 
    205 H205       -4.0576  -25.5998  -47.9118 H         1 UNK         0.3000 
    206 H206       -5.5655  -24.4189  -48.9750 H         1 UNK         0.0600 
    207 H207       -6.4628  -26.6126  -49.8003 H         1 UNK         0.0600 
    208 H208       -6.7806  -25.2943  -50.9153 H         1 UNK         0.0600 
    209 H209       -5.5024  -26.4444  -51.2705 H         1 UNK         0.0600 
    210 H210       -2.5994  -24.1296  -49.5479 H         1 UNK         0.3000 
    211 H211       -2.2650  -22.8911  -52.1157 H         1 UNK         0.0600 
    212 H212       -0.1067  -22.1196  -51.1439 H         1 UNK         0.0600 
    213 H213       -0.3610  -23.8227  -50.7964 H         1 UNK         0.0600 
    214 H214       -0.6235  -22.6157  -49.5368 H         1 UNK         0.0600 
    215 H215       -3.2187  -21.7213  -48.8967 H         1 UNK         0.3000 
    216 H216       -3.1996  -18.9069  -49.5097 H         1 UNK         0.0600 
    217 H217       -3.1565  -19.6831  -47.1855 H         1 UNK         0.0600 
    218 H218       -4.6893  -20.5298  -47.3714 H         1 UNK         0.0600 
    219 H219       -4.6278  -18.7705  -47.4284 H         1 UNK         0.0600 
    220 H220       -5.6384  -21.4782  -49.8033 H         1 UNK         0.3000 
    221 H221       -7.8569  -19.7397  -50.4437 H         1 UNK         0.0600 
    222 H222       -7.5159  -22.7704  -50.7733 H         1 UNK         0.0600 
    223 H223       -8.1905  -21.9526  -49.3647 H         1 UNK         0.0600 
    224 H224       -9.0292  -21.8858  -50.9066 H         1 UNK         0.0600 
    225 H225       -5.6390  -21.8282  -52.3403 H         1 UNK         0.3000 
    226 H226       -6.7242  -21.1342  -54.9189 H         1 UNK         0.0600 
    227 H227       -5.4967  -23.2531  -54.4769 H         1 UNK         0.0600 
    228 H228       -4.6807  -22.3309  -55.7308 H         1 UNK         0.0600 
    229 H229       -4.0309  -22.3535  -54.0949 H         1 UNK         0.0600 
    230 H230       -4.4901  -19.5779  -52.7830 H         1 UNK         0.3000 
    231 H231       -3.1772  -17.8221  -52.7797 H         1 UNK         0.0600 
    232 H232       -4.4284  -16.8955  -55.4186 H         1 UNK         0.0600 
    233 H233       -3.5091  -15.9154  -54.2870 H         1 UNK         0.0600 
    234 H234       -5.0776  -16.5485  -53.8157 H         1 UNK         0.0600 
    235 H235       -2.3778  -20.3213  -53.9028 H         1 UNK         0.3000 
    236 H236       -0.7921  -20.0756  -56.2688 H         1 UNK         0.0600 
    237 H237       -0.7319  -22.1636  -54.0201 H         1 UNK         0.0600 
    238 H238       -1.7322  -22.2357  -55.4715 H         1 UNK         0.0600 
    239 H239        0.0158  -22.3476  -55.6020 H         1 UNK         0.0600 
    240 H240       -0.1061  -19.5579  -52.8619 H         1 UNK         0.3000 
    241 H241        2.7724  -19.1535  -53.2830 H         1 UNK         0.0600 
    242 H242        0.2124  -17.1388  -54.0987 H         1 UNK         0.3800 
    243 H243        1.0091  -15.6332  -53.7287 H         1 UNK         0.3800 
    244 H244        2.2878  -20.3205  -51.2849 H         1 UNK         0.0800 
    245 H245        2.8222  -18.7470  -50.7997 H         1 UNK         0.0800 
    246 H246        1.7534  -17.5400  -49.0415 H         1 UNK         0.0800 
    247 H247        0.6941  -16.7233  -50.1714 H         1 UNK         0.0800 
@<TRIPOS>BOND
     1    1    2 1    
     2    1  127 1    
     3    1  128 1    
     4    1  129 1    
     5    2    3 2    
     6    2    4 am   BACKBONE|DICT|INTERRES
     7    4    5 1    
     8    4  130 1    
     9    5    6 1    
    10    5   65 1    
    11    5  131 1    
    12    6    7 1    
    13    6  132 1    
    14    6  133 1    
    15    7    8 1    
    16    8    9 1    
    17    8  134 1    
    18    8  135 1    
    19    9   10 ar   
    20    9   14 ar   
    21   10   11 ar   
    22   10  136 1    
    23   11   12 ar   
    24   11  126 1    
    25   12   13 ar   
    26   12  137 1    
    27   13   14 ar   
    28   13   15 1    
    29   14  138 1    
    30   15   16 1    
    31   15  139 1    
    32   15  140 1    
    33   16   17 1    
    34   17   18 1    
    35   17  141 1    
    36   17  142 1    
    37   18   19 1    
    38   18   67 1    
    39   18  143 1    
    40   19   20 am   BACKBONE|DICT|INTERRES
    41   19  144 1    
    42   20   21 2    
    43   20   22 1    
    44   22   23 1    
    45   22   24 1    
    46   22  145 1    
    47   23  146 1    
    48   23  147 1    
    49   23  148 1    
    50   24   25 am   BACKBONE|DICT|INTERRES
    51   24  149 1    
    52   25   26 2    
    53   25   27 1    
    54   27   28 1    
    55   27   29 1    
    56   27  150 1    
    57   28  151 1    
    58   28  152 1    
    59   28  153 1    
    60   29   30 am   BACKBONE|DICT|INTERRES
    61   29  154 1    
    62   30   31 2    
    63   30   32 1    
    64   32   33 1    
    65   32   34 1    
    66   32  155 1    
    67   33  156 1    
    68   33  157 1    
    69   33  158 1    
    70   34   35 am   BACKBONE|DICT|INTERRES
    71   34  159 1    
    72   35   36 2    
    73   35   37 1    
    74   37   38 1    
    75   37   39 1    
    76   37  160 1    
    77   38  161 1    
    78   38  162 1    
    79   38  163 1    
    80   39   40 am   BACKBONE|DICT|INTERRES
    81   39  164 1    
    82   40   41 2    
    83   40   42 1    
    84   42   43 1    
    85   42   44 1    
    86   42  165 1    
    87   43  166 1    
    88   43  167 1    
    89   43  168 1    
    90   44   45 am   BACKBONE|DICT|INTERRES
    91   44  169 1    
    92   45   46 2    
    93   45   47 1    
    94   47   48 1    
    95   47   49 1    
    96   47  170 1    
    97   48  171 1    
    98   48  172 1    
    99   48  173 1    
   100   49   50 am   BACKBONE|DICT|INTERRES
   101   49  174 1    
   102   50   51 2    
   103   50   52 1    
   104   52   53 1    
   105   52   54 1    
   106   52  175 1    
   107   53  176 1    
   108   53  177 1    
   109   53  178 1    
   110   54   55 am   BACKBONE|DICT|INTERRES
   111   54  179 1    
   112   55   56 2    
   113   55   57 1    
   114   57   58 1    
   115   57   59 1    
   116   57  180 1    
   117   58  181 1    
   118   58  182 1    
   119   58  183 1    
   120   59   60 am   BACKBONE|DICT|INTERRES
   121   59  184 1    
   122   60   61 2    
   123   60   62 1    
   124   62   63 1    
   125   62   64 1    
   126   62  185 1    
   127   63  186 1    
   128   63  187 1    
   129   63  188 1    
   130   64   65 am   BACKBONE|DICT|INTERRES
   131   64  189 1    
   132   65   66 2    
   133   67   68 2    
   134   67   69 am   BACKBONE|DICT|INTERRES
   135   69   70 1    
   136   69  190 1    
   137   70   71 1    
   138   70   72 1    
   139   70  191 1    
   140   71  192 1    
   141   71  193 1    
   142   71  194 1    
   143   72   73 2    
   144   72   74 am   BACKBONE|DICT|INTERRES
   145   74   75 1    
   146   74  195 1    
   147   75   76 1    
   148   75   77 1    
   149   75  196 1    
   150   76  197 1    
   151   76  198 1    
   152   76  199 1    
   153   77   78 2    
   154   77   79 am   BACKBONE|DICT|INTERRES
   155   79   80 1    
   156   79  200 1    
   157   80   81 1    
   158   80   82 1    
   159   80  201 1    
   160   81  202 1    
   161   81  203 1    
   162   81  204 1    
   163   82   83 2    
   164   82   84 am   BACKBONE|DICT|INTERRES
   165   84   85 1    
   166   84  205 1    
   167   85   86 1    
   168   85   87 1    
   169   85  206 1    
   170   86  207 1    
   171   86  208 1    
   172   86  209 1    
   173   87   88 2    
   174   87   89 am   BACKBONE|DICT|INTERRES
   175   89   90 1    
   176   89  210 1    
   177   90   91 1    
   178   90   92 1    
   179   90  211 1    
   180   91  212 1    
   181   91  213 1    
   182   91  214 1    
   183   92   93 2    
   184   92   94 am   BACKBONE|DICT|INTERRES
   185   94   95 1    
   186   94  215 1    
   187   95   96 1    
   188   95   97 1    
   189   95  216 1    
   190   96  217 1    
   191   96  218 1    
   192   96  219 1    
   193   97   98 2    
   194   97   99 am   BACKBONE|DICT|INTERRES
   195   99  100 1    
   196   99  220 1    
   197  100  101 1    
   198  100  102 1    
   199  100  221 1    
   200  101  222 1    
   201  101  223 1    
   202  101  224 1    
   203  102  103 2    
   204  102  104 am   BACKBONE|DICT|INTERRES
   205  104  105 1    
   206  104  225 1    
   207  105  106 1    
   208  105  107 1    
   209  105  226 1    
   210  106  227 1    
   211  106  228 1    
   212  106  229 1    
   213  107  108 2    
   214  107  109 am   BACKBONE|DICT|INTERRES
   215  109  110 1    
   216  109  230 1    
   217  110  111 1    
   218  110  112 1    
   219  110  231 1    
   220  111  232 1    
   221  111  233 1    
   222  111  234 1    
   223  112  113 2    
   224  112  114 am   BACKBONE|DICT|INTERRES
   225  114  115 1    
   226  114  235 1    
   227  115  116 1    
   228  115  117 1    
   229  115  236 1    
   230  116  237 1    
   231  116  238 1    
   232  116  239 1    
   233  117  118 2    
   234  117  119 am   BACKBONE|DICT|INTERRES
   235  119  120 1    
   236  119  240 1    
   237  120  121 1    
   238  120  124 1    
   239  120  241 1    
   240  121  122 am   BACKBONE|DICT|INTERRES
   241  121  123 2    
   242  122  242 1    
   243  122  243 1    
   244  124  125 1    
   245  124  244 1    
   246  124  245 1    
   247  125  126 1    
   248  126  246 1    
   249  126  247 1    
@<TRIPOS>SUBSTRUCTURE
     1 UNK         1 GROUP             0       ****    0 ROOT    
